MODEL        1
REMARK 921   NORMALIZED FREE ENERGY PREDICTED BY IDOCK:   -7.16 KCAL/MOL
REMARK 922        TOTAL FREE ENERGY PREDICTED BY IDOCK:  -13.00 KCAL/MOL
REMARK 923 INTER-LIGAND FREE ENERGY PREDICTED BY IDOCK:  -11.76 KCAL/MOL
REMARK 924 INTRA-LIGAND FREE ENERGY PREDICTED BY IDOCK:   -1.24 KCAL/MOL
REMARK 927      BINDING AFFINITY PREDICTED BY RF-SCORE:    0.00 PKD
ROOT
HETATM    1  C   UNL     1     -12.260  15.232  74.290  1.00  0.00    -0.717 C  
HETATM    2  C   UNL     1     -13.052  15.869  73.158  1.00  0.00    -0.572 C  
ENDROOT
BRANCH   2   3
HETATM    3  O   UNL     1     -13.869  14.833  72.625  1.00  0.00    -0.456 OA 
BRANCH   3   4
HETATM    4  C   UNL     1     -13.334  13.849  71.851  1.00  0.00    -0.412 A  
HETATM    5  C   UNL     1     -13.402  12.488  72.182  1.00  0.00    -0.540 A  
HETATM    6  C   UNL     1     -12.811  11.521  71.366  1.00  0.00    -0.489 A  
HETATM    7  C   UNL     1     -12.145  11.902  70.203  1.00  0.00    -0.382 A  
HETATM    8  C   UNL     1     -12.082  13.251  69.856  1.00  0.00    -0.377 A  
HETATM    9  C   UNL     1     -12.675  14.233  70.665  1.00  0.00    -0.343 A  
BRANCH   9  10
HETATM   10  O   UNL     1     -12.516  15.499  70.149  1.00  0.00    -0.387 OA 
BRANCH  10  11
HETATM   11  C   UNL     1     -11.516  15.698  69.151  1.00  0.00    -0.359 C  
BRANCH  11  12
HETATM   12  C   UNL     1     -10.616  16.875  69.550  1.00  0.00    -0.239 C  
BRANCH  12  13
HETATM   13  N   UNL     1     -10.137  17.712  68.438  1.00  0.00    -0.345 NA 
HETATM   14  H   UNL     1     -10.484  18.666  68.545  1.00  0.00     0.000 HD 
BRANCH  13  15
HETATM   15  C   UNL     1      -8.676  17.727  68.235  1.00  0.00    -0.277 C  
HETATM   16  C   UNL     1      -8.195  19.156  68.532  1.00  0.00    -0.399 C  
BRANCH  15  17
HETATM   17  C   UNL     1      -8.238  17.270  66.815  1.00  0.00    -0.279 C  
BRANCH  17  18
HETATM   18  C   UNL     1      -8.847  15.936  66.442  1.00  0.00    -0.368 A  
HETATM   19  C   UNL     1      -9.930  15.895  65.557  1.00  0.00    -0.313 A  
HETATM   20  C   UNL     1     -10.652  14.708  65.379  1.00  0.00    -0.374 A  
HETATM   21  C   UNL     1     -10.235  13.520  65.994  1.00  0.00    -0.305 A  
HETATM   22  C   UNL     1      -8.419  14.752  67.044  1.00  0.00    -0.250 A  
HETATM   23  C   UNL     1      -9.095  13.550  66.804  1.00  0.00    -0.223 A  
BRANCH  20  24
HETATM   24  S   UNL     1     -12.182  14.714  64.475  1.00  0.00    -0.374 S  
HETATM   25  O   UNL     1     -12.305  15.992  63.813  1.00  0.00    -0.858 OA 
HETATM   26  N   UNL     1     -11.954  13.599  63.238  1.00  0.00    -0.831 N  
HETATM   27  O   UNL     1     -13.211  14.135  65.307  1.00  0.00    -0.760 OA 
HETATM   28  H1  UNL     1     -12.832  13.603  62.719  1.00  0.00     0.000 HD 
HETATM   29  H2  UNL     1     -11.122  13.042  63.048  1.00  0.00     0.000 HD 
ENDBRANCH  20  24
BRANCH  21  30
HETATM   30  O   UNL     1     -10.982  12.399  65.760  1.00  0.00    -0.280 OA 
HETATM   31  C   UNL     1     -10.467  11.149  66.199  1.00  0.00    -0.253 C  
ENDBRANCH  21  30
ENDBRANCH  17  18
ENDBRANCH  15  17
ENDBRANCH  13  15
ENDBRANCH  12  13
ENDBRANCH  11  12
ENDBRANCH  10  11
ENDBRANCH   9  10
ENDBRANCH   3   4
ENDBRANCH   2   3
TORSDOF 11
ENDMDL
MODEL        2
REMARK 921   NORMALIZED FREE ENERGY PREDICTED BY IDOCK:   -6.74 KCAL/MOL
REMARK 922        TOTAL FREE ENERGY PREDICTED BY IDOCK:  -12.32 KCAL/MOL
REMARK 923 INTER-LIGAND FREE ENERGY PREDICTED BY IDOCK:  -10.89 KCAL/MOL
REMARK 924 INTRA-LIGAND FREE ENERGY PREDICTED BY IDOCK:   -1.43 KCAL/MOL
REMARK 927      BINDING AFFINITY PREDICTED BY RF-SCORE:    0.00 PKD
ROOT
HETATM    1  C   UNL     1     -11.342  10.127  70.746  1.00  0.00    -0.436 C  
HETATM    2  C   UNL     1     -12.004  11.086  69.770  1.00  0.00    -0.356 C  
ENDROOT
BRANCH   2   3
HETATM    3  O   UNL     1     -11.591  12.389  70.164  1.00  0.00    -0.222 OA 
BRANCH   3   4
HETATM    4  C   UNL     1     -12.466  13.252  70.751  1.00  0.00    -0.324 A  
HETATM    5  C   UNL     1     -13.365  12.870  71.757  1.00  0.00    -0.451 A  
HETATM    6  C   UNL     1     -14.261  13.791  72.306  1.00  0.00    -0.563 A  
HETATM    7  C   UNL     1     -14.268  15.109  71.857  1.00  0.00    -0.676 A  
HETATM    8  C   UNL     1     -13.370  15.504  70.866  1.00  0.00    -0.414 A  
HETATM    9  C   UNL     1     -12.461  14.591  70.309  1.00  0.00    -0.348 A  
BRANCH   9  10
HETATM   10  O   UNL     1     -11.653  15.173  69.360  1.00  0.00    -0.285 OA 
BRANCH  10  11
HETATM   11  C   UNL     1     -10.607  16.036  69.805  1.00  0.00    -0.323 C  
BRANCH  11  12
HETATM   12  C   UNL     1     -10.457  17.212  68.831  1.00  0.00    -0.346 C  
BRANCH  12  13
HETATM   13  N   UNL     1      -9.073  17.583  68.493  1.00  0.00    -0.274 NA 
HETATM   14  H   UNL     1      -8.434  17.230  69.205  1.00  0.00     0.000 HD 
BRANCH  13  15
HETATM   15  C   UNL     1      -8.613  17.170  67.153  1.00  0.00    -0.204 C  
HETATM   16  C   UNL     1      -7.796  18.338  66.579  1.00  0.00    -0.279 C  
BRANCH  15  17
HETATM   17  C   UNL     1      -9.769  16.767  66.193  1.00  0.00    -0.315 C  
BRANCH  17  18
HETATM   18  C   UNL     1      -9.795  15.276  65.942  1.00  0.00    -0.385 A  
HETATM   19  C   UNL     1     -10.658  14.754  64.972  1.00  0.00    -0.452 A  
HETATM   20  C   UNL     1     -10.869  13.372  64.885  1.00  0.00    -0.352 A  
HETATM   21  C   UNL     1     -10.137  12.486  65.687  1.00  0.00    -0.269 A  
HETATM   22  C   UNL     1      -9.053  14.396  66.732  1.00  0.00    -0.278 A  
HETATM   23  C   UNL     1      -9.207  13.013  66.590  1.00  0.00    -0.222 A  
BRANCH  20  24
HETATM   24  S   UNL     1     -12.158  12.724  63.848  1.00  0.00    -0.510 S  
HETATM   25  O   UNL     1     -12.457  13.711  62.837  1.00  0.00    -0.610 OA 
HETATM   26  N   UNL     1     -11.442  11.449  63.019  1.00  0.00    -0.852 N  
HETATM   27  O   UNL     1     -13.156  12.101  64.687  1.00  0.00    -0.673 OA 
HETATM   28  H1  UNL     1     -12.182  11.077  62.424  1.00  0.00     0.000 HD 
HETATM   29  H2  UNL     1     -10.480  11.119  63.094  1.00  0.00     0.000 HD 
ENDBRANCH  20  24
BRANCH  21  30
HETATM   30  O   UNL     1     -10.387  11.151  65.533  1.00  0.00    -0.253 OA 
HETATM   31  C   UNL     1     -10.151  10.294  66.642  1.00  0.00    -0.223 C  
ENDBRANCH  21  30
ENDBRANCH  17  18
ENDBRANCH  15  17
ENDBRANCH  13  15
ENDBRANCH  12  13
ENDBRANCH  11  12
ENDBRANCH  10  11
ENDBRANCH   9  10
ENDBRANCH   3   4
ENDBRANCH   2   3
TORSDOF 11
ENDMDL
MODEL        3
REMARK 921   NORMALIZED FREE ENERGY PREDICTED BY IDOCK:   -6.35 KCAL/MOL
REMARK 922        TOTAL FREE ENERGY PREDICTED BY IDOCK:  -11.68 KCAL/MOL
REMARK 923 INTER-LIGAND FREE ENERGY PREDICTED BY IDOCK:  -10.29 KCAL/MOL
REMARK 924 INTRA-LIGAND FREE ENERGY PREDICTED BY IDOCK:   -1.39 KCAL/MOL
REMARK 927      BINDING AFFINITY PREDICTED BY RF-SCORE:    0.00 PKD
ROOT
HETATM    1  C   UNL     1     -12.533  15.922  72.579  1.00  0.00    -0.566 C  
HETATM    2  C   UNL     1     -11.547  15.132  71.734  1.00  0.00    -0.408 C  
ENDROOT
BRANCH   2   3
HETATM    3  O   UNL     1     -12.329  14.449  70.762  1.00  0.00    -0.300 OA 
BRANCH   3   4
HETATM    4  C   UNL     1     -12.423  13.090  70.768  1.00  0.00    -0.302 A  
HETATM    5  C   UNL     1     -13.096  12.370  71.765  1.00  0.00    -0.446 A  
HETATM    6  C   UNL     1     -13.138  10.974  71.738  1.00  0.00    -0.554 A  
HETATM    7  C   UNL     1     -12.507  10.278  70.709  1.00  0.00    -0.439 A  
HETATM    8  C   UNL     1     -11.845  10.982  69.705  1.00  0.00    -0.421 A  
HETATM    9  C   UNL     1     -11.799  12.386  69.717  1.00  0.00    -0.317 A  
BRANCH   9  10
HETATM   10  O   UNL     1     -11.114  12.894  68.638  1.00  0.00    -0.244 OA 
BRANCH  10  11
HETATM   11  C   UNL     1     -10.546  11.974  67.707  1.00  0.00    -0.207 C  
BRANCH  11  12
HETATM   12  C   UNL     1     -11.300  12.056  66.373  1.00  0.00    -0.354 C  
BRANCH  12  13
HETATM   13  N   UNL     1     -12.134  13.254  66.189  1.00  0.00    -0.418 NA 
HETATM   14  H   UNL     1     -12.090  13.842  67.022  1.00  0.00     0.000 HD 
BRANCH  13  15
HETATM   15  C   UNL     1     -11.837  14.059  64.988  1.00  0.00    -0.378 C  
HETATM   16  C   UNL     1     -12.320  13.250  63.774  1.00  0.00    -0.440 C  
BRANCH  15  17
HETATM   17  C   UNL     1     -10.335  14.440  64.849  1.00  0.00    -0.419 C  
BRANCH  17  18
HETATM   18  C   UNL     1      -9.903  15.419  65.918  1.00  0.00    -0.387 A  
HETATM   19  C   UNL     1     -10.400  16.726  65.899  1.00  0.00    -0.341 A  
HETATM   20  C   UNL     1      -9.841  17.706  66.731  1.00  0.00    -0.304 A  
HETATM   21  C   UNL     1      -8.859  17.368  67.671  1.00  0.00    -0.225 A  
HETATM   22  C   UNL     1      -8.936  15.075  66.864  1.00  0.00    -0.276 A  
HETATM   23  C   UNL     1      -8.434  16.038  67.748  1.00  0.00    -0.168 A  
BRANCH  20  24
HETATM   24  S   UNL     1     -10.276  19.416  66.521  1.00  0.00    -0.491 S  
HETATM   25  O   UNL     1     -10.798  19.902  67.776  1.00  0.00    -0.318 OA 
HETATM   26  N   UNL     1      -8.809  20.210  66.318  1.00  0.00    -0.547 N  
HETATM   27  O   UNL     1     -10.953  19.567  65.254  1.00  0.00    -0.426 OA 
HETATM   28  H1  UNL     1      -9.058  21.191  66.198  1.00  0.00     0.000 HD 
HETATM   29  H2  UNL     1      -7.874  19.802  66.316  1.00  0.00     0.000 HD 
ENDBRANCH  20  24
BRANCH  21  30
HETATM   30  O   UNL     1      -8.375  18.376  68.458  1.00  0.00    -0.317 OA 
HETATM   31  C   UNL     1      -7.004  18.333  68.831  1.00  0.00    -0.278 C  
ENDBRANCH  21  30
ENDBRANCH  17  18
ENDBRANCH  15  17
ENDBRANCH  13  15
ENDBRANCH  12  13
ENDBRANCH  11  12
ENDBRANCH  10  11
ENDBRANCH   9  10
ENDBRANCH   3   4
ENDBRANCH   2   3
TORSDOF 11
ENDMDL
MODEL        4
REMARK 921   NORMALIZED FREE ENERGY PREDICTED BY IDOCK:   -6.34 KCAL/MOL
REMARK 922        TOTAL FREE ENERGY PREDICTED BY IDOCK:  -11.66 KCAL/MOL
REMARK 923 INTER-LIGAND FREE ENERGY PREDICTED BY IDOCK:  -10.01 KCAL/MOL
REMARK 924 INTRA-LIGAND FREE ENERGY PREDICTED BY IDOCK:   -1.64 KCAL/MOL
REMARK 927      BINDING AFFINITY PREDICTED BY RF-SCORE:    0.00 PKD
ROOT
HETATM    1  C   UNL     1     -10.475  17.204  68.888  1.00  0.00    -0.346 C  
HETATM    2  C   UNL     1     -10.474  16.023  69.847  1.00  0.00    -0.287 C  
ENDROOT
BRANCH   2   3
HETATM    3  O   UNL     1     -11.606  15.236  69.495  1.00  0.00    -0.281 OA 
BRANCH   3   4
HETATM    4  C   UNL     1     -12.415  14.708  70.454  1.00  0.00    -0.352 A  
HETATM    5  C   UNL     1     -13.251  15.485  71.268  1.00  0.00    -0.588 A  
HETATM    6  C   UNL     1     -14.042  14.894  72.256  1.00  0.00    -0.600 A  
HETATM    7  C   UNL     1     -14.010  13.514  72.442  1.00  0.00    -0.638 A  
HETATM    8  C   UNL     1     -13.193  12.729  71.630  1.00  0.00    -0.410 A  
HETATM    9  C   UNL     1     -12.396  13.308  70.630  1.00  0.00    -0.339 A  
BRANCH   9  10
HETATM   10  O   UNL     1     -11.674  12.370  69.928  1.00  0.00    -0.309 OA 
BRANCH  10  11
HETATM   11  C   UNL     1     -12.222  11.059  69.799  1.00  0.00    -0.318 C  
BRANCH  11  12
HETATM   12  C   UNL     1     -11.124  10.014  70.039  1.00  0.00    -0.295 C  
BRANCH  12  13
HETATM   13  N   UNL     1      -9.754  10.452  69.730  1.00  0.00    -0.416 NA 
HETATM   14  H   UNL     1      -9.081   9.786  70.109  1.00  0.00     0.000 HD 
BRANCH  13  15
HETATM   15  C   UNL     1      -9.471  10.699  68.303  1.00  0.00    -0.159 C  
HETATM   16  C   UNL     1      -8.861   9.407  67.736  1.00  0.00    -0.124 C  
BRANCH  15  17
HETATM   17  C   UNL     1      -8.538  11.918  68.053  1.00  0.00    -0.168 C  
BRANCH  17  18
HETATM   18  C   UNL     1      -9.248  13.023  67.303  1.00  0.00    -0.213 A  
HETATM   19  C   UNL     1     -10.502  12.777  66.735  1.00  0.00    -0.253 A  
HETATM   20  C   UNL     1     -11.069  13.701  65.847  1.00  0.00    -0.284 A  
HETATM   21  C   UNL     1     -10.445  14.932  65.604  1.00  0.00    -0.349 A  
HETATM   22  C   UNL     1      -8.631  14.255  67.076  1.00  0.00    -0.213 A  
HETATM   23  C   UNL     1      -9.235  15.209  66.250  1.00  0.00    -0.336 A  
BRANCH  20  24
HETATM   24  S   UNL     1     -12.522  13.278  64.917  1.00  0.00    -0.387 S  
HETATM   25  O   UNL     1     -13.628  14.042  65.443  1.00  0.00    -0.593 OA 
HETATM   26  N   UNL     1     -12.246  13.904  63.381  1.00  0.00    -1.102 N  
HETATM   27  O   UNL     1     -12.548  11.845  64.730  1.00  0.00    -0.312 OA 
HETATM   28  H1  UNL     1     -13.080  13.661  62.848  1.00  0.00     0.000 HD 
HETATM   29  H2  UNL     1     -11.426  14.414  63.055  1.00  0.00     0.000 HD 
ENDBRANCH  20  24
BRANCH  21  30
HETATM   30  O   UNL     1     -11.067  15.788  64.739  1.00  0.00    -0.446 OA 
HETATM   31  C   UNL     1     -11.024  17.179  65.027  1.00  0.00     0.103 C  
ENDBRANCH  21  30
ENDBRANCH  17  18
ENDBRANCH  15  17
ENDBRANCH  13  15
ENDBRANCH  12  13
ENDBRANCH  11  12
ENDBRANCH  10  11
ENDBRANCH   9  10
ENDBRANCH   3   4
ENDBRANCH   2   3
TORSDOF 11
ENDMDL
MODEL        5
REMARK 921   NORMALIZED FREE ENERGY PREDICTED BY IDOCK:   -6.26 KCAL/MOL
REMARK 922        TOTAL FREE ENERGY PREDICTED BY IDOCK:  -11.52 KCAL/MOL
REMARK 923 INTER-LIGAND FREE ENERGY PREDICTED BY IDOCK:  -10.20 KCAL/MOL
REMARK 924 INTRA-LIGAND FREE ENERGY PREDICTED BY IDOCK:   -1.32 KCAL/MOL
REMARK 927      BINDING AFFINITY PREDICTED BY RF-SCORE:    0.00 PKD
ROOT
HETATM    1  C   UNL     1     -12.608  13.994  65.429  1.00  0.00    -0.529 C  
HETATM    2  C   UNL     1     -12.518  12.604  64.817  1.00  0.00    -0.484 C  
ENDROOT
BRANCH   2   3
HETATM    3  O   UNL     1     -11.366  12.001  65.394  1.00  0.00    -0.332 OA 
BRANCH   3   4
HETATM    4  C   UNL     1     -10.500  11.276  64.633  1.00  0.00    -0.325 A  
HETATM    5  C   UNL     1     -10.251  11.551  63.281  1.00  0.00    -0.432 A  
HETATM    6  C   UNL     1      -9.372  10.759  62.537  1.00  0.00    -0.310 A  
HETATM    7  C   UNL     1      -8.729   9.679  63.139  1.00  0.00    -0.236 A  
HETATM    8  C   UNL     1      -8.959   9.404  64.486  1.00  0.00    -0.227 A  
HETATM    9  C   UNL     1      -9.835  10.195  65.246  1.00  0.00    -0.319 A  
BRANCH   9  10
HETATM   10  O   UNL     1      -9.918   9.772  66.553  1.00  0.00    -0.209 OA 
BRANCH  10  11
HETATM   11  C   UNL     1     -10.190   8.393  66.798  1.00  0.00    -0.306 C  
BRANCH  11  12
HETATM   12  C   UNL     1     -10.035   8.094  68.295  1.00  0.00    -0.186 C  
BRANCH  12  13
HETATM   13  N   UNL     1     -11.187   8.454  69.136  1.00  0.00    -0.359 NA 
HETATM   14  H   UNL     1     -11.505   7.638  69.661  1.00  0.00     0.000 HD 
BRANCH  13  15
HETATM   15  C   UNL     1     -10.976   9.592  70.052  1.00  0.00    -0.251 C  
HETATM   16  C   UNL     1      -9.672   9.316  70.818  1.00  0.00    -0.348 C  
BRANCH  15  17
HETATM   17  C   UNL     1     -12.161   9.836  71.028  1.00  0.00    -0.436 C  
BRANCH  17  18
HETATM   18  C   UNL     1     -12.543  11.298  71.093  1.00  0.00    -0.501 A  
HETATM   19  C   UNL     1     -11.942  12.208  70.216  1.00  0.00    -0.389 A  
HETATM   20  C   UNL     1     -12.103  13.586  70.410  1.00  0.00    -0.345 A  
HETATM   21  C   UNL     1     -12.956  14.072  71.409  1.00  0.00    -0.353 A  
HETATM   22  C   UNL     1     -13.405  11.777  72.080  1.00  0.00    -0.417 A  
HETATM   23  C   UNL     1     -13.626  13.152  72.223  1.00  0.00    -0.677 A  
BRANCH  20  24
HETATM   24  S   UNL     1     -11.131  14.743  69.475  1.00  0.00    -0.280 S  
HETATM   25  O   UNL     1     -10.525  14.032  68.375  1.00  0.00    -0.239 OA 
HETATM   26  N   UNL     1     -12.254  15.773  68.766  1.00  0.00    -0.507 N  
HETATM   27  O   UNL     1     -10.397  15.579  70.396  1.00  0.00    -0.293 OA 
HETATM   28  H1  UNL     1     -11.697  16.437  68.229  1.00  0.00     0.000 HD 
HETATM   29  H2  UNL     1     -13.270  15.742  68.852  1.00  0.00     0.000 HD 
ENDBRANCH  20  24
BRANCH  21  30
HETATM   30  O   UNL     1     -13.074  15.429  71.526  1.00  0.00    -0.399 OA 
HETATM   31  C   UNL     1     -13.375  15.966  72.807  1.00  0.00    -0.508 C  
ENDBRANCH  21  30
ENDBRANCH  17  18
ENDBRANCH  15  17
ENDBRANCH  13  15
ENDBRANCH  12  13
ENDBRANCH  11  12
ENDBRANCH  10  11
ENDBRANCH   9  10
ENDBRANCH   3   4
ENDBRANCH   2   3
TORSDOF 11
ENDMDL
MODEL        6
REMARK 921   NORMALIZED FREE ENERGY PREDICTED BY IDOCK:   -6.25 KCAL/MOL
REMARK 922        TOTAL FREE ENERGY PREDICTED BY IDOCK:  -11.52 KCAL/MOL
REMARK 923 INTER-LIGAND FREE ENERGY PREDICTED BY IDOCK:  -10.12 KCAL/MOL
REMARK 924 INTRA-LIGAND FREE ENERGY PREDICTED BY IDOCK:   -1.39 KCAL/MOL
REMARK 927      BINDING AFFINITY PREDICTED BY RF-SCORE:    0.00 PKD
ROOT
HETATM    1  C   UNL     1     -10.189   6.993  67.792  1.00  0.00    -0.227 C  
HETATM    2  C   UNL     1     -11.186   6.349  68.744  1.00  0.00    -0.274 C  
ENDROOT
BRANCH   2   3
HETATM    3  O   UNL     1     -11.194   7.166  69.908  1.00  0.00    -0.260 OA 
BRANCH   3   4
HETATM    4  C   UNL     1     -10.845   6.656  71.122  1.00  0.00    -0.241 A  
HETATM    5  C   UNL     1     -10.453   5.324  71.312  1.00  0.00    -0.274 A  
HETATM    6  C   UNL     1     -10.131   4.845  72.585  1.00  0.00    -0.222 A  
HETATM    7  C   UNL     1     -10.196   5.695  73.687  1.00  0.00    -0.232 A  
HETATM    8  C   UNL     1     -10.573   7.026  73.508  1.00  0.00    -0.405 A  
HETATM    9  C   UNL     1     -10.894   7.522  72.235  1.00  0.00    -0.258 A  
BRANCH   9  10
HETATM   10  O   UNL     1     -11.226   8.857  72.263  1.00  0.00    -0.340 OA 
BRANCH  10  11
HETATM   11  C   UNL     1     -12.607   9.203  72.361  1.00  0.00    -0.311 C  
BRANCH  11  12
HETATM   12  C   UNL     1     -12.927  10.336  71.377  1.00  0.00    -0.440 C  
BRANCH  12  13
HETATM   13  N   UNL     1     -12.720  10.018  69.955  1.00  0.00    -0.467 NA 
HETATM   14  H   UNL     1     -13.619   9.880  69.494  1.00  0.00     0.000 HD 
BRANCH  13  15
HETATM   15  C   UNL     1     -11.908  10.990  69.197  1.00  0.00    -0.337 C  
HETATM   16  C   UNL     1     -10.460  10.477  69.214  1.00  0.00    -0.258 C  
BRANCH  15  17
HETATM   17  C   UNL     1     -11.997  12.442  69.748  1.00  0.00    -0.359 C  
BRANCH  17  18
HETATM   18  C   UNL     1     -11.787  13.469  68.659  1.00  0.00    -0.404 A  
HETATM   19  C   UNL     1     -12.152  13.166  67.343  1.00  0.00    -0.316 A  
HETATM   20  C   UNL     1     -11.756  14.001  66.290  1.00  0.00    -0.387 A  
HETATM   21  C   UNL     1     -11.092  15.207  66.547  1.00  0.00    -0.305 A  
HETATM   22  C   UNL     1     -11.138  14.677  68.920  1.00  0.00    -0.268 A  
HETATM   23  C   UNL     1     -10.813  15.548  67.874  1.00  0.00    -0.307 A  
BRANCH  20  24
HETATM   24  S   UNL     1     -11.978  13.485  64.604  1.00  0.00    -0.422 S  
HETATM   25  O   UNL     1     -13.102  12.580  64.557  1.00  0.00    -0.816 OA 
HETATM   26  N   UNL     1     -12.493  14.867  63.797  1.00  0.00    -1.062 N  
HETATM   27  O   UNL     1     -10.682  13.191  64.038  1.00  0.00    -0.399 OA 
HETATM   28  H1  UNL     1     -12.620  14.571  62.829  1.00  0.00     0.000 HD 
HETATM   29  H2  UNL     1     -12.644  15.796  64.188  1.00  0.00     0.000 HD 
ENDBRANCH  20  24
BRANCH  21  30
HETATM   30  O   UNL     1     -10.753  15.976  65.468  1.00  0.00    -0.367 OA 
HETATM   31  C   UNL     1     -10.493  17.356  65.686  1.00  0.00    -0.165 C  
ENDBRANCH  21  30
ENDBRANCH  17  18
ENDBRANCH  15  17
ENDBRANCH  13  15
ENDBRANCH  12  13
ENDBRANCH  11  12
ENDBRANCH  10  11
ENDBRANCH   9  10
ENDBRANCH   3   4
ENDBRANCH   2   3
TORSDOF 11
ENDMDL
MODEL        7
REMARK 921   NORMALIZED FREE ENERGY PREDICTED BY IDOCK:   -6.23 KCAL/MOL
REMARK 922        TOTAL FREE ENERGY PREDICTED BY IDOCK:  -11.49 KCAL/MOL
REMARK 923 INTER-LIGAND FREE ENERGY PREDICTED BY IDOCK:  -10.21 KCAL/MOL
REMARK 924 INTRA-LIGAND FREE ENERGY PREDICTED BY IDOCK:   -1.27 KCAL/MOL
REMARK 927      BINDING AFFINITY PREDICTED BY RF-SCORE:    0.00 PKD
ROOT
HETATM    1  C   UNL     1     -13.839   8.725  72.294  1.00  0.00    -0.505 C  
HETATM    2  C   UNL     1     -13.713   7.529  71.362  1.00  0.00    -0.324 C  
ENDROOT
BRANCH   2   3
HETATM    3  O   UNL     1     -12.400   7.598  70.819  1.00  0.00    -0.185 OA 
BRANCH   3   4
HETATM    4  C   UNL     1     -11.560   6.528  70.884  1.00  0.00    -0.359 A  
HETATM    5  C   UNL     1     -11.186   5.917  72.089  1.00  0.00    -0.342 A  
HETATM    6  C   UNL     1     -10.298   4.837  72.101  1.00  0.00    -0.256 A  
HETATM    7  C   UNL     1      -9.773   4.354  70.905  1.00  0.00    -0.267 A  
HETATM    8  C   UNL     1     -10.147   4.945  69.699  1.00  0.00    -0.300 A  
HETATM    9  C   UNL     1     -11.042   6.026  69.671  1.00  0.00    -0.404 A  
BRANCH   9  10
HETATM   10  O   UNL     1     -11.297   6.461  68.391  1.00  0.00    -0.280 OA 
BRANCH  10  11
HETATM   11  C   UNL     1     -10.200   6.933  67.611  1.00  0.00    -0.185 C  
BRANCH  11  12
HETATM   12  C   UNL     1     -10.372   8.432  67.331  1.00  0.00    -0.285 C  
BRANCH  12  13
HETATM   13  N   UNL     1     -11.216   9.163  68.289  1.00  0.00    -0.395 NA 
HETATM   14  H   UNL     1     -11.602   8.517  68.978  1.00  0.00     0.000 HD 
BRANCH  13  15
HETATM   15  C   UNL     1     -10.568  10.299  68.971  1.00  0.00    -0.224 C  
HETATM   16  C   UNL     1      -9.912   9.745  70.245  1.00  0.00    -0.309 C  
BRANCH  15  17
HETATM   17  C   UNL     1     -11.541  11.467  69.301  1.00  0.00    -0.384 C  
BRANCH  17  18
HETATM   18  C   UNL     1     -11.399  12.610  68.321  1.00  0.00    -0.337 A  
HETATM   19  C   UNL     1     -11.896  12.470  67.021  1.00  0.00    -0.394 A  
HETATM   20  C   UNL     1     -11.574  13.414  66.037  1.00  0.00    -0.344 A  
HETATM   21  C   UNL     1     -10.848  14.567  66.364  1.00  0.00    -0.318 A  
HETATM   22  C   UNL     1     -10.689  13.764  68.654  1.00  0.00    -0.270 A  
HETATM   23  C   UNL     1     -10.435  14.744  67.688  1.00  0.00    -0.254 A  
BRANCH  20  24
HETATM   24  S   UNL     1     -11.970  13.104  64.332  1.00  0.00    -0.422 S  
HETATM   25  O   UNL     1     -13.177  12.313  64.290  1.00  0.00    -0.785 OA 
HETATM   26  N   UNL     1     -12.406  14.605  63.714  1.00  0.00    -1.092 N  
HETATM   27  O   UNL     1     -10.755  12.758  63.632  1.00  0.00    -0.407 OA 
HETATM   28  H1  UNL     1     -12.634  14.427  62.736  1.00  0.00     0.000 HD 
HETATM   29  H2  UNL     1     -12.437  15.497  64.207  1.00  0.00     0.000 HD 
ENDBRANCH  20  24
BRANCH  21  30
HETATM   30  O   UNL     1     -10.587  15.449  65.353  1.00  0.00    -0.350 OA 
HETATM   31  C   UNL     1     -10.195  16.770  65.702  1.00  0.00    -0.236 C  
ENDBRANCH  21  30
ENDBRANCH  17  18
ENDBRANCH  15  17
ENDBRANCH  13  15
ENDBRANCH  12  13
ENDBRANCH  11  12
ENDBRANCH  10  11
ENDBRANCH   9  10
ENDBRANCH   3   4
ENDBRANCH   2   3
TORSDOF 11
ENDMDL
MODEL        8
REMARK 921   NORMALIZED FREE ENERGY PREDICTED BY IDOCK:   -6.19 KCAL/MOL
REMARK 922        TOTAL FREE ENERGY PREDICTED BY IDOCK:  -11.41 KCAL/MOL
REMARK 923 INTER-LIGAND FREE ENERGY PREDICTED BY IDOCK:   -9.93 KCAL/MOL
REMARK 924 INTRA-LIGAND FREE ENERGY PREDICTED BY IDOCK:   -1.49 KCAL/MOL
REMARK 927      BINDING AFFINITY PREDICTED BY RF-SCORE:    0.00 PKD
ROOT
HETATM    1  C   UNL     1      -9.918   8.362  66.735  1.00  0.00    -0.354 C  
HETATM    2  C   UNL     1      -9.183   9.309  65.799  1.00  0.00    -0.224 C  
ENDROOT
BRANCH   2   3
HETATM    3  O   UNL     1      -9.505  10.621  66.242  1.00  0.00    -0.168 OA 
BRANCH   3   4
HETATM    4  C   UNL     1     -10.342  11.417  65.521  1.00  0.00    -0.266 A  
HETATM    5  C   UNL     1     -10.069  11.832  64.210  1.00  0.00    -0.326 A  
HETATM    6  C   UNL     1     -10.950  12.672  63.524  1.00  0.00    -0.413 A  
HETATM    7  C   UNL     1     -12.120  13.108  64.142  1.00  0.00    -0.496 A  
HETATM    8  C   UNL     1     -12.409  12.692  65.441  1.00  0.00    -0.499 A  
HETATM    9  C   UNL     1     -11.536  11.844  66.140  1.00  0.00    -0.288 A  
BRANCH   9  10
HETATM   10  O   UNL     1     -12.001  11.537  67.398  1.00  0.00    -0.623 OA 
BRANCH  10  11
HETATM   11  C   UNL     1     -11.175  11.855  68.517  1.00  0.00    -0.256 C  
BRANCH  11  12
HETATM   12  C   UNL     1     -12.020  12.521  69.610  1.00  0.00    -0.272 C  
BRANCH  12  13
HETATM   13  N   UNL     1     -11.342  13.576  70.382  1.00  0.00    -0.436 NA 
HETATM   14  H   UNL     1     -10.330  13.466  70.308  1.00  0.00     0.000 HD 
BRANCH  13  15
HETATM   15  C   UNL     1     -11.726  14.959  70.042  1.00  0.00    -0.294 C  
HETATM   16  C   UNL     1     -12.994  15.285  70.848  1.00  0.00    -0.522 C  
BRANCH  15  17
HETATM   17  C   UNL     1     -11.952  15.189  68.521  1.00  0.00    -0.243 C  
BRANCH  17  18
HETATM   18  C   UNL     1     -10.778  15.894  67.879  1.00  0.00    -0.312 A  
HETATM   19  C   UNL     1     -10.469  17.205  68.257  1.00  0.00    -0.373 A  
HETATM   20  C   UNL     1      -9.543  17.954  67.519  1.00  0.00    -0.269 A  
HETATM   21  C   UNL     1      -8.830  17.367  66.465  1.00  0.00    -0.263 A  
HETATM   22  C   UNL     1     -10.059  15.302  66.839  1.00  0.00    -0.257 A  
HETATM   23  C   UNL     1      -9.078  16.027  66.153  1.00  0.00    -0.387 A  
BRANCH  20  24
HETATM   24  S   UNL     1      -9.349  19.693  67.823  1.00  0.00    -0.349 S  
HETATM   25  O   UNL     1      -7.964  19.938  68.150  1.00  0.00    -0.306 OA 
HETATM   26  N   UNL     1      -9.581  20.420  66.326  1.00  0.00    -0.657 N  
HETATM   27  O   UNL     1     -10.459  20.148  68.628  1.00  0.00    -0.370 OA 
HETATM   28  H1  UNL     1      -9.470  21.418  66.500  1.00  0.00     0.000 HD 
HETATM   29  H2  UNL     1      -9.789  19.964  65.437  1.00  0.00     0.000 HD 
ENDBRANCH  20  24
BRANCH  21  30
HETATM   30  O   UNL     1      -7.932  18.157  65.803  1.00  0.00    -0.521 OA 
HETATM   31  C   UNL     1      -6.562  17.776  65.825  1.00  0.00    -0.186 C  
ENDBRANCH  21  30
ENDBRANCH  17  18
ENDBRANCH  15  17
ENDBRANCH  13  15
ENDBRANCH  12  13
ENDBRANCH  11  12
ENDBRANCH  10  11
ENDBRANCH   9  10
ENDBRANCH   3   4
ENDBRANCH   2   3
TORSDOF 11
ENDMDL
MODEL        9
REMARK 921   NORMALIZED FREE ENERGY PREDICTED BY IDOCK:   -6.18 KCAL/MOL
REMARK 922        TOTAL FREE ENERGY PREDICTED BY IDOCK:  -11.40 KCAL/MOL
REMARK 923 INTER-LIGAND FREE ENERGY PREDICTED BY IDOCK:   -9.94 KCAL/MOL
REMARK 924 INTRA-LIGAND FREE ENERGY PREDICTED BY IDOCK:   -1.46 KCAL/MOL
REMARK 927      BINDING AFFINITY PREDICTED BY RF-SCORE:    0.00 PKD
ROOT
HETATM    1  C   UNL     1      -8.515   8.973  62.474  1.00  0.00    -0.212 C  
HETATM    2  C   UNL     1      -8.682  10.471  62.679  1.00  0.00    -0.236 C  
ENDROOT
BRANCH   2   3
HETATM    3  O   UNL     1      -9.164  10.630  64.008  1.00  0.00    -0.206 OA 
BRANCH   3   4
HETATM    4  C   UNL     1     -10.296  11.343  64.262  1.00  0.00    -0.328 A  
HETATM    5  C   UNL     1     -11.120  11.861  63.253  1.00  0.00    -0.390 A  
HETATM    6  C   UNL     1     -12.257  12.610  63.568  1.00  0.00    -0.638 A  
HETATM    7  C   UNL     1     -12.585  12.850  64.900  1.00  0.00    -0.525 A  
HETATM    8  C   UNL     1     -11.780  12.330  65.913  1.00  0.00    -0.451 A  
HETATM    9  C   UNL     1     -10.639  11.571  65.611  1.00  0.00    -0.274 A  
BRANCH   9  10
HETATM   10  O   UNL     1      -9.986  11.136  66.742  1.00  0.00    -0.198 OA 
BRANCH  10  11
HETATM   11  C   UNL     1     -10.527  10.017  67.441  1.00  0.00    -0.260 C  
BRANCH  11  12
HETATM   12  C   UNL     1      -9.556   9.578  68.545  1.00  0.00    -0.142 C  
BRANCH  12  13
HETATM   13  N   UNL     1     -10.136   8.735  69.602  1.00  0.00    -0.198 NA 
HETATM   14  H   UNL     1      -9.494   7.978  69.836  1.00  0.00     0.000 HD 
BRANCH  13  15
HETATM   15  C   UNL     1     -10.547   9.446  70.829  1.00  0.00    -0.303 C  
HETATM   16  C   UNL     1      -9.952   8.673  72.017  1.00  0.00    -0.399 C  
BRANCH  15  17
HETATM   17  C   UNL     1     -12.087   9.601  70.973  1.00  0.00    -0.421 C  
BRANCH  17  18
HETATM   18  C   UNL     1     -12.501  11.055  71.038  1.00  0.00    -0.512 A  
HETATM   19  C   UNL     1     -11.912  11.980  70.169  1.00  0.00    -0.401 A  
HETATM   20  C   UNL     1     -12.104  13.354  70.364  1.00  0.00    -0.333 A  
HETATM   21  C   UNL     1     -12.976  13.818  71.358  1.00  0.00    -0.355 A  
HETATM   22  C   UNL     1     -13.382  11.513  72.019  1.00  0.00    -0.397 A  
HETATM   23  C   UNL     1     -13.633  12.882  72.163  1.00  0.00    -0.589 A  
BRANCH  20  24
HETATM   24  S   UNL     1     -11.149  14.534  69.440  1.00  0.00    -0.259 S  
HETATM   25  O   UNL     1     -10.464  15.388  70.381  1.00  0.00    -0.294 OA 
HETATM   26  N   UNL     1      -9.938  13.627  68.708  1.00  0.00    -0.394 N  
HETATM   27  O   UNL     1     -11.955  15.022  68.345  1.00  0.00    -0.291 OA 
HETATM   28  H1  UNL     1      -9.390  14.304  68.178  1.00  0.00     0.000 HD 
HETATM   29  H2  UNL     1      -9.785  12.621  68.778  1.00  0.00     0.000 HD 
ENDBRANCH  20  24
BRANCH  21  30
HETATM   30  O   UNL     1     -13.124  15.172  71.476  1.00  0.00    -0.339 OA 
HETATM   31  C   UNL     1     -13.546  15.691  72.730  1.00  0.00    -0.593 C  
ENDBRANCH  21  30
ENDBRANCH  17  18
ENDBRANCH  15  17
ENDBRANCH  13  15
ENDBRANCH  12  13
ENDBRANCH  11  12
ENDBRANCH  10  11
ENDBRANCH   9  10
ENDBRANCH   3   4
ENDBRANCH   2   3
TORSDOF 11
ENDMDL
MODEL       10
REMARK 921   NORMALIZED FREE ENERGY PREDICTED BY IDOCK:   -6.12 KCAL/MOL
REMARK 922        TOTAL FREE ENERGY PREDICTED BY IDOCK:  -11.30 KCAL/MOL
REMARK 923 INTER-LIGAND FREE ENERGY PREDICTED BY IDOCK:   -9.89 KCAL/MOL
REMARK 924 INTRA-LIGAND FREE ENERGY PREDICTED BY IDOCK:   -1.42 KCAL/MOL
REMARK 927      BINDING AFFINITY PREDICTED BY RF-SCORE:    0.00 PKD
ROOT
HETATM    1  C   UNL     1     -11.113  15.213  65.309  1.00  0.00    -0.389 C  
HETATM    2  C   UNL     1     -12.197  14.824  64.315  1.00  0.00    -0.379 C  
ENDROOT
BRANCH   2   3
HETATM    3  O   UNL     1     -12.578  13.497  64.656  1.00  0.00    -0.593 OA 
BRANCH   3   4
HETATM    4  C   UNL     1     -11.671  12.481  64.632  1.00  0.00    -0.359 A  
HETATM    5  C   UNL     1     -10.987  12.089  63.473  1.00  0.00    -0.514 A  
HETATM    6  C   UNL     1     -10.086  11.020  63.498  1.00  0.00    -0.428 A  
HETATM    7  C   UNL     1      -9.857  10.330  64.686  1.00  0.00    -0.396 A  
HETATM    8  C   UNL     1     -10.522  10.718  65.848  1.00  0.00    -0.270 A  
HETATM    9  C   UNL     1     -11.425  11.793  65.839  1.00  0.00    -0.207 A  
BRANCH   9  10
HETATM   10  O   UNL     1     -11.967  12.030  67.081  1.00  0.00    -0.601 OA 
BRANCH  10  11
HETATM   11  C   UNL     1     -11.116  12.564  68.095  1.00  0.00    -0.243 C  
BRANCH  11  12
HETATM   12  C   UNL     1     -11.873  13.631  68.895  1.00  0.00    -0.364 C  
BRANCH  12  13
HETATM   13  N   UNL     1     -11.200  14.105  70.115  1.00  0.00    -0.481 NA 
HETATM   14  H   UNL     1     -10.329  13.593  70.255  1.00  0.00     0.000 HD 
BRANCH  13  15
HETATM   15  C   UNL     1     -10.947  15.557  70.179  1.00  0.00    -0.321 C  
HETATM   16  C   UNL     1     -11.790  16.111  71.339  1.00  0.00    -0.490 C  
BRANCH  15  17
HETATM   17  C   UNL     1     -11.259  16.304  68.851  1.00  0.00    -0.337 C  
BRANCH  17  18
HETATM   18  C   UNL     1     -10.193  17.323  68.516  1.00  0.00    -0.358 A  
HETATM   19  C   UNL     1      -8.844  16.999  68.702  1.00  0.00    -0.267 A  
HETATM   20  C   UNL     1      -7.861  17.993  68.623  1.00  0.00    -0.290 A  
HETATM   21  C   UNL     1      -8.197  19.300  68.244  1.00  0.00    -0.337 A  
HETATM   22  C   UNL     1     -10.529  18.620  68.124  1.00  0.00    -0.361 A  
HETATM   23  C   UNL     1      -9.536  19.594  67.969  1.00  0.00    -0.469 A  
BRANCH  20  24
HETATM   24  S   UNL     1      -6.192  17.647  69.123  1.00  0.00    -0.236 S  
HETATM   25  O   UNL     1      -5.329  17.872  67.987  1.00  0.00    -0.144 OA 
HETATM   26  N   UNL     1      -5.808  18.867  70.213  1.00  0.00    -0.231 N  
HETATM   27  O   UNL     1      -6.188  16.436  69.910  1.00  0.00    -0.208 OA 
HETATM   28  H1  UNL     1      -4.850  18.669  70.500  1.00  0.00     0.000 HD 
HETATM   29  H2  UNL     1      -6.402  19.637  70.521  1.00  0.00     0.000 HD 
ENDBRANCH  20  24
BRANCH  21  30
HETATM   30  O   UNL     1      -7.180  20.211  68.173  1.00  0.00    -0.285 OA 
HETATM   31  C   UNL     1      -7.034  20.958  66.972  1.00  0.00    -0.328 C  
ENDBRANCH  21  30
ENDBRANCH  17  18
ENDBRANCH  15  17
ENDBRANCH  13  15
ENDBRANCH  12  13
ENDBRANCH  11  12
ENDBRANCH  10  11
ENDBRANCH   9  10
ENDBRANCH   3   4
ENDBRANCH   2   3
TORSDOF 11
ENDMDL
MODEL       11
REMARK 921   NORMALIZED FREE ENERGY PREDICTED BY IDOCK:   -6.11 KCAL/MOL
REMARK 922        TOTAL FREE ENERGY PREDICTED BY IDOCK:  -11.29 KCAL/MOL
REMARK 923 INTER-LIGAND FREE ENERGY PREDICTED BY IDOCK:   -9.54 KCAL/MOL
REMARK 924 INTRA-LIGAND FREE ENERGY PREDICTED BY IDOCK:   -1.75 KCAL/MOL
REMARK 927      BINDING AFFINITY PREDICTED BY RF-SCORE:    0.00 PKD
ROOT
HETATM    1  C   UNL     1     -14.336   7.510  71.583  1.00  0.00    -0.621 C  
HETATM    2  C   UNL     1     -13.957   8.899  72.076  1.00  0.00    -0.437 C  
ENDROOT
BRANCH   2   3
HETATM    3  O   UNL     1     -12.975   9.379  71.165  1.00  0.00    -0.308 OA 
BRANCH   3   4
HETATM    4  C   UNL     1     -12.762  10.714  71.007  1.00  0.00    -0.415 A  
HETATM    5  C   UNL     1     -13.302  11.685  71.862  1.00  0.00    -0.403 A  
HETATM    6  C   UNL     1     -13.074  13.046  71.637  1.00  0.00    -0.440 A  
HETATM    7  C   UNL     1     -12.299  13.453  70.553  1.00  0.00    -0.401 A  
HETATM    8  C   UNL     1     -11.746  12.496  69.704  1.00  0.00    -0.372 A  
HETATM    9  C   UNL     1     -11.963  11.126  69.920  1.00  0.00    -0.363 A  
BRANCH   9  10
HETATM   10  O   UNL     1     -11.325  10.343  68.985  1.00  0.00    -0.242 OA 
BRANCH  10  11
HETATM   11  C   UNL     1     -10.160   9.626  69.391  1.00  0.00    -0.203 C  
BRANCH  11  12
HETATM   12  C   UNL     1      -9.599   8.836  68.202  1.00  0.00    -0.146 C  
BRANCH  12  13
HETATM   13  N   UNL     1     -10.304   9.027  66.924  1.00  0.00    -0.263 NA 
HETATM   14  H   UNL     1     -11.192   9.503  67.084  1.00  0.00     0.000 HD 
BRANCH  13  15
HETATM   15  C   UNL     1      -9.539   9.724  65.873  1.00  0.00    -0.250 C  
HETATM   16  C   UNL     1      -8.747   8.653  65.106  1.00  0.00    -0.179 C  
BRANCH  15  17
HETATM   17  C   UNL     1      -8.598  10.836  66.419  1.00  0.00    -0.159 C  
BRANCH  17  18
HETATM   18  C   UNL     1      -9.335  12.139  66.636  1.00  0.00    -0.226 A  
HETATM   19  C   UNL     1     -10.491  12.410  65.896  1.00  0.00    -0.284 A  
HETATM   20  C   UNL     1     -11.053  13.693  65.910  1.00  0.00    -0.284 A  
HETATM   21  C   UNL     1     -10.537  14.689  66.749  1.00  0.00    -0.288 A  
HETATM   22  C   UNL     1      -8.828  13.124  67.485  1.00  0.00    -0.199 A  
HETATM   23  C   UNL     1      -9.437  14.381  67.557  1.00  0.00    -0.207 A  
BRANCH  20  24
HETATM   24  S   UNL     1     -12.349  14.117  64.771  1.00  0.00    -0.388 S  
HETATM   25  O   UNL     1     -13.514  14.490  65.538  1.00  0.00    -0.336 OA 
HETATM   26  N   UNL     1     -11.831  15.540  64.041  1.00  0.00    -0.954 N  
HETATM   27  O   UNL     1     -12.363  13.143  63.705  1.00  0.00    -0.646 OA 
HETATM   28  H1  UNL     1     -12.574  15.784  63.388  1.00  0.00     0.000 HD 
HETATM   29  H2  UNL     1     -10.964  16.049  64.214  1.00  0.00     0.000 HD 
ENDBRANCH  20  24
BRANCH  21  30
HETATM   30  O   UNL     1     -11.150  15.911  66.719  1.00  0.00    -0.217 OA 
HETATM   31  C   UNL     1     -10.387  17.051  67.091  1.00  0.00    -0.305 C  
ENDBRANCH  21  30
ENDBRANCH  17  18
ENDBRANCH  15  17
ENDBRANCH  13  15
ENDBRANCH  12  13
ENDBRANCH  11  12
ENDBRANCH  10  11
ENDBRANCH   9  10
ENDBRANCH   3   4
ENDBRANCH   2   3
TORSDOF 11
ENDMDL
MODEL       12
REMARK 921   NORMALIZED FREE ENERGY PREDICTED BY IDOCK:   -6.11 KCAL/MOL
REMARK 922        TOTAL FREE ENERGY PREDICTED BY IDOCK:  -11.28 KCAL/MOL
REMARK 923 INTER-LIGAND FREE ENERGY PREDICTED BY IDOCK:   -9.78 KCAL/MOL
REMARK 924 INTRA-LIGAND FREE ENERGY PREDICTED BY IDOCK:   -1.50 KCAL/MOL
REMARK 927      BINDING AFFINITY PREDICTED BY RF-SCORE:    0.00 PKD
ROOT
HETATM    1  C   UNL     1     -11.019   6.333  68.110  1.00  0.00    -0.412 C  
HETATM    2  C   UNL     1     -11.221   6.538  69.604  1.00  0.00    -0.384 C  
ENDROOT
BRANCH   2   3
HETATM    3  O   UNL     1     -10.512   7.727  69.932  1.00  0.00    -0.222 OA 
BRANCH   3   4
HETATM    4  C   UNL     1     -11.177   8.867  70.266  1.00  0.00    -0.197 A  
HETATM    5  C   UNL     1     -11.993   8.977  71.401  1.00  0.00    -0.400 A  
HETATM    6  C   UNL     1     -12.675  10.164  71.682  1.00  0.00    -0.549 A  
HETATM    7  C   UNL     1     -12.548  11.259  70.831  1.00  0.00    -0.467 A  
HETATM    8  C   UNL     1     -11.729  11.167  69.707  1.00  0.00    -0.419 A  
HETATM    9  C   UNL     1     -11.034   9.983  69.414  1.00  0.00    -0.244 A  
BRANCH   9  10
HETATM   10  O   UNL     1     -10.271  10.093  68.274  1.00  0.00    -0.154 OA 
BRANCH  10  11
HETATM   11  C   UNL     1     -10.944  10.132  67.017  1.00  0.00    -0.092 C  
BRANCH  11  12
HETATM   12  C   UNL     1      -9.985  10.643  65.933  1.00  0.00    -0.255 C  
BRANCH  12  13
HETATM   13  N   UNL     1     -10.606  10.966  64.639  1.00  0.00    -0.313 NA 
HETATM   14  H   UNL     1     -11.068  10.140  64.258  1.00  0.00     0.000 HD 
BRANCH  13  15
HETATM   15  C   UNL     1     -11.539  12.109  64.648  1.00  0.00    -0.328 C  
HETATM   16  C   UNL     1     -12.521  11.896  63.484  1.00  0.00    -0.609 C  
BRANCH  15  17
HETATM   17  C   UNL     1     -10.835  13.491  64.544  1.00  0.00    -0.422 C  
BRANCH  17  18
HETATM   18  C   UNL     1     -11.082  14.341  65.770  1.00  0.00    -0.310 A  
HETATM   19  C   UNL     1     -10.621  15.661  65.800  1.00  0.00    -0.374 A  
HETATM   20  C   UNL     1     -10.632  16.386  66.999  1.00  0.00    -0.260 A  
HETATM   21  C   UNL     1     -11.207  15.844  68.156  1.00  0.00    -0.339 A  
HETATM   22  C   UNL     1     -11.669  13.802  66.917  1.00  0.00    -0.424 A  
HETATM   23  C   UNL     1     -11.750  14.556  68.093  1.00  0.00    -0.369 A  
BRANCH  20  24
HETATM   24  S   UNL     1      -9.804  17.955  67.107  1.00  0.00    -0.323 S  
HETATM   25  O   UNL     1     -10.798  18.967  67.376  1.00  0.00    -0.473 OA 
HETATM   26  N   UNL     1      -8.885  17.859  68.511  1.00  0.00    -0.294 N  
HETATM   27  O   UNL     1      -8.836  18.039  66.039  1.00  0.00    -0.498 OA 
HETATM   28  H1  UNL     1      -8.410  18.759  68.573  1.00  0.00     0.000 HD 
HETATM   29  H2  UNL     1      -8.817  17.074  69.159  1.00  0.00     0.000 HD 
ENDBRANCH  20  24
BRANCH  21  30
HETATM   30  O   UNL     1     -11.194  16.618  69.283  1.00  0.00    -0.260 OA 
HETATM   31  C   UNL     1     -11.430  15.983  70.533  1.00  0.00    -0.389 C  
ENDBRANCH  21  30
ENDBRANCH  17  18
ENDBRANCH  15  17
ENDBRANCH  13  15
ENDBRANCH  12  13
ENDBRANCH  11  12
ENDBRANCH  10  11
ENDBRANCH   9  10
ENDBRANCH   3   4
ENDBRANCH   2   3
TORSDOF 11
ENDMDL
MODEL       13
REMARK 921   NORMALIZED FREE ENERGY PREDICTED BY IDOCK:   -6.08 KCAL/MOL
REMARK 922        TOTAL FREE ENERGY PREDICTED BY IDOCK:  -11.24 KCAL/MOL
REMARK 923 INTER-LIGAND FREE ENERGY PREDICTED BY IDOCK:   -9.05 KCAL/MOL
REMARK 924 INTRA-LIGAND FREE ENERGY PREDICTED BY IDOCK:   -2.19 KCAL/MOL
REMARK 927      BINDING AFFINITY PREDICTED BY RF-SCORE:    0.00 PKD
ROOT
HETATM    1  C   UNL     1     -10.569  16.866  69.537  1.00  0.00    -0.239 C  
HETATM    2  C   UNL     1     -10.376  15.358  69.494  1.00  0.00    -0.266 C  
ENDROOT
BRANCH   2   3
HETATM    3  O   UNL     1     -11.669  14.807  69.278  1.00  0.00    -0.284 OA 
BRANCH   3   4
HETATM    4  C   UNL     1     -12.319  14.137  70.270  1.00  0.00    -0.356 A  
HETATM    5  C   UNL     1     -13.190  14.759  71.174  1.00  0.00    -0.452 A  
HETATM    6  C   UNL     1     -13.811  14.029  72.191  1.00  0.00    -0.627 A  
HETATM    7  C   UNL     1     -13.568  12.662  72.316  1.00  0.00    -0.508 A  
HETATM    8  C   UNL     1     -12.713  12.030  71.415  1.00  0.00    -0.380 A  
HETATM    9  C   UNL     1     -12.087  12.750  70.385  1.00  0.00    -0.302 A  
BRANCH   9  10
HETATM   10  O   UNL     1     -11.295  11.949  69.594  1.00  0.00    -0.252 OA 
BRANCH  10  11
HETATM   11  C   UNL     1     -11.891  11.330  68.455  1.00  0.00    -0.285 C  
BRANCH  11  12
HETATM   12  C   UNL     1     -11.419  12.036  67.177  1.00  0.00    -0.335 C  
BRANCH  12  13
HETATM   13  N   UNL     1     -12.299  13.107  66.683  1.00  0.00    -0.349 NA 
HETATM   14  H   UNL     1     -12.656  13.655  67.467  1.00  0.00     0.000 HD 
BRANCH  13  15
HETATM   15  C   UNL     1     -11.705  14.002  65.671  1.00  0.00    -0.354 C  
HETATM   16  C   UNL     1     -12.101  13.448  64.293  1.00  0.00    -0.479 C  
BRANCH  15  17
HETATM   17  C   UNL     1     -10.162  14.149  65.796  1.00  0.00    -0.347 C  
BRANCH  17  18
HETATM   18  C   UNL     1      -9.744  15.598  65.911  1.00  0.00    -0.388 A  
HETATM   19  C   UNL     1      -8.481  15.913  66.424  1.00  0.00    -0.348 A  
HETATM   20  C   UNL     1      -8.163  17.237  66.756  1.00  0.00    -0.247 A  
HETATM   21  C   UNL     1      -9.059  18.277  66.474  1.00  0.00    -0.282 A  
HETATM   22  C   UNL     1     -10.632  16.633  65.615  1.00  0.00    -0.282 A  
HETATM   23  C   UNL     1     -10.283  17.963  65.875  1.00  0.00    -0.228 A  
BRANCH  20  24
HETATM   24  S   UNL     1      -6.676  17.605  67.654  1.00  0.00    -0.173 S  
HETATM   25  O   UNL     1      -5.787  16.474  67.531  1.00  0.00    -0.125 OA 
HETATM   26  N   UNL     1      -5.941  18.839  66.781  1.00  0.00    -0.158 N  
HETATM   27  O   UNL     1      -7.036  18.213  68.914  1.00  0.00    -0.273 OA 
HETATM   28  H1  UNL     1      -5.087  19.050  67.296  1.00  0.00     0.000 HD 
HETATM   29  H2  UNL     1      -6.275  19.279  65.923  1.00  0.00     0.000 HD 
ENDBRANCH  20  24
BRANCH  21  30
HETATM   30  O   UNL     1      -8.671  19.544  66.812  1.00  0.00    -0.290 OA 
HETATM   31  C   UNL     1      -9.682  20.482  67.159  1.00  0.00    -0.441 C  
ENDBRANCH  21  30
ENDBRANCH  17  18
ENDBRANCH  15  17
ENDBRANCH  13  15
ENDBRANCH  12  13
ENDBRANCH  11  12
ENDBRANCH  10  11
ENDBRANCH   9  10
ENDBRANCH   3   4
ENDBRANCH   2   3
TORSDOF 11
ENDMDL
MODEL       14
REMARK 921   NORMALIZED FREE ENERGY PREDICTED BY IDOCK:   -6.08 KCAL/MOL
REMARK 922        TOTAL FREE ENERGY PREDICTED BY IDOCK:  -11.23 KCAL/MOL
REMARK 923 INTER-LIGAND FREE ENERGY PREDICTED BY IDOCK:   -9.55 KCAL/MOL
REMARK 924 INTRA-LIGAND FREE ENERGY PREDICTED BY IDOCK:   -1.68 KCAL/MOL
REMARK 927      BINDING AFFINITY PREDICTED BY RF-SCORE:    0.00 PKD
ROOT
HETATM    1  C   UNL     1      -8.085  14.528  67.393  1.00  0.00    -0.219 C  
HETATM    2  C   UNL     1      -9.202  14.891  68.359  1.00  0.00    -0.189 C  
ENDROOT
BRANCH   2   3
HETATM    3  O   UNL     1     -10.190  15.553  67.578  1.00  0.00    -0.246 OA 
BRANCH   3   4
HETATM    4  C   UNL     1     -10.203  16.910  67.471  1.00  0.00    -0.295 A  
HETATM    5  C   UNL     1     -10.118  17.770  68.575  1.00  0.00    -0.377 A  
HETATM    6  C   UNL     1     -10.164  19.157  68.410  1.00  0.00    -0.473 A  
HETATM    7  C   UNL     1     -10.294  19.703  67.136  1.00  0.00    -0.581 A  
HETATM    8  C   UNL     1     -10.367  18.859  66.029  1.00  0.00    -0.485 A  
HETATM    9  C   UNL     1     -10.317  17.464  66.178  1.00  0.00    -0.327 A  
BRANCH   9  10
HETATM   10  O   UNL     1     -10.389  16.807  64.972  1.00  0.00    -0.631 OA 
BRANCH  10  11
HETATM   11  C   UNL     1     -11.670  16.369  64.521  1.00  0.00     0.155 C  
BRANCH  11  12
HETATM   12  C   UNL     1     -11.703  14.836  64.464  1.00  0.00    -0.391 C  
BRANCH  12  13
HETATM   13  N   UNL     1     -10.404  14.167  64.643  1.00  0.00    -0.606 NA 
HETATM   14  H   UNL     1      -9.791  14.744  65.220  1.00  0.00     0.000 HD 
BRANCH  13  15
HETATM   15  C   UNL     1     -10.464  12.796  65.183  1.00  0.00    -0.300 C  
HETATM   16  C   UNL     1     -10.326  11.836  63.990  1.00  0.00    -0.401 C  
BRANCH  15  17
HETATM   17  C   UNL     1     -11.756  12.501  65.996  1.00  0.00    -0.472 C  
BRANCH  17  18
HETATM   18  C   UNL     1     -11.447  11.835  67.319  1.00  0.00    -0.373 A  
HETATM   19  C   UNL     1     -10.824  10.583  67.333  1.00  0.00    -0.349 A  
HETATM   20  C   UNL     1     -10.740   9.849  68.523  1.00  0.00    -0.226 A  
HETATM   21  C   UNL     1     -11.173  10.403  69.735  1.00  0.00    -0.293 A  
HETATM   22  C   UNL     1     -11.866  12.396  68.526  1.00  0.00    -0.352 A  
HETATM   23  C   UNL     1     -11.710  11.694  69.727  1.00  0.00    -0.425 A  
BRANCH  20  24
HETATM   24  S   UNL     1     -10.200   8.156  68.498  1.00  0.00    -0.203 S  
HETATM   25  O   UNL     1      -9.042   8.044  69.354  1.00  0.00    -0.148 OA 
HETATM   26  N   UNL     1     -11.415   7.306  69.289  1.00  0.00    -0.426 N  
HETATM   27  O   UNL     1     -10.245   7.678  67.136  1.00  0.00    -0.230 OA 
HETATM   28  H1  UNL     1     -11.105   6.335  69.275  1.00  0.00     0.000 HD 
HETATM   29  H2  UNL     1     -12.273   7.679  69.695  1.00  0.00     0.000 HD 
ENDBRANCH  20  24
BRANCH  21  30
HETATM   30  O   UNL     1     -11.043   9.632  70.857  1.00  0.00    -0.296 OA 
HETATM   31  C   UNL     1     -12.195   9.427  71.664  1.00  0.00    -0.390 C  
ENDBRANCH  21  30
ENDBRANCH  17  18
ENDBRANCH  15  17
ENDBRANCH  13  15
ENDBRANCH  12  13
ENDBRANCH  11  12
ENDBRANCH  10  11
ENDBRANCH   9  10
ENDBRANCH   3   4
ENDBRANCH   2   3
TORSDOF 11
ENDMDL
MODEL       15
REMARK 921   NORMALIZED FREE ENERGY PREDICTED BY IDOCK:   -6.07 KCAL/MOL
REMARK 922        TOTAL FREE ENERGY PREDICTED BY IDOCK:  -11.22 KCAL/MOL
REMARK 923 INTER-LIGAND FREE ENERGY PREDICTED BY IDOCK:   -9.83 KCAL/MOL
REMARK 924 INTRA-LIGAND FREE ENERGY PREDICTED BY IDOCK:   -1.39 KCAL/MOL
REMARK 927      BINDING AFFINITY PREDICTED BY RF-SCORE:    0.00 PKD
ROOT
HETATM    1  C   UNL     1     -11.923   9.263  71.710  1.00  0.00    -0.455 C  
HETATM    2  C   UNL     1     -12.928  10.404  71.760  1.00  0.00    -0.475 C  
ENDROOT
BRANCH   2   3
HETATM    3  O   UNL     1     -12.388  11.434  70.941  1.00  0.00    -0.379 OA 
BRANCH   3   4
HETATM    4  C   UNL     1     -12.674  12.743  71.184  1.00  0.00    -0.263 A  
HETATM    5  C   UNL     1     -13.446  13.171  72.273  1.00  0.00    -0.665 A  
HETATM    6  C   UNL     1     -13.733  14.526  72.461  1.00  0.00    -0.580 A  
HETATM    7  C   UNL     1     -13.248  15.472  71.560  1.00  0.00    -0.589 A  
HETATM    8  C   UNL     1     -12.469  15.059  70.480  1.00  0.00    -0.425 A  
HETATM    9  C   UNL     1     -12.168  13.702  70.283  1.00  0.00    -0.353 A  
BRANCH   9  10
HETATM   10  O   UNL     1     -11.378  13.499  69.174  1.00  0.00    -0.260 OA 
BRANCH  10  11
HETATM   11  C   UNL     1     -12.023  13.318  67.914  1.00  0.00    -0.309 C  
BRANCH  11  12
HETATM   12  C   UNL     1     -11.905  11.852  67.479  1.00  0.00    -0.179 C  
BRANCH  12  13
HETATM   13  N   UNL     1     -11.501  11.636  66.080  1.00  0.00    -0.352 NA 
HETATM   14  H   UNL     1     -11.905  10.766  65.731  1.00  0.00     0.000 HD 
BRANCH  13  15
HETATM   15  C   UNL     1     -11.805  12.741  65.152  1.00  0.00    -0.391 C  
HETATM   16  C   UNL     1     -12.702  12.166  64.044  1.00  0.00    -0.452 C  
BRANCH  15  17
HETATM   17  C   UNL     1     -10.540  13.421  64.555  1.00  0.00    -0.441 C  
BRANCH  17  18
HETATM   18  C   UNL     1     -10.358  14.828  65.080  1.00  0.00    -0.439 A  
HETATM   19  C   UNL     1      -9.543  15.049  66.195  1.00  0.00    -0.345 A  
HETATM   20  C   UNL     1      -9.544  16.296  66.835  1.00  0.00    -0.232 A  
HETATM   21  C   UNL     1     -10.271  17.369  66.304  1.00  0.00    -0.341 A  
HETATM   22  C   UNL     1     -11.072  15.899  64.540  1.00  0.00    -0.285 A  
HETATM   23  C   UNL     1     -11.011  17.164  65.135  1.00  0.00     0.044 A  
BRANCH  20  24
HETATM   24  S   UNL     1      -8.727  16.503  68.399  1.00  0.00    -0.227 S  
HETATM   25  O   UNL     1      -7.759  15.441  68.541  1.00  0.00    -0.123 OA 
HETATM   26  N   UNL     1      -7.818  17.906  68.226  1.00  0.00    -0.275 N  
HETATM   27  O   UNL     1      -9.719  16.828  69.397  1.00  0.00    -0.176 OA 
HETATM   28  H1  UNL     1      -7.349  18.025  69.123  1.00  0.00     0.000 HD 
HETATM   29  H2  UNL     1      -7.750  18.507  67.405  1.00  0.00     0.000 HD 
ENDBRANCH  20  24
BRANCH  21  30
HETATM   30  O   UNL     1     -10.210  18.559  66.975  1.00  0.00    -0.341 OA 
HETATM   31  C   UNL     1     -10.366  19.758  66.228  1.00  0.00    -0.519 C  
ENDBRANCH  21  30
ENDBRANCH  17  18
ENDBRANCH  15  17
ENDBRANCH  13  15
ENDBRANCH  12  13
ENDBRANCH  11  12
ENDBRANCH  10  11
ENDBRANCH   9  10
ENDBRANCH   3   4
ENDBRANCH   2   3
TORSDOF 11
ENDMDL
MODEL       16
REMARK 921   NORMALIZED FREE ENERGY PREDICTED BY IDOCK:   -6.06 KCAL/MOL
REMARK 922        TOTAL FREE ENERGY PREDICTED BY IDOCK:  -11.19 KCAL/MOL
REMARK 923 INTER-LIGAND FREE ENERGY PREDICTED BY IDOCK:   -9.31 KCAL/MOL
REMARK 924 INTRA-LIGAND FREE ENERGY PREDICTED BY IDOCK:   -1.88 KCAL/MOL
REMARK 927      BINDING AFFINITY PREDICTED BY RF-SCORE:    0.00 PKD
ROOT
HETATM    1  C   UNL     1     -12.002   9.520  71.606  1.00  0.00    -0.474 C  
HETATM    2  C   UNL     1     -12.922  10.450  70.831  1.00  0.00    -0.387 C  
ENDROOT
BRANCH   2   3
HETATM    3  O   UNL     1     -12.157  11.619  70.563  1.00  0.00    -0.361 OA 
BRANCH   3   4
HETATM    4  C   UNL     1     -12.604  12.849  70.940  1.00  0.00    -0.270 A  
HETATM    5  C   UNL     1     -13.470  13.054  72.023  1.00  0.00    -0.584 A  
HETATM    6  C   UNL     1     -13.920  14.336  72.349  1.00  0.00    -0.597 A  
HETATM    7  C   UNL     1     -13.507  15.433  71.596  1.00  0.00    -0.593 A  
HETATM    8  C   UNL     1     -12.636  15.243  70.524  1.00  0.00    -0.450 A  
HETATM    9  C   UNL     1     -12.171  13.962  70.188  1.00  0.00    -0.358 A  
BRANCH   9  10
HETATM   10  O   UNL     1     -11.312  13.983  69.113  1.00  0.00    -0.254 OA 
BRANCH  10  11
HETATM   11  C   UNL     1     -10.195  14.869  69.163  1.00  0.00    -0.242 C  
BRANCH  11  12
HETATM   12  C   UNL     1     -10.060  15.607  67.825  1.00  0.00    -0.226 C  
BRANCH  12  13
HETATM   13  N   UNL     1     -11.263  15.610  66.978  1.00  0.00    -0.200 NA 
HETATM   14  H   UNL     1     -11.624  16.560  66.887  1.00  0.00     0.000 HD 
BRANCH  13  15
HETATM   15  C   UNL     1     -11.104  15.000  65.644  1.00  0.00    -0.349 C  
HETATM   16  C   UNL     1     -11.215  16.136  64.614  1.00  0.00    -0.307 C  
BRANCH  15  17
HETATM   17  C   UNL     1     -12.130  13.870  65.347  1.00  0.00    -0.423 C  
BRANCH  17  18
HETATM   18  C   UNL     1     -11.461  12.518  65.239  1.00  0.00    -0.374 A  
HETATM   19  C   UNL     1     -11.064  11.849  66.402  1.00  0.00    -0.359 A  
HETATM   20  C   UNL     1     -10.241  10.718  66.320  1.00  0.00    -0.245 A  
HETATM   21  C   UNL     1      -9.899  10.173  65.076  1.00  0.00    -0.322 A  
HETATM   22  C   UNL     1     -11.135  11.970  63.998  1.00  0.00    -0.452 A  
HETATM   23  C   UNL     1     -10.379  10.795  63.918  1.00  0.00    -0.329 A  
BRANCH  20  24
HETATM   24  S   UNL     1      -9.514  10.029  67.788  1.00  0.00    -0.141 S  
HETATM   25  O   UNL     1      -8.079  10.076  67.639  1.00  0.00    -0.109 OA 
HETATM   26  N   UNL     1      -9.866  11.136  69.002  1.00  0.00    -0.359 N  
HETATM   27  O   UNL     1     -10.249   8.840  68.151  1.00  0.00    -0.189 OA 
HETATM   28  H1  UNL     1      -9.449  10.741  69.844  1.00  0.00     0.000 HD 
HETATM   29  H2  UNL     1     -10.383  12.011  68.917  1.00  0.00     0.000 HD 
ENDBRANCH  20  24
BRANCH  21  30
HETATM   30  O   UNL     1      -9.107   9.059  65.078  1.00  0.00    -0.197 OA 
HETATM   31  C   UNL     1      -8.102   8.951  64.078  1.00  0.00    -0.161 C  
ENDBRANCH  21  30
ENDBRANCH  17  18
ENDBRANCH  15  17
ENDBRANCH  13  15
ENDBRANCH  12  13
ENDBRANCH  11  12
ENDBRANCH  10  11
ENDBRANCH   9  10
ENDBRANCH   3   4
ENDBRANCH   2   3
TORSDOF 11
ENDMDL
MODEL       17
REMARK 921   NORMALIZED FREE ENERGY PREDICTED BY IDOCK:   -6.05 KCAL/MOL
REMARK 922        TOTAL FREE ENERGY PREDICTED BY IDOCK:  -11.19 KCAL/MOL
REMARK 923 INTER-LIGAND FREE ENERGY PREDICTED BY IDOCK:   -9.67 KCAL/MOL
REMARK 924 INTRA-LIGAND FREE ENERGY PREDICTED BY IDOCK:   -1.53 KCAL/MOL
REMARK 927      BINDING AFFINITY PREDICTED BY RF-SCORE:    0.00 PKD
ROOT
HETATM    1  C   UNL     1      -8.899  14.967  68.792  1.00  0.00    -0.192 C  
HETATM    2  C   UNL     1     -10.208  15.462  69.387  1.00  0.00    -0.262 C  
ENDROOT
BRANCH   2   3
HETATM    3  O   UNL     1     -10.981  14.297  69.648  1.00  0.00    -0.214 OA 
BRANCH   3   4
HETATM    4  C   UNL     1     -12.062  14.346  70.475  1.00  0.00    -0.334 A  
HETATM    5  C   UNL     1     -12.691  15.541  70.849  1.00  0.00    -0.525 A  
HETATM    6  C   UNL     1     -13.781  15.537  71.723  1.00  0.00    -0.582 A  
HETATM    7  C   UNL     1     -14.258  14.332  72.235  1.00  0.00    -0.587 A  
HETATM    8  C   UNL     1     -13.649  13.135  71.861  1.00  0.00    -0.453 A  
HETATM    9  C   UNL     1     -12.556  13.125  70.980  1.00  0.00    -0.312 A  
BRANCH   9  10
HETATM   10  O   UNL     1     -12.105  11.850  70.723  1.00  0.00    -0.357 OA 
BRANCH  10  11
HETATM   11  C   UNL     1     -12.776  10.760  71.353  1.00  0.00    -0.439 C  
BRANCH  11  12
HETATM   12  C   UNL     1     -12.075   9.444  70.992  1.00  0.00    -0.298 C  
BRANCH  12  13
HETATM   13  N   UNL     1     -10.607   9.458  71.096  1.00  0.00    -0.320 NA 
HETATM   14  H   UNL     1     -10.297   8.745  71.757  1.00  0.00     0.000 HD 
BRANCH  13  15
HETATM   15  C   UNL     1      -9.878   9.315  69.821  1.00  0.00    -0.188 C  
HETATM   16  C   UNL     1      -8.752   8.296  70.058  1.00  0.00    -0.133 C  
BRANCH  15  17
HETATM   17  C   UNL     1      -9.316  10.656  69.269  1.00  0.00    -0.136 C  
BRANCH  17  18
HETATM   18  C   UNL     1      -9.546  10.791  67.780  1.00  0.00    -0.176 A  
HETATM   19  C   UNL     1     -10.318  11.851  67.294  1.00  0.00    -0.228 A  
HETATM   20  C   UNL     1     -10.735  11.866  65.956  1.00  0.00    -0.285 A  
HETATM   21  C   UNL     1     -10.293  10.883  65.060  1.00  0.00    -0.288 A  
HETATM   22  C   UNL     1      -9.091   9.819  66.888  1.00  0.00    -0.162 A  
HETATM   23  C   UNL     1      -9.444   9.877  65.535  1.00  0.00    -0.313 A  
BRANCH  20  24
HETATM   24  S   UNL     1     -11.932  13.056  65.402  1.00  0.00    -0.441 S  
HETATM   25  O   UNL     1     -12.078  14.056  66.433  1.00  0.00    -0.416 OA 
HETATM   26  N   UNL     1     -11.186  13.851  64.122  1.00  0.00    -0.598 N  
HETATM   27  O   UNL     1     -13.039  12.350  64.800  1.00  0.00    -0.806 OA 
HETATM   28  H1  UNL     1     -11.873  14.534  63.804  1.00  0.00     0.000 HD 
HETATM   29  H2  UNL     1     -10.252  13.686  63.746  1.00  0.00     0.000 HD 
ENDBRANCH  20  24
BRANCH  21  30
HETATM   30  O   UNL     1     -10.729  10.974  63.768  1.00  0.00    -0.362 OA 
HETATM   31  C   UNL     1      -9.780  10.786  62.727  1.00  0.00    -0.260 C  
ENDBRANCH  21  30
ENDBRANCH  17  18
ENDBRANCH  15  17
ENDBRANCH  13  15
ENDBRANCH  12  13
ENDBRANCH  11  12
ENDBRANCH  10  11
ENDBRANCH   9  10
ENDBRANCH   3   4
ENDBRANCH   2   3
TORSDOF 11
ENDMDL
MODEL       18
REMARK 921   NORMALIZED FREE ENERGY PREDICTED BY IDOCK:   -6.04 KCAL/MOL
REMARK 922        TOTAL FREE ENERGY PREDICTED BY IDOCK:  -11.17 KCAL/MOL
REMARK 923 INTER-LIGAND FREE ENERGY PREDICTED BY IDOCK:  -10.06 KCAL/MOL
REMARK 924 INTRA-LIGAND FREE ENERGY PREDICTED BY IDOCK:   -1.10 KCAL/MOL
REMARK 927      BINDING AFFINITY PREDICTED BY RF-SCORE:    0.00 PKD
ROOT
HETATM    1  C   UNL     1     -11.579   8.750  71.526  1.00  0.00    -0.374 C  
HETATM    2  C   UNL     1     -12.646   9.822  71.686  1.00  0.00    -0.416 C  
ENDROOT
BRANCH   2   3
HETATM    3  O   UNL     1     -12.204  10.929  70.909  1.00  0.00    -0.335 OA 
BRANCH   3   4
HETATM    4  C   UNL     1     -12.633  12.192  71.182  1.00  0.00    -0.260 A  
HETATM    5  C   UNL     1     -13.513  12.494  72.231  1.00  0.00    -0.490 A  
HETATM    6  C   UNL     1     -13.944  13.805  72.451  1.00  0.00    -0.651 A  
HETATM    7  C   UNL     1     -13.498  14.833  71.624  1.00  0.00    -0.468 A  
HETATM    8  C   UNL     1     -12.613  14.547  70.585  1.00  0.00    -0.416 A  
HETATM    9  C   UNL     1     -12.168  13.236  70.356  1.00  0.00    -0.332 A  
BRANCH   9  10
HETATM   10  O   UNL     1     -11.291  13.160  69.298  1.00  0.00    -0.266 OA 
BRANCH  10  11
HETATM   11  C   UNL     1     -11.832  12.988  67.989  1.00  0.00    -0.347 C  
BRANCH  11  12
HETATM   12  C   UNL     1     -11.330  11.667  67.391  1.00  0.00    -0.300 C  
BRANCH  12  13
HETATM   13  N   UNL     1     -11.010  11.701  65.955  1.00  0.00    -0.295 NA 
HETATM   14  H   UNL     1     -11.357  10.857  65.500  1.00  0.00     0.000 HD 
BRANCH  13  15
HETATM   15  C   UNL     1     -11.479  12.896  65.227  1.00  0.00    -0.313 C  
HETATM   16  C   UNL     1     -12.351  12.400  64.063  1.00  0.00    -0.579 C  
BRANCH  15  17
HETATM   17  C   UNL     1     -10.327  13.809  64.718  1.00  0.00    -0.422 C  
BRANCH  17  18
HETATM   18  C   UNL     1      -9.924  14.834  65.754  1.00  0.00    -0.375 A  
HETATM   19  C   UNL     1     -10.456  16.126  65.691  1.00  0.00    -0.402 A  
HETATM   20  C   UNL     1      -9.926  17.148  66.490  1.00  0.00    -0.302 A  
HETATM   21  C   UNL     1      -8.937  16.869  67.442  1.00  0.00    -0.209 A  
HETATM   22  C   UNL     1      -8.949  14.549  66.712  1.00  0.00    -0.270 A  
HETATM   23  C   UNL     1      -8.476  15.554  67.563  1.00  0.00    -0.188 A  
BRANCH  20  24
HETATM   24  S   UNL     1     -10.407  18.837  66.222  1.00  0.00    -0.443 S  
HETATM   25  O   UNL     1     -10.865  19.376  67.481  1.00  0.00    -0.478 OA 
HETATM   26  N   UNL     1      -8.970  19.646  65.895  1.00  0.00    -0.214 N  
HETATM   27  O   UNL     1     -11.159  18.913  64.991  1.00  0.00    -0.420 OA 
HETATM   28  H1  UNL     1      -9.246  20.616  65.742  1.00  0.00     0.000 HD 
HETATM   29  H2  UNL     1      -8.029  19.255  65.858  1.00  0.00     0.000 HD 
ENDBRANCH  20  24
BRANCH  21  30
HETATM   30  O   UNL     1      -8.481  17.915  68.195  1.00  0.00    -0.252 OA 
HETATM   31  C   UNL     1      -7.079  18.145  68.242  1.00  0.00    -0.247 C  
ENDBRANCH  21  30
ENDBRANCH  17  18
ENDBRANCH  15  17
ENDBRANCH  13  15
ENDBRANCH  12  13
ENDBRANCH  11  12
ENDBRANCH  10  11
ENDBRANCH   9  10
ENDBRANCH   3   4
ENDBRANCH   2   3
TORSDOF 11
ENDMDL
MODEL       19
REMARK 921   NORMALIZED FREE ENERGY PREDICTED BY IDOCK:   -6.04 KCAL/MOL
REMARK 922        TOTAL FREE ENERGY PREDICTED BY IDOCK:  -11.17 KCAL/MOL
REMARK 923 INTER-LIGAND FREE ENERGY PREDICTED BY IDOCK:   -9.27 KCAL/MOL
REMARK 924 INTRA-LIGAND FREE ENERGY PREDICTED BY IDOCK:   -1.90 KCAL/MOL
REMARK 927      BINDING AFFINITY PREDICTED BY RF-SCORE:    0.00 PKD
ROOT
HETATM    1  C   UNL     1     -12.927  13.307  71.834  1.00  0.00    -0.409 C  
HETATM    2  C   UNL     1     -13.484  11.905  72.026  1.00  0.00    -0.231 C  
ENDROOT
BRANCH   2   3
HETATM    3  O   UNL     1     -12.450  11.017  71.617  1.00  0.00    -0.310 OA 
BRANCH   3   4
HETATM    4  C   UNL     1     -12.656   9.671  71.586  1.00  0.00    -0.402 A  
HETATM    5  C   UNL     1     -13.926   9.091  71.460  1.00  0.00    -0.336 A  
HETATM    6  C   UNL     1     -14.083   7.702  71.461  1.00  0.00    -0.535 A  
HETATM    7  C   UNL     1     -12.970   6.874  71.586  1.00  0.00    -0.359 A  
HETATM    8  C   UNL     1     -11.701   7.440  71.699  1.00  0.00    -0.311 A  
HETATM    9  C   UNL     1     -11.527   8.833  71.694  1.00  0.00    -0.316 A  
BRANCH   9  10
HETATM   10  O   UNL     1     -10.203   9.194  71.802  1.00  0.00    -0.338 OA 
BRANCH  10  11
HETATM   11  C   UNL     1      -9.213   8.238  71.426  1.00  0.00    -0.169 C  
BRANCH  11  12
HETATM   12  C   UNL     1      -8.649   8.595  70.044  1.00  0.00    -0.132 C  
BRANCH  12  13
HETATM   13  N   UNL     1      -9.000   7.668  68.957  1.00  0.00    -0.138 NA 
HETATM   14  H   UNL     1      -8.979   6.707  69.298  1.00  0.00     0.000 HD 
BRANCH  13  15
HETATM   15  C   UNL     1     -10.284   7.937  68.282  1.00  0.00    -0.203 C  
HETATM   16  C   UNL     1     -10.973   6.580  68.069  1.00  0.00    -0.368 C  
BRANCH  15  17
HETATM   17  C   UNL     1     -10.134   8.708  66.939  1.00  0.00    -0.355 C  
BRANCH  17  18
HETATM   18  C   UNL     1     -10.810  10.060  66.990  1.00  0.00    -0.196 A  
HETATM   19  C   UNL     1     -10.909  10.826  65.823  1.00  0.00    -0.076 A  
HETATM   20  C   UNL     1     -11.317  12.165  65.890  1.00  0.00    -0.356 A  
HETATM   21  C   UNL     1     -11.739  12.722  67.105  1.00  0.00    -0.380 A  
HETATM   22  C   UNL     1     -11.244  10.607  68.198  1.00  0.00    -0.366 A  
HETATM   23  C   UNL     1     -11.724  11.920  68.251  1.00  0.00    -0.385 A  
BRANCH  20  24
HETATM   24  S   UNL     1     -11.185  13.216  64.464  1.00  0.00    -0.374 S  
HETATM   25  O   UNL     1     -10.962  12.377  63.310  1.00  0.00    -0.438 OA 
HETATM   26  N   UNL     1     -12.728  13.849  64.254  1.00  0.00    -0.649 N  
HETATM   27  O   UNL     1     -10.364  14.355  64.804  1.00  0.00    -0.431 OA 
HETATM   28  H1  UNL     1     -12.653  14.452  63.435  1.00  0.00     0.000 HD 
HETATM   29  H2  UNL     1     -13.557  13.670  64.820  1.00  0.00     0.000 HD 
ENDBRANCH  20  24
BRANCH  21  30
HETATM   30  O   UNL     1     -12.137  14.030  67.087  1.00  0.00    -0.423 OA 
HETATM   31  C   UNL     1     -11.908  14.815  68.250  1.00  0.00    -0.284 C  
ENDBRANCH  21  30
ENDBRANCH  17  18
ENDBRANCH  15  17
ENDBRANCH  13  15
ENDBRANCH  12  13
ENDBRANCH  11  12
ENDBRANCH  10  11
ENDBRANCH   9  10
ENDBRANCH   3   4
ENDBRANCH   2   3
TORSDOF 11
ENDMDL
MODEL       20
REMARK 921   NORMALIZED FREE ENERGY PREDICTED BY IDOCK:   -6.04 KCAL/MOL
REMARK 922        TOTAL FREE ENERGY PREDICTED BY IDOCK:  -11.17 KCAL/MOL
REMARK 923 INTER-LIGAND FREE ENERGY PREDICTED BY IDOCK:   -9.91 KCAL/MOL
REMARK 924 INTRA-LIGAND FREE ENERGY PREDICTED BY IDOCK:   -1.26 KCAL/MOL
REMARK 927      BINDING AFFINITY PREDICTED BY RF-SCORE:    0.00 PKD
ROOT
HETATM    1  C   UNL     1     -10.411  19.992  67.205  1.00  0.00    -0.554 C  
HETATM    2  C   UNL     1     -10.477  19.074  65.995  1.00  0.00    -0.458 C  
ENDROOT
BRANCH   2   3
HETATM    3  O   UNL     1     -10.521  17.750  66.514  1.00  0.00    -0.345 OA 
BRANCH   3   4
HETATM    4  C   UNL     1      -9.407  17.166  67.035  1.00  0.00    -0.243 A  
HETATM    5  C   UNL     1      -8.264  16.876  66.275  1.00  0.00    -0.344 A  
HETATM    6  C   UNL     1      -7.157  16.250  66.854  1.00  0.00    -0.246 A  
HETATM    7  C   UNL     1      -7.178  15.906  68.203  1.00  0.00    -0.134 A  
HETATM    8  C   UNL     1      -8.303  16.200  68.972  1.00  0.00    -0.247 A  
HETATM    9  C   UNL     1      -9.420  16.834  68.406  1.00  0.00    -0.241 A  
BRANCH   9  10
HETATM   10  O   UNL     1     -10.420  17.050  69.326  1.00  0.00    -0.323 OA 
BRANCH  10  11
HETATM   11  C   UNL     1     -11.322  15.979  69.601  1.00  0.00    -0.332 C  
BRANCH  11  12
HETATM   12  C   UNL     1     -11.649  15.951  71.100  1.00  0.00    -0.432 C  
BRANCH  12  13
HETATM   13  N   UNL     1     -11.784  14.612  71.695  1.00  0.00    -0.450 NA 
HETATM   14  H   UNL     1     -11.857  14.687  72.710  1.00  0.00     0.000 HD 
BRANCH  13  15
HETATM   15  C   UNL     1     -12.891  13.791  71.169  1.00  0.00    -0.335 C  
HETATM   16  C   UNL     1     -14.146  14.154  71.978  1.00  0.00    -0.619 C  
BRANCH  15  17
HETATM   17  C   UNL     1     -12.612  12.262  71.220  1.00  0.00    -0.336 C  
BRANCH  17  18
HETATM   18  C   UNL     1     -11.896  11.780  69.978  1.00  0.00    -0.422 A  
HETATM   19  C   UNL     1     -11.867  12.591  68.839  1.00  0.00    -0.346 A  
HETATM   20  C   UNL     1     -11.418  12.076  67.616  1.00  0.00    -0.322 A  
HETATM   21  C   UNL     1     -10.886  10.782  67.539  1.00  0.00    -0.288 A  
HETATM   22  C   UNL     1     -11.353  10.496  69.909  1.00  0.00    -0.380 A  
HETATM   23  C   UNL     1     -10.832  10.010  68.704  1.00  0.00    -0.265 A  
BRANCH  20  24
HETATM   24  S   UNL     1     -11.632  13.006  66.117  1.00  0.00    -0.386 S  
HETATM   25  O   UNL     1     -12.535  12.273  65.261  1.00  0.00    -0.585 OA 
HETATM   26  N   UNL     1     -12.484  14.379  66.581  1.00  0.00    -0.500 N  
HETATM   27  O   UNL     1     -10.343  13.500  65.693  1.00  0.00    -0.284 OA 
HETATM   28  H1  UNL     1     -12.607  14.912  65.721  1.00  0.00     0.000 HD 
HETATM   29  H2  UNL     1     -12.808  14.624  67.516  1.00  0.00     0.000 HD 
ENDBRANCH  20  24
BRANCH  21  30
HETATM   30  O   UNL     1     -10.453  10.356  66.314  1.00  0.00    -0.222 OA 
HETATM   31  C   UNL     1      -9.698   9.153  66.253  1.00  0.00    -0.274 C  
ENDBRANCH  21  30
ENDBRANCH  17  18
ENDBRANCH  15  17
ENDBRANCH  13  15
ENDBRANCH  12  13
ENDBRANCH  11  12
ENDBRANCH  10  11
ENDBRANCH   9  10
ENDBRANCH   3   4
ENDBRANCH   2   3
TORSDOF 11
ENDMDL
MODEL       21
REMARK 921   NORMALIZED FREE ENERGY PREDICTED BY IDOCK:   -5.99 KCAL/MOL
REMARK 922        TOTAL FREE ENERGY PREDICTED BY IDOCK:  -11.08 KCAL/MOL
REMARK 923 INTER-LIGAND FREE ENERGY PREDICTED BY IDOCK:   -9.31 KCAL/MOL
REMARK 924 INTRA-LIGAND FREE ENERGY PREDICTED BY IDOCK:   -1.77 KCAL/MOL
REMARK 927      BINDING AFFINITY PREDICTED BY RF-SCORE:    0.00 PKD
ROOT
HETATM    1  C   UNL     1     -10.560   4.229  73.260  1.00  0.00    -0.279 C  
HETATM    2  C   UNL     1     -10.945   5.697  73.368  1.00  0.00    -0.249 C  
ENDROOT
BRANCH   2   3
HETATM    3  O   UNL     1     -11.360   6.086  72.064  1.00  0.00    -0.274 OA 
BRANCH   3   4
HETATM    4  C   UNL     1     -12.083   7.223  71.870  1.00  0.00    -0.314 A  
HETATM    5  C   UNL     1     -13.474   7.228  71.693  1.00  0.00    -0.428 A  
HETATM    6  C   UNL     1     -14.165   8.422  71.470  1.00  0.00    -0.471 A  
HETATM    7  C   UNL     1     -13.472   9.630  71.423  1.00  0.00    -0.403 A  
HETATM    8  C   UNL     1     -12.090   9.639  71.609  1.00  0.00    -0.481 A  
HETATM    9  C   UNL     1     -11.384   8.448  71.839  1.00  0.00    -0.314 A  
BRANCH   9  10
HETATM   10  O   UNL     1     -10.036   8.665  72.012  1.00  0.00    -0.286 OA 
BRANCH  10  11
HETATM   11  C   UNL     1      -9.245   8.929  70.855  1.00  0.00    -0.231 C  
BRANCH  11  12
HETATM   12  C   UNL     1      -8.596   7.628  70.364  1.00  0.00    -0.138 C  
BRANCH  12  13
HETATM   13  N   UNL     1      -8.823   7.302  68.947  1.00  0.00    -0.128 NA 
HETATM   14  H   UNL     1      -8.770   6.293  68.808  1.00  0.00     0.000 HD 
BRANCH  13  15
HETATM   15  C   UNL     1     -10.073   7.827  68.365  1.00  0.00    -0.192 C  
HETATM   16  C   UNL     1     -11.058   6.651  68.280  1.00  0.00    -0.283 C  
BRANCH  15  17
HETATM   17  C   UNL     1      -9.881   8.501  66.976  1.00  0.00    -0.289 C  
BRANCH  17  18
HETATM   18  C   UNL     1     -10.614   9.821  66.887  1.00  0.00    -0.243 A  
HETATM   19  C   UNL     1     -10.717  10.471  65.652  1.00  0.00    -0.052 A  
HETATM   20  C   UNL     1     -11.182  11.791  65.585  1.00  0.00    -0.267 A  
HETATM   21  C   UNL     1     -11.656  12.439  66.734  1.00  0.00    -0.379 A  
HETATM   22  C   UNL     1     -11.099  10.458  68.030  1.00  0.00    -0.359 A  
HETATM   23  C   UNL     1     -11.636  11.748  67.950  1.00  0.00    -0.377 A  
BRANCH  20  24
HETATM   24  S   UNL     1     -11.060  12.710  64.070  1.00  0.00    -0.439 S  
HETATM   25  O   UNL     1     -12.387  13.145  63.703  1.00  0.00    -0.646 OA 
HETATM   26  N   UNL     1     -10.237  14.115  64.485  1.00  0.00    -0.630 N  
HETATM   27  O   UNL     1     -10.166  12.010  63.177  1.00  0.00    -0.410 OA 
HETATM   28  H1  UNL     1     -10.167  14.643  63.615  1.00  0.00     0.000 HD 
HETATM   29  H2  UNL     1      -9.884  14.382  65.404  1.00  0.00     0.000 HD 
ENDBRANCH  20  24
BRANCH  21  30
HETATM   30  O   UNL     1     -12.109  13.720  66.586  1.00  0.00    -0.411 OA 
HETATM   31  C   UNL     1     -11.855  14.644  67.636  1.00  0.00    -0.337 C  
ENDBRANCH  21  30
ENDBRANCH  17  18
ENDBRANCH  15  17
ENDBRANCH  13  15
ENDBRANCH  12  13
ENDBRANCH  11  12
ENDBRANCH  10  11
ENDBRANCH   9  10
ENDBRANCH   3   4
ENDBRANCH   2   3
TORSDOF 11
ENDMDL
MODEL       22
REMARK 921   NORMALIZED FREE ENERGY PREDICTED BY IDOCK:   -5.99 KCAL/MOL
REMARK 922        TOTAL FREE ENERGY PREDICTED BY IDOCK:  -11.08 KCAL/MOL
REMARK 923 INTER-LIGAND FREE ENERGY PREDICTED BY IDOCK:  -10.42 KCAL/MOL
REMARK 924 INTRA-LIGAND FREE ENERGY PREDICTED BY IDOCK:   -0.66 KCAL/MOL
REMARK 927      BINDING AFFINITY PREDICTED BY RF-SCORE:    0.00 PKD
ROOT
HETATM    1  C   UNL     1      -8.825   8.054  73.263  1.00  0.00    -0.330 C  
HETATM    2  C   UNL     1      -9.258   8.147  71.808  1.00  0.00    -0.174 C  
ENDROOT
BRANCH   2   3
HETATM    3  O   UNL     1     -10.290   9.125  71.772  1.00  0.00    -0.344 OA 
BRANCH   3   4
HETATM    4  C   UNL     1     -11.601   8.757  71.729  1.00  0.00    -0.346 A  
HETATM    5  C   UNL     1     -12.028   7.424  71.812  1.00  0.00    -0.338 A  
HETATM    6  C   UNL     1     -13.385   7.100  71.735  1.00  0.00    -0.347 A  
HETATM    7  C   UNL     1     -14.335   8.106  71.575  1.00  0.00    -0.534 A  
HETATM    8  C   UNL     1     -13.923   9.436  71.504  1.00  0.00    -0.222 A  
HETATM    9  C   UNL     1     -12.564   9.778  71.585  1.00  0.00    -0.416 A  
BRANCH   9  10
HETATM   10  O   UNL     1     -12.361  11.137  71.508  1.00  0.00    -0.267 OA 
BRANCH  10  11
HETATM   11  C   UNL     1     -13.398  11.998  71.977  1.00  0.00    -0.341 C  
BRANCH  11  12
HETATM   12  C   UNL     1     -13.018  13.459  71.705  1.00  0.00    -0.355 C  
BRANCH  12  13
HETATM   13  N   UNL     1     -12.102  13.676  70.574  1.00  0.00    -0.418 NA 
HETATM   14  H   UNL     1     -12.575  13.464  69.695  1.00  0.00     0.000 HD 
BRANCH  13  15
HETATM   15  C   UNL     1     -11.483  15.014  70.504  1.00  0.00    -0.290 C  
HETATM   16  C   UNL     1     -12.232  15.909  71.505  1.00  0.00    -0.525 C  
BRANCH  15  17
HETATM   17  C   UNL     1     -11.496  15.633  69.077  1.00  0.00    -0.369 C  
BRANCH  17  18
HETATM   18  C   UNL     1     -10.959  14.670  68.042  1.00  0.00    -0.274 A  
HETATM   19  C   UNL     1     -11.544  14.624  66.772  1.00  0.00    -0.370 A  
HETATM   20  C   UNL     1     -11.223  13.590  65.883  1.00  0.00    -0.300 A  
HETATM   21  C   UNL     1     -10.230  12.655  66.206  1.00  0.00    -0.251 A  
HETATM   22  C   UNL     1      -9.960  13.749  68.361  1.00  0.00    -0.229 A  
HETATM   23  C   UNL     1      -9.584  12.763  67.441  1.00  0.00    -0.199 A  
BRANCH  20  24
HETATM   24  S   UNL     1     -12.155  13.370  64.387  1.00  0.00    -0.416 S  
HETATM   25  O   UNL     1     -12.568  14.673  63.922  1.00  0.00    -0.834 OA 
HETATM   26  N   UNL     1     -11.032  12.836  63.256  1.00  0.00    -0.624 N  
HETATM   27  O   UNL     1     -13.056  12.255  64.564  1.00  0.00    -0.791 OA 
HETATM   28  H1  UNL     1     -11.566  12.710  62.397  1.00  0.00     0.000 HD 
HETATM   29  H2  UNL     1     -10.035  12.674  63.397  1.00  0.00     0.000 HD 
ENDBRANCH  20  24
BRANCH  21  30
HETATM   30  O   UNL     1      -9.961  11.685  65.281  1.00  0.00    -0.240 OA 
HETATM   31  C   UNL     1     -10.099  10.326  65.676  1.00  0.00    -0.271 C  
ENDBRANCH  21  30
ENDBRANCH  17  18
ENDBRANCH  15  17
ENDBRANCH  13  15
ENDBRANCH  12  13
ENDBRANCH  11  12
ENDBRANCH  10  11
ENDBRANCH   9  10
ENDBRANCH   3   4
ENDBRANCH   2   3
TORSDOF 11
ENDMDL
MODEL       23
REMARK 921   NORMALIZED FREE ENERGY PREDICTED BY IDOCK:   -5.98 KCAL/MOL
REMARK 922        TOTAL FREE ENERGY PREDICTED BY IDOCK:  -11.08 KCAL/MOL
REMARK 923 INTER-LIGAND FREE ENERGY PREDICTED BY IDOCK:  -10.01 KCAL/MOL
REMARK 924 INTRA-LIGAND FREE ENERGY PREDICTED BY IDOCK:   -1.07 KCAL/MOL
REMARK 927      BINDING AFFINITY PREDICTED BY RF-SCORE:    0.00 PKD
ROOT
HETATM    1  C   UNL     1     -11.174   5.526  73.022  1.00  0.00    -0.346 C  
HETATM    2  C   UNL     1     -11.901   6.262  71.907  1.00  0.00    -0.305 C  
ENDROOT
BRANCH   2   3
HETATM    3  O   UNL     1     -11.326   7.563  71.862  1.00  0.00    -0.247 OA 
BRANCH   3   4
HETATM    4  C   UNL     1     -11.061   8.169  70.672  1.00  0.00    -0.254 A  
HETATM    5  C   UNL     1     -10.433   7.519  69.601  1.00  0.00    -0.235 A  
HETATM    6  C   UNL     1     -10.159   8.197  68.410  1.00  0.00    -0.226 A  
HETATM    7  C   UNL     1     -10.513   9.537  68.274  1.00  0.00    -0.265 A  
HETATM    8  C   UNL     1     -11.150  10.192  69.327  1.00  0.00    -0.270 A  
HETATM    9  C   UNL     1     -11.436   9.522  70.528  1.00  0.00    -0.276 A  
BRANCH   9  10
HETATM   10  O   UNL     1     -12.077  10.331  71.437  1.00  0.00    -0.372 OA 
BRANCH  10  11
HETATM   11  C   UNL     1     -12.653  11.548  70.965  1.00  0.00    -0.357 C  
BRANCH  11  12
HETATM   12  C   UNL     1     -13.251  12.328  72.144  1.00  0.00    -0.361 C  
BRANCH  12  13
HETATM   13  N   UNL     1     -13.409  13.775  71.931  1.00  0.00    -0.384 NA 
HETATM   14  H   UNL     1     -13.733  14.221  72.790  1.00  0.00     0.000 HD 
BRANCH  13  15
HETATM   15  C   UNL     1     -12.217  14.477  71.417  1.00  0.00    -0.358 C  
HETATM   16  C   UNL     1     -11.546  15.163  72.618  1.00  0.00    -0.419 C  
BRANCH  15  17
HETATM   17  C   UNL     1     -12.533  15.500  70.289  1.00  0.00    -0.403 C  
BRANCH  17  18
HETATM   18  C   UNL     1     -11.861  15.125  68.987  1.00  0.00    -0.331 A  
HETATM   19  C   UNL     1     -11.234  16.115  68.223  1.00  0.00    -0.343 A  
HETATM   20  C   UNL     1     -10.813  15.838  66.916  1.00  0.00    -0.265 A  
HETATM   21  C   UNL     1     -10.910  14.541  66.395  1.00  0.00    -0.318 A  
HETATM   22  C   UNL     1     -11.946  13.828  68.477  1.00  0.00    -0.402 A  
HETATM   23  C   UNL     1     -11.454  13.535  67.200  1.00  0.00    -0.368 A  
BRANCH  20  24
HETATM   24  S   UNL     1     -10.267  17.151  65.851  1.00  0.00    -0.210 S  
HETATM   25  O   UNL     1     -11.128  17.174  64.692  1.00  0.00    -1.036 OA 
HETATM   26  N   UNL     1     -10.625  18.562  66.691  1.00  0.00    -0.380 N  
HETATM   27  O   UNL     1      -8.824  17.120  65.784  1.00  0.00    -0.526 OA 
HETATM   28  H1  UNL     1     -10.312  19.316  66.080  1.00  0.00     0.000 HD 
HETATM   29  H2  UNL     1     -11.060  18.647  67.610  1.00  0.00     0.000 HD 
ENDBRANCH  20  24
BRANCH  21  30
HETATM   30  O   UNL     1     -10.463  14.345  65.118  1.00  0.00    -0.363 OA 
HETATM   31  C   UNL     1     -10.933  13.203  64.413  1.00  0.00    -0.390 C  
ENDBRANCH  21  30
ENDBRANCH  17  18
ENDBRANCH  15  17
ENDBRANCH  13  15
ENDBRANCH  12  13
ENDBRANCH  11  12
ENDBRANCH  10  11
ENDBRANCH   9  10
ENDBRANCH   3   4
ENDBRANCH   2   3
TORSDOF 11
ENDMDL
MODEL       24
REMARK 921   NORMALIZED FREE ENERGY PREDICTED BY IDOCK:   -5.98 KCAL/MOL
REMARK 922        TOTAL FREE ENERGY PREDICTED BY IDOCK:  -11.07 KCAL/MOL
REMARK 923 INTER-LIGAND FREE ENERGY PREDICTED BY IDOCK:   -9.51 KCAL/MOL
REMARK 924 INTRA-LIGAND FREE ENERGY PREDICTED BY IDOCK:   -1.55 KCAL/MOL
REMARK 927      BINDING AFFINITY PREDICTED BY RF-SCORE:    0.00 PKD
ROOT
HETATM    1  C   UNL     1     -11.100  15.866  64.749  1.00  0.00    -0.397 C  
HETATM    2  C   UNL     1     -12.163  14.830  64.415  1.00  0.00    -0.428 C  
ENDROOT
BRANCH   2   3
HETATM    3  O   UNL     1     -11.935  13.741  65.301  1.00  0.00    -0.341 OA 
BRANCH   3   4
HETATM    4  C   UNL     1     -11.111  12.715  64.951  1.00  0.00    -0.296 A  
HETATM    5  C   UNL     1     -11.195  12.048  63.720  1.00  0.00    -0.516 A  
HETATM    6  C   UNL     1     -10.341  10.982  63.422  1.00  0.00    -0.373 A  
HETATM    7  C   UNL     1      -9.390  10.570  64.353  1.00  0.00    -0.307 A  
HETATM    8  C   UNL     1      -9.289  11.233  65.575  1.00  0.00    -0.243 A  
HETATM    9  C   UNL     1     -10.136  12.309  65.885  1.00  0.00    -0.251 A  
BRANCH   9  10
HETATM   10  O   UNL     1      -9.873  12.839  67.128  1.00  0.00    -0.210 OA 
BRANCH  10  11
HETATM   11  C   UNL     1     -10.291  12.101  68.275  1.00  0.00    -0.212 C  
BRANCH  11  12
HETATM   12  C   UNL     1     -11.643  12.634  68.768  1.00  0.00    -0.313 C  
BRANCH  12  13
HETATM   13  N   UNL     1     -11.627  13.273  70.094  1.00  0.00    -0.525 NA 
HETATM   14  H   UNL     1     -10.842  12.921  70.642  1.00  0.00     0.000 HD 
BRANCH  13  15
HETATM   15  C   UNL     1     -11.619  14.748  70.089  1.00  0.00    -0.290 C  
HETATM   16  C   UNL     1     -12.911  15.208  70.782  1.00  0.00    -0.468 C  
BRANCH  15  17
HETATM   17  C   UNL     1     -11.493  15.367  68.667  1.00  0.00    -0.357 C  
BRANCH  17  18
HETATM   18  C   UNL     1     -10.368  16.376  68.593  1.00  0.00    -0.273 A  
HETATM   19  C   UNL     1     -10.595  17.619  67.991  1.00  0.00    -0.379 A  
HETATM   20  C   UNL     1      -9.520  18.470  67.703  1.00  0.00    -0.279 A  
HETATM   21  C   UNL     1      -8.221  18.144  68.114  1.00  0.00    -0.276 A  
HETATM   22  C   UNL     1      -9.078  16.054  69.017  1.00  0.00    -0.242 A  
HETATM   23  C   UNL     1      -8.018  16.941  68.799  1.00  0.00    -0.254 A  
BRANCH  20  24
HETATM   24  S   UNL     1      -9.764  19.917  66.701  1.00  0.00    -0.456 S  
HETATM   25  O   UNL     1      -9.675  21.075  67.559  1.00  0.00    -0.385 OA 
HETATM   26  N   UNL     1      -8.403  19.993  65.718  1.00  0.00    -0.447 N  
HETATM   27  O   UNL     1     -10.859  19.669  65.792  1.00  0.00    -0.468 OA 
HETATM   28  H1  UNL     1      -8.543  20.823  65.143  1.00  0.00     0.000 HD 
HETATM   29  H2  UNL     1      -7.611  19.351  65.700  1.00  0.00     0.000 HD 
ENDBRANCH  20  24
BRANCH  21  30
HETATM   30  O   UNL     1      -7.227  19.032  67.811  1.00  0.00    -0.231 OA 
HETATM   31  C   UNL     1      -6.512  19.628  68.886  1.00  0.00    -0.299 C  
ENDBRANCH  21  30
ENDBRANCH  17  18
ENDBRANCH  15  17
ENDBRANCH  13  15
ENDBRANCH  12  13
ENDBRANCH  11  12
ENDBRANCH  10  11
ENDBRANCH   9  10
ENDBRANCH   3   4
ENDBRANCH   2   3
TORSDOF 11
ENDMDL
MODEL       25
REMARK 921   NORMALIZED FREE ENERGY PREDICTED BY IDOCK:   -5.97 KCAL/MOL
REMARK 922        TOTAL FREE ENERGY PREDICTED BY IDOCK:  -11.06 KCAL/MOL
REMARK 923 INTER-LIGAND FREE ENERGY PREDICTED BY IDOCK:   -9.68 KCAL/MOL
REMARK 924 INTRA-LIGAND FREE ENERGY PREDICTED BY IDOCK:   -1.38 KCAL/MOL
REMARK 927      BINDING AFFINITY PREDICTED BY RF-SCORE:    0.00 PKD
ROOT
HETATM    1  C   UNL     1     -12.317  15.256  74.226  1.00  0.00    -0.755 C  
HETATM    2  C   UNL     1     -13.167  15.959  73.179  1.00  0.00    -0.592 C  
ENDROOT
BRANCH   2   3
HETATM    3  O   UNL     1     -13.991  14.951  72.607  1.00  0.00    -0.451 OA 
BRANCH   3   4
HETATM    4  C   UNL     1     -13.447  13.920  71.903  1.00  0.00    -0.427 A  
HETATM    5  C   UNL     1     -13.619  12.574  72.256  1.00  0.00    -0.443 A  
HETATM    6  C   UNL     1     -13.016  11.554  71.515  1.00  0.00    -0.485 A  
HETATM    7  C   UNL     1     -12.233  11.869  70.406  1.00  0.00    -0.399 A  
HETATM    8  C   UNL     1     -12.065  13.203  70.038  1.00  0.00    -0.375 A  
HETATM    9  C   UNL     1     -12.669  14.237  70.770  1.00  0.00    -0.350 A  
BRANCH   9  10
HETATM   10  O   UNL     1     -12.397  15.478  70.243  1.00  0.00    -0.386 OA 
BRANCH  10  11
HETATM   11  C   UNL     1     -11.043  15.927  70.243  1.00  0.00    -0.373 C  
BRANCH  11  12
HETATM   12  C   UNL     1     -10.773  16.756  68.981  1.00  0.00    -0.331 C  
BRANCH  12  13
HETATM   13  N   UNL     1      -9.432  16.601  68.395  1.00  0.00    -0.224 NA 
HETATM   14  H   UNL     1      -8.762  16.343  69.120  1.00  0.00     0.000 HD 
BRANCH  13  15
HETATM   15  C   UNL     1      -9.338  15.660  67.262  1.00  0.00    -0.215 C  
HETATM   16  C   UNL     1      -8.413  16.304  66.218  1.00  0.00    -0.369 C  
BRANCH  15  17
HETATM   17  C   UNL     1     -10.715  15.290  66.642  1.00  0.00    -0.309 C  
BRANCH  17  18
HETATM   18  C   UNL     1     -10.681  13.936  65.968  1.00  0.00    -0.287 A  
HETATM   19  C   UNL     1     -10.345  12.801  66.713  1.00  0.00    -0.248 A  
HETATM   20  C   UNL     1     -10.081  11.586  66.069  1.00  0.00    -0.232 A  
HETATM   21  C   UNL     1     -10.261  11.458  64.685  1.00  0.00    -0.294 A  
HETATM   22  C   UNL     1     -10.876  13.809  64.591  1.00  0.00    -0.416 A  
HETATM   23  C   UNL     1     -10.689  12.575  63.959  1.00  0.00    -0.449 A  
BRANCH  20  24
HETATM   24  S   UNL     1      -9.393  10.220  66.974  1.00  0.00    -0.156 S  
HETATM   25  O   UNL     1      -9.638  10.447  68.379  1.00  0.00    -0.141 OA 
HETATM   26  N   UNL     1     -10.357   8.905  66.567  1.00  0.00    -0.250 N  
HETATM   27  O   UNL     1      -8.095   9.909  66.422  1.00  0.00    -0.115 OA 
HETATM   28  H1  UNL     1      -9.963   8.122  67.086  1.00  0.00     0.000 HD 
HETATM   29  H2  UNL     1     -11.161   8.893  65.938  1.00  0.00     0.000 HD 
ENDBRANCH  20  24
BRANCH  21  30
HETATM   30  O   UNL     1     -10.000  10.236  64.131  1.00  0.00    -0.315 OA 
HETATM   31  C   UNL     1      -9.389  10.200  62.848  1.00  0.00    -0.292 C  
ENDBRANCH  21  30
ENDBRANCH  17  18
ENDBRANCH  15  17
ENDBRANCH  13  15
ENDBRANCH  12  13
ENDBRANCH  11  12
ENDBRANCH  10  11
ENDBRANCH   9  10
ENDBRANCH   3   4
ENDBRANCH   2   3
TORSDOF 11
ENDMDL
MODEL       26
REMARK 921   NORMALIZED FREE ENERGY PREDICTED BY IDOCK:   -5.97 KCAL/MOL
REMARK 922        TOTAL FREE ENERGY PREDICTED BY IDOCK:  -11.05 KCAL/MOL
REMARK 923 INTER-LIGAND FREE ENERGY PREDICTED BY IDOCK:   -9.79 KCAL/MOL
REMARK 924 INTRA-LIGAND FREE ENERGY PREDICTED BY IDOCK:   -1.26 KCAL/MOL
REMARK 927      BINDING AFFINITY PREDICTED BY RF-SCORE:    0.00 PKD
ROOT
HETATM    1  C   UNL     1     -12.254  14.045  64.695  1.00  0.00    -0.460 C  
HETATM    2  C   UNL     1     -12.084  12.784  63.862  1.00  0.00    -0.486 C  
ENDROOT
BRANCH   2   3
HETATM    3  O   UNL     1     -11.500  11.821  64.730  1.00  0.00    -0.293 OA 
BRANCH   3   4
HETATM    4  C   UNL     1     -10.422  11.087  64.338  1.00  0.00    -0.354 A  
HETATM    5  C   UNL     1      -9.748  11.299  63.127  1.00  0.00    -0.408 A  
HETATM    6  C   UNL     1      -8.663  10.498  62.760  1.00  0.00    -0.231 A  
HETATM    7  C   UNL     1      -8.237   9.473  63.602  1.00  0.00    -0.165 A  
HETATM    8  C   UNL     1      -8.891   9.260  64.814  1.00  0.00    -0.225 A  
HETATM    9  C   UNL     1      -9.979  10.061  65.198  1.00  0.00    -0.280 A  
BRANCH   9  10
HETATM   10  O   UNL     1     -10.480   9.705  66.430  1.00  0.00    -0.202 OA 
BRANCH  10  11
HETATM   11  C   UNL     1     -10.289   8.361  66.870  1.00  0.00    -0.307 C  
BRANCH  11  12
HETATM   12  C   UNL     1      -9.886   8.354  68.350  1.00  0.00    -0.176 C  
BRANCH  12  13
HETATM   13  N   UNL     1     -10.958   8.010  69.298  1.00  0.00    -0.427 NA 
HETATM   14  H   UNL     1     -10.887   7.027  69.563  1.00  0.00     0.000 HD 
BRANCH  13  15
HETATM   15  C   UNL     1     -11.036   8.854  70.505  1.00  0.00    -0.251 C  
HETATM   16  C   UNL     1     -10.876   7.923  71.717  1.00  0.00    -0.286 C  
BRANCH  15  17
HETATM   17  C   UNL     1     -12.348   9.684  70.603  1.00  0.00    -0.201 C  
BRANCH  17  18
HETATM   18  C   UNL     1     -12.124  11.134  70.235  1.00  0.00    -0.462 A  
HETATM   19  C   UNL     1     -12.413  12.136  71.168  1.00  0.00    -0.337 A  
HETATM   20  C   UNL     1     -12.436  13.480  70.776  1.00  0.00    -0.353 A  
HETATM   21  C   UNL     1     -12.060  13.852  69.479  1.00  0.00    -0.342 A  
HETATM   22  C   UNL     1     -11.734  11.501  68.946  1.00  0.00    -0.403 A  
HETATM   23  C   UNL     1     -11.682  12.850  68.578  1.00  0.00    -0.374 A  
BRANCH  20  24
HETATM   24  S   UNL     1     -13.063  14.726  71.877  1.00  0.00    -0.363 S  
HETATM   25  O   UNL     1     -11.980  15.625  72.199  1.00  0.00    -0.368 OA 
HETATM   26  N   UNL     1     -14.123  15.633  70.940  1.00  0.00    -0.747 N  
HETATM   27  O   UNL     1     -13.901  14.088  72.866  1.00  0.00    -0.657 OA 
HETATM   28  H1  UNL     1     -14.482  16.348  71.572  1.00  0.00     0.000 HD 
HETATM   29  H2  UNL     1     -14.355  15.500  69.956  1.00  0.00     0.000 HD 
ENDBRANCH  20  24
BRANCH  21  30
HETATM   30  O   UNL     1     -12.092  15.185  69.176  1.00  0.00    -0.290 OA 
HETATM   31  C   UNL     1     -11.240  15.656  68.140  1.00  0.00    -0.345 C  
ENDBRANCH  21  30
ENDBRANCH  17  18
ENDBRANCH  15  17
ENDBRANCH  13  15
ENDBRANCH  12  13
ENDBRANCH  11  12
ENDBRANCH  10  11
ENDBRANCH   9  10
ENDBRANCH   3   4
ENDBRANCH   2   3
TORSDOF 11
ENDMDL
MODEL       27
REMARK 921   NORMALIZED FREE ENERGY PREDICTED BY IDOCK:   -5.95 KCAL/MOL
REMARK 922        TOTAL FREE ENERGY PREDICTED BY IDOCK:  -11.02 KCAL/MOL
REMARK 923 INTER-LIGAND FREE ENERGY PREDICTED BY IDOCK:   -9.45 KCAL/MOL
REMARK 924 INTRA-LIGAND FREE ENERGY PREDICTED BY IDOCK:   -1.57 KCAL/MOL
REMARK 927      BINDING AFFINITY PREDICTED BY RF-SCORE:    0.00 PKD
ROOT
HETATM    1  C   UNL     1     -12.380  16.147  73.340  1.00  0.00    -0.652 C  
HETATM    2  C   UNL     1     -11.970  16.079  71.877  1.00  0.00    -0.525 C  
ENDROOT
BRANCH   2   3
HETATM    3  O   UNL     1     -12.973  15.306  71.228  1.00  0.00    -0.369 OA 
BRANCH   3   4
HETATM    4  C   UNL     1     -12.891  13.947  71.188  1.00  0.00    -0.351 A  
HETATM    5  C   UNL     1     -13.527  13.111  72.115  1.00  0.00    -0.653 A  
HETATM    6  C   UNL     1     -13.388  11.722  72.044  1.00  0.00    -0.417 A  
HETATM    7  C   UNL     1     -12.609  11.151  71.040  1.00  0.00    -0.503 A  
HETATM    8  C   UNL     1     -11.982  11.971  70.104  1.00  0.00    -0.401 A  
HETATM    9  C   UNL     1     -12.117  13.368  70.160  1.00  0.00    -0.344 A  
BRANCH   9  10
HETATM   10  O   UNL     1     -11.436  14.000  69.145  1.00  0.00    -0.259 OA 
BRANCH  10  11
HETATM   11  C   UNL     1     -12.079  14.118  67.877  1.00  0.00    -0.274 C  
BRANCH  11  12
HETATM   12  C   UNL     1     -11.272  13.358  66.816  1.00  0.00    -0.310 C  
BRANCH  12  13
HETATM   13  N   UNL     1     -11.623  11.939  66.649  1.00  0.00    -0.528 NA 
HETATM   14  H   UNL     1     -12.296  11.833  65.889  1.00  0.00     0.000 HD 
BRANCH  13  15
HETATM   15  C   UNL     1     -10.486  11.021  66.447  1.00  0.00    -0.258 C  
HETATM   16  C   UNL     1     -10.129  11.070  64.953  1.00  0.00    -0.359 C  
BRANCH  15  17
HETATM   17  C   UNL     1     -10.769   9.564  66.910  1.00  0.00    -0.184 C  
BRANCH  17  18
HETATM   18  C   UNL     1     -10.156   9.277  68.263  1.00  0.00    -0.214 A  
HETATM   19  C   UNL     1     -10.764   8.347  69.113  1.00  0.00    -0.123 A  
HETATM   20  C   UNL     1     -10.354   8.237  70.448  1.00  0.00    -0.205 A  
HETATM   21  C   UNL     1      -9.257   8.969  70.920  1.00  0.00    -0.259 A  
HETATM   22  C   UNL     1      -9.054   9.997  68.725  1.00  0.00    -0.148 A  
HETATM   23  C   UNL     1      -8.595   9.828  70.037  1.00  0.00    -0.229 A  
BRANCH  20  24
HETATM   24  S   UNL     1     -11.294   7.262  71.599  1.00  0.00    -0.264 S  
HETATM   25  O   UNL     1     -11.505   8.054  72.787  1.00  0.00    -0.402 OA 
HETATM   26  N   UNL     1     -12.813   7.113  70.895  1.00  0.00    -0.585 N  
HETATM   27  O   UNL     1     -10.761   5.920  71.609  1.00  0.00    -0.236 OA 
HETATM   28  H1  UNL     1     -13.352   6.554  71.555  1.00  0.00     0.000 HD 
HETATM   29  H2  UNL     1     -13.127   7.497  70.004  1.00  0.00     0.000 HD 
ENDBRANCH  20  24
BRANCH  21  30
HETATM   30  O   UNL     1      -8.906   8.796  72.230  1.00  0.00    -0.367 OA 
HETATM   31  C   UNL     1      -7.552   8.477  72.523  1.00  0.00    -0.025 C  
ENDBRANCH  21  30
ENDBRANCH  17  18
ENDBRANCH  15  17
ENDBRANCH  13  15
ENDBRANCH  12  13
ENDBRANCH  11  12
ENDBRANCH  10  11
ENDBRANCH   9  10
ENDBRANCH   3   4
ENDBRANCH   2   3
TORSDOF 11
ENDMDL
MODEL       28
REMARK 921   NORMALIZED FREE ENERGY PREDICTED BY IDOCK:   -5.95 KCAL/MOL
REMARK 922        TOTAL FREE ENERGY PREDICTED BY IDOCK:  -11.02 KCAL/MOL
REMARK 923 INTER-LIGAND FREE ENERGY PREDICTED BY IDOCK:   -9.41 KCAL/MOL
REMARK 924 INTRA-LIGAND FREE ENERGY PREDICTED BY IDOCK:   -1.60 KCAL/MOL
REMARK 927      BINDING AFFINITY PREDICTED BY RF-SCORE:    0.00 PKD
ROOT
HETATM    1  C   UNL     1      -8.478  14.006  68.294  1.00  0.00    -0.171 C  
HETATM    2  C   UNL     1      -9.126  15.250  68.881  1.00  0.00    -0.209 C  
ENDROOT
BRANCH   2   3
HETATM    3  O   UNL     1     -10.017  15.733  67.882  1.00  0.00    -0.224 OA 
BRANCH   3   4
HETATM    4  C   UNL     1     -10.120  17.065  67.622  1.00  0.00    -0.298 A  
HETATM    5  C   UNL     1     -10.137  18.045  68.625  1.00  0.00    -0.401 A  
HETATM    6  C   UNL     1     -10.273  19.398  68.304  1.00  0.00    -0.535 A  
HETATM    7  C   UNL     1     -10.392  19.790  66.973  1.00  0.00    -0.593 A  
HETATM    8  C   UNL     1     -10.363  18.827  65.966  1.00  0.00    -0.467 A  
HETATM    9  C   UNL     1     -10.222  17.464  66.273  1.00  0.00    -0.341 A  
BRANCH   9  10
HETATM   10  O   UNL     1     -10.202  16.674  65.146  1.00  0.00    -0.592 OA 
BRANCH  10  11
HETATM   11  C   UNL     1     -11.437  16.432  64.474  1.00  0.00    -0.073 C  
BRANCH  11  12
HETATM   12  C   UNL     1     -11.835  14.959  64.638  1.00  0.00    -0.407 C  
BRANCH  12  13
HETATM   13  N   UNL     1     -10.857  14.112  65.340  1.00  0.00    -0.320 NA 
HETATM   14  H   UNL     1     -10.507  14.596  66.167  1.00  0.00     0.000 HD 
BRANCH  13  15
HETATM   15  C   UNL     1     -11.330  12.763  65.705  1.00  0.00    -0.320 C  
HETATM   16  C   UNL     1     -12.513  12.436  64.781  1.00  0.00    -0.480 C  
BRANCH  15  17
HETATM   17  C   UNL     1     -11.730  12.627  67.202  1.00  0.00    -0.438 C  
BRANCH  17  18
HETATM   18  C   UNL     1     -11.382  11.262  67.754  1.00  0.00    -0.354 A  
HETATM   19  C   UNL     1     -11.892  10.868  68.995  1.00  0.00    -0.370 A  
HETATM   20  C   UNL     1     -11.402   9.718  69.628  1.00  0.00    -0.122 A  
HETATM   21  C   UNL     1     -10.481   8.885  68.979  1.00  0.00    -0.214 A  
HETATM   22  C   UNL     1     -10.476  10.427  67.098  1.00  0.00    -0.311 A  
HETATM   23  C   UNL     1     -10.046   9.237  67.697  1.00  0.00    -0.266 A  
BRANCH  20  24
HETATM   24  S   UNL     1     -11.842   9.363  71.312  1.00  0.00    -0.387 S  
HETATM   25  O   UNL     1     -12.874  10.292  71.710  1.00  0.00    -0.411 OA 
HETATM   26  N   UNL     1     -12.599   7.864  71.251  1.00  0.00    -0.438 N  
HETATM   27  O   UNL     1     -10.632   9.132  72.066  1.00  0.00    -0.333 OA 
HETATM   28  H1  UNL     1     -12.852   7.660  72.217  1.00  0.00     0.000 HD 
HETATM   29  H2  UNL     1     -12.770   7.285  70.429  1.00  0.00     0.000 HD 
ENDBRANCH  20  24
BRANCH  21  30
HETATM   30  O   UNL     1     -10.062   7.772  69.654  1.00  0.00    -0.187 OA 
HETATM   31  C   UNL     1     -10.034   6.536  68.952  1.00  0.00    -0.151 C  
ENDBRANCH  21  30
ENDBRANCH  17  18
ENDBRANCH  15  17
ENDBRANCH  13  15
ENDBRANCH  12  13
ENDBRANCH  11  12
ENDBRANCH  10  11
ENDBRANCH   9  10
ENDBRANCH   3   4
ENDBRANCH   2   3
TORSDOF 11
ENDMDL
MODEL       29
REMARK 921   NORMALIZED FREE ENERGY PREDICTED BY IDOCK:   -5.93 KCAL/MOL
REMARK 922        TOTAL FREE ENERGY PREDICTED BY IDOCK:  -10.99 KCAL/MOL
REMARK 923 INTER-LIGAND FREE ENERGY PREDICTED BY IDOCK:   -9.52 KCAL/MOL
REMARK 924 INTRA-LIGAND FREE ENERGY PREDICTED BY IDOCK:   -1.47 KCAL/MOL
REMARK 927      BINDING AFFINITY PREDICTED BY RF-SCORE:    0.00 PKD
ROOT
HETATM    1  C   UNL     1     -13.267  15.716  72.235  1.00  0.00    -0.558 C  
HETATM    2  C   UNL     1     -12.076  14.912  71.737  1.00  0.00    -0.360 C  
ENDROOT
BRANCH   2   3
HETATM    3  O   UNL     1     -12.573  14.095  70.684  1.00  0.00    -0.325 OA 
BRANCH   3   4
HETATM    4  C   UNL     1     -12.572  12.737  70.792  1.00  0.00    -0.225 A  
HETATM    5  C   UNL     1     -13.207  12.049  71.836  1.00  0.00    -0.469 A  
HETATM    6  C   UNL     1     -13.151  10.655  71.914  1.00  0.00    -0.563 A  
HETATM    7  C   UNL     1     -12.460   9.929  70.946  1.00  0.00    -0.401 A  
HETATM    8  C   UNL     1     -11.836  10.602  69.896  1.00  0.00    -0.392 A  
HETATM    9  C   UNL     1     -11.888  12.001  69.802  1.00  0.00    -0.331 A  
BRANCH   9  10
HETATM   10  O   UNL     1     -11.225  12.475  68.693  1.00  0.00    -0.241 OA 
BRANCH  10  11
HETATM   11  C   UNL     1     -10.334  11.592  68.015  1.00  0.00    -0.190 C  
BRANCH  11  12
HETATM   12  C   UNL     1     -10.786  11.418  66.559  1.00  0.00    -0.283 C  
BRANCH  12  13
HETATM   13  N   UNL     1     -12.032  12.112  66.195  1.00  0.00    -0.600 NA 
HETATM   14  H   UNL     1     -12.313  12.741  66.947  1.00  0.00     0.000 HD 
BRANCH  13  15
HETATM   15  C   UNL     1     -12.003  12.840  64.912  1.00  0.00    -0.402 C  
HETATM   16  C   UNL     1     -12.451  11.852  63.823  1.00  0.00    -0.537 C  
BRANCH  15  17
HETATM   17  C   UNL     1     -10.615  13.456  64.575  1.00  0.00    -0.441 C  
BRANCH  17  18
HETATM   18  C   UNL     1     -10.450  14.833  65.179  1.00  0.00    -0.443 A  
HETATM   19  C   UNL     1      -9.858  14.967  66.440  1.00  0.00    -0.290 A  
HETATM   20  C   UNL     1      -9.905  16.194  67.115  1.00  0.00    -0.241 A  
HETATM   21  C   UNL     1     -10.442  17.330  66.494  1.00  0.00    -0.260 A  
HETATM   22  C   UNL     1     -10.972  15.965  64.551  1.00  0.00    -0.199 A  
HETATM   23  C   UNL     1     -10.948  17.207  65.195  1.00  0.00     0.044 A  
BRANCH  20  24
HETATM   24  S   UNL     1      -9.402  16.303  68.815  1.00  0.00    -0.244 S  
HETATM   25  O   UNL     1      -8.356  17.294  68.909  1.00  0.00    -0.254 OA 
HETATM   26  N   UNL     1     -10.720  16.979  69.610  1.00  0.00    -0.347 N  
HETATM   27  O   UNL     1      -9.297  14.966  69.351  1.00  0.00    -0.151 OA 
HETATM   28  H1  UNL     1     -10.431  17.042  70.586  1.00  0.00     0.000 HD 
HETATM   29  H2  UNL     1     -11.612  17.265  69.206  1.00  0.00     0.000 HD 
ENDBRANCH  20  24
BRANCH  21  30
HETATM   30  O   UNL     1     -10.438  18.494  67.210  1.00  0.00    -0.384 OA 
HETATM   31  C   UNL     1     -10.706  19.706  66.517  1.00  0.00    -0.434 C  
ENDBRANCH  21  30
ENDBRANCH  17  18
ENDBRANCH  15  17
ENDBRANCH  13  15
ENDBRANCH  12  13
ENDBRANCH  11  12
ENDBRANCH  10  11
ENDBRANCH   9  10
ENDBRANCH   3   4
ENDBRANCH   2   3
TORSDOF 11
ENDMDL
MODEL       30
REMARK 921   NORMALIZED FREE ENERGY PREDICTED BY IDOCK:   -5.93 KCAL/MOL
REMARK 922        TOTAL FREE ENERGY PREDICTED BY IDOCK:  -10.99 KCAL/MOL
REMARK 923 INTER-LIGAND FREE ENERGY PREDICTED BY IDOCK:   -9.55 KCAL/MOL
REMARK 924 INTRA-LIGAND FREE ENERGY PREDICTED BY IDOCK:   -1.44 KCAL/MOL
REMARK 927      BINDING AFFINITY PREDICTED BY RF-SCORE:    0.00 PKD
ROOT
HETATM    1  C   UNL     1     -11.742  11.363  70.273  1.00  0.00    -0.397 C  
HETATM    2  C   UNL     1     -12.226  10.332  71.281  1.00  0.00    -0.395 C  
ENDROOT
BRANCH   2   3
HETATM    3  O   UNL     1     -12.060   9.067  70.652  1.00  0.00    -0.186 OA 
BRANCH   3   4
HETATM    4  C   UNL     1     -11.424   8.047  71.291  1.00  0.00    -0.269 A  
HETATM    5  C   UNL     1     -10.908   8.156  72.590  1.00  0.00    -0.429 A  
HETATM    6  C   UNL     1     -10.239   7.085  73.190  1.00  0.00    -0.288 A  
HETATM    7  C   UNL     1     -10.079   5.888  72.496  1.00  0.00    -0.204 A  
HETATM    8  C   UNL     1     -10.598   5.763  71.209  1.00  0.00    -0.319 A  
HETATM    9  C   UNL     1     -11.277   6.828  70.596  1.00  0.00    -0.312 A  
BRANCH   9  10
HETATM   10  O   UNL     1     -11.725   6.506  69.336  1.00  0.00    -0.295 OA 
BRANCH  10  11
HETATM   11  C   UNL     1     -10.755   6.205  68.334  1.00  0.00    -0.293 C  
BRANCH  11  12
HETATM   12  C   UNL     1     -10.058   7.496  67.886  1.00  0.00    -0.182 C  
BRANCH  12  13
HETATM   13  N   UNL     1     -10.002   7.715  66.431  1.00  0.00    -0.457 NA 
HETATM   14  H   UNL     1     -10.836   7.330  65.988  1.00  0.00     0.000 HD 
BRANCH  13  15
HETATM   15  C   UNL     1      -9.805   9.114  66.005  1.00  0.00    -0.272 C  
HETATM   16  C   UNL     1      -8.702   9.107  64.935  1.00  0.00    -0.215 C  
BRANCH  15  17
HETATM   17  C   UNL     1      -9.449  10.078  67.173  1.00  0.00    -0.184 C  
BRANCH  17  18
HETATM   18  C   UNL     1      -9.849  11.504  66.865  1.00  0.00    -0.220 A  
HETATM   19  C   UNL     1     -11.071  11.757  66.233  1.00  0.00    -0.364 A  
HETATM   20  C   UNL     1     -11.356  13.034  65.732  1.00  0.00    -0.301 A  
HETATM   21  C   UNL     1     -10.476  14.101  65.956  1.00  0.00    -0.304 A  
HETATM   22  C   UNL     1      -8.977  12.567  67.104  1.00  0.00    -0.200 A  
HETATM   23  C   UNL     1      -9.298  13.859  66.672  1.00  0.00    -0.282 A  
BRANCH  20  24
HETATM   24  S   UNL     1     -12.775  13.296  64.696  1.00  0.00    -0.145 S  
HETATM   25  O   UNL     1     -13.627  14.267  65.341  1.00  0.00    -0.516 OA 
HETATM   26  N   UNL     1     -12.174  14.076  63.333  1.00  0.00    -1.112 N  
HETATM   27  O   UNL     1     -13.236  12.015  64.212  1.00  0.00    -0.710 OA 
HETATM   28  H1  UNL     1     -12.989  14.226  62.739  1.00  0.00     0.000 HD 
HETATM   29  H2  UNL     1     -11.208  14.340  63.143  1.00  0.00     0.000 HD 
ENDBRANCH  20  24
BRANCH  21  30
HETATM   30  O   UNL     1     -10.831  15.321  65.451  1.00  0.00    -0.341 OA 
HETATM   31  C   UNL     1     -10.210  16.477  65.998  1.00  0.00    -0.356 C  
ENDBRANCH  21  30
ENDBRANCH  17  18
ENDBRANCH  15  17
ENDBRANCH  13  15
ENDBRANCH  12  13
ENDBRANCH  11  12
ENDBRANCH  10  11
ENDBRANCH   9  10
ENDBRANCH   3   4
ENDBRANCH   2   3
TORSDOF 11
ENDMDL
MODEL       31
REMARK 921   NORMALIZED FREE ENERGY PREDICTED BY IDOCK:   -5.92 KCAL/MOL
REMARK 922        TOTAL FREE ENERGY PREDICTED BY IDOCK:  -10.96 KCAL/MOL
REMARK 923 INTER-LIGAND FREE ENERGY PREDICTED BY IDOCK:   -9.71 KCAL/MOL
REMARK 924 INTRA-LIGAND FREE ENERGY PREDICTED BY IDOCK:   -1.25 KCAL/MOL
REMARK 927      BINDING AFFINITY PREDICTED BY RF-SCORE:    0.00 PKD
ROOT
HETATM    1  C   UNL     1     -12.601  16.119  73.538  1.00  0.00    -0.678 C  
HETATM    2  C   UNL     1     -12.213  16.058  72.068  1.00  0.00    -0.506 C  
ENDROOT
BRANCH   2   3
HETATM    3  O   UNL     1     -13.189  15.234  71.443  1.00  0.00    -0.402 OA 
BRANCH   3   4
HETATM    4  C   UNL     1     -12.967  13.903  71.260  1.00  0.00    -0.341 A  
HETATM    5  C   UNL     1     -13.416  12.919  72.151  1.00  0.00    -0.619 A  
HETATM    6  C   UNL     1     -13.137  11.567  71.929  1.00  0.00    -0.492 A  
HETATM    7  C   UNL     1     -12.404  11.182  70.809  1.00  0.00    -0.504 A  
HETATM    8  C   UNL     1     -11.964  12.150  69.908  1.00  0.00    -0.380 A  
HETATM    9  C   UNL     1     -12.241  13.511  70.115  1.00  0.00    -0.330 A  
BRANCH   9  10
HETATM   10  O   UNL     1     -11.736  14.306  69.112  1.00  0.00    -0.280 OA 
BRANCH  10  11
HETATM   11  C   UNL     1     -11.855  13.847  67.767  1.00  0.00    -0.380 C  
BRANCH  11  12
HETATM   12  C   UNL     1     -10.605  14.247  66.971  1.00  0.00    -0.280 C  
BRANCH  12  13
HETATM   13  N   UNL     1      -9.386  13.482  67.280  1.00  0.00    -0.224 NA 
HETATM   14  H   UNL     1      -9.169  12.847  66.511  1.00  0.00     0.000 HD 
BRANCH  13  15
HETATM   15  C   UNL     1      -8.198  14.289  67.619  1.00  0.00    -0.185 C  
HETATM   16  C   UNL     1      -6.996  13.331  67.642  1.00  0.00    -0.164 C  
BRANCH  15  17
HETATM   17  C   UNL     1      -8.329  15.059  68.963  1.00  0.00    -0.194 C  
BRANCH  17  18
HETATM   18  C   UNL     1      -7.934  16.512  68.818  1.00  0.00    -0.236 A  
HETATM   19  C   UNL     1      -8.629  17.330  67.921  1.00  0.00    -0.223 A  
HETATM   20  C   UNL     1      -8.138  18.603  67.600  1.00  0.00    -0.247 A  
HETATM   21  C   UNL     1      -7.013  19.120  68.256  1.00  0.00    -0.261 A  
HETATM   22  C   UNL     1      -6.822  17.029  69.484  1.00  0.00    -0.111 A  
HETATM   23  C   UNL     1      -6.378  18.330  69.220  1.00  0.00    -0.259 A  
BRANCH  20  24
HETATM   24  S   UNL     1      -8.857  19.533  66.268  1.00  0.00    -0.324 S  
HETATM   25  O   UNL     1     -10.067  18.861  65.856  1.00  0.00    -0.506 OA 
HETATM   26  N   UNL     1      -9.372  20.968  66.976  1.00  0.00    -0.649 N  
HETATM   27  O   UNL     1      -7.805  19.928  65.361  1.00  0.00    -0.335 OA 
HETATM   28  H1  UNL     1      -9.785  21.502  66.212  1.00  0.00     0.000 HD 
HETATM   29  H2  UNL     1      -9.290  21.245  67.954  1.00  0.00     0.000 HD 
ENDBRANCH  20  24
BRANCH  21  30
HETATM   30  O   UNL     1      -6.604  20.375  67.901  1.00  0.00    -0.261 OA 
HETATM   31  C   UNL     1      -5.501  20.941  68.597  1.00  0.00    -0.340 C  
ENDBRANCH  21  30
ENDBRANCH  17  18
ENDBRANCH  15  17
ENDBRANCH  13  15
ENDBRANCH  12  13
ENDBRANCH  11  12
ENDBRANCH  10  11
ENDBRANCH   9  10
ENDBRANCH   3   4
ENDBRANCH   2   3
TORSDOF 11
ENDMDL
MODEL       32
REMARK 921   NORMALIZED FREE ENERGY PREDICTED BY IDOCK:   -5.91 KCAL/MOL
REMARK 922        TOTAL FREE ENERGY PREDICTED BY IDOCK:  -10.95 KCAL/MOL
REMARK 923 INTER-LIGAND FREE ENERGY PREDICTED BY IDOCK:  -10.14 KCAL/MOL
REMARK 924 INTRA-LIGAND FREE ENERGY PREDICTED BY IDOCK:   -0.81 KCAL/MOL
REMARK 927      BINDING AFFINITY PREDICTED BY RF-SCORE:    0.00 PKD
ROOT
HETATM    1  C   UNL     1     -14.212  14.759  71.711  1.00  0.00    -0.629 C  
HETATM    2  C   UNL     1     -13.650  13.416  72.151  1.00  0.00    -0.567 C  
ENDROOT
BRANCH   2   3
HETATM    3  O   UNL     1     -12.962  12.894  71.021  1.00  0.00    -0.223 OA 
BRANCH   3   4
HETATM    4  C   UNL     1     -12.606  11.581  70.963  1.00  0.00    -0.357 A  
HETATM    5  C   UNL     1     -13.092  10.613  71.854  1.00  0.00    -0.563 A  
HETATM    6  C   UNL     1     -12.673   9.283  71.768  1.00  0.00    -0.462 A  
HETATM    7  C   UNL     1     -11.761   8.902  70.786  1.00  0.00    -0.269 A  
HETATM    8  C   UNL     1     -11.281   9.852  69.886  1.00  0.00    -0.298 A  
HETATM    9  C   UNL     1     -11.697  11.191  69.958  1.00  0.00    -0.356 A  
BRANCH   9  10
HETATM   10  O   UNL     1     -11.124  11.969  68.978  1.00  0.00    -0.228 OA 
BRANCH  10  11
HETATM   11  C   UNL     1     -10.300  11.327  68.006  1.00  0.00    -0.183 C  
BRANCH  11  12
HETATM   12  C   UNL     1     -10.907  11.513  66.610  1.00  0.00    -0.287 C  
BRANCH  12  13
HETATM   13  N   UNL     1     -12.009  12.484  66.521  1.00  0.00    -0.576 NA 
HETATM   14  H   UNL     1     -12.301  12.766  67.457  1.00  0.00     0.000 HD 
BRANCH  13  15
HETATM   15  C   UNL     1     -11.741  13.677  65.696  1.00  0.00    -0.342 C  
HETATM   16  C   UNL     1     -12.107  13.314  64.248  1.00  0.00    -0.475 C  
BRANCH  15  17
HETATM   17  C   UNL     1     -10.274  14.187  65.793  1.00  0.00    -0.347 C  
BRANCH  17  18
HETATM   18  C   UNL     1     -10.188  15.513  66.516  1.00  0.00    -0.291 A  
HETATM   19  C   UNL     1      -9.251  16.466  66.102  1.00  0.00    -0.365 A  
HETATM   20  C   UNL     1      -8.995  17.594  66.892  1.00  0.00    -0.246 A  
HETATM   21  C   UNL     1      -9.749  17.844  68.046  1.00  0.00    -0.303 A  
HETATM   22  C   UNL     1     -10.952  15.766  67.657  1.00  0.00    -0.302 A  
HETATM   23  C   UNL     1     -10.749  16.932  68.403  1.00  0.00    -0.368 A  
BRANCH  20  24
HETATM   24  S   UNL     1      -7.625  18.661  66.515  1.00  0.00    -0.261 S  
HETATM   25  O   UNL     1      -7.069  18.244  65.249  1.00  0.00    -0.516 OA 
HETATM   26  N   UNL     1      -8.319  20.162  66.217  1.00  0.00    -0.513 N  
HETATM   27  O   UNL     1      -6.844  18.849  67.716  1.00  0.00    -0.205 OA 
HETATM   28  H1  UNL     1      -7.533  20.774  66.001  1.00  0.00     0.000 HD 
HETATM   29  H2  UNL     1      -9.309  20.407  66.246  1.00  0.00     0.000 HD 
ENDBRANCH  20  24
BRANCH  21  30
HETATM   30  O   UNL     1      -9.451  18.973  68.755  1.00  0.00    -0.366 OA 
HETATM   31  C   UNL     1     -10.346  20.074  68.666  1.00  0.00    -0.244 C  
ENDBRANCH  21  30
ENDBRANCH  17  18
ENDBRANCH  15  17
ENDBRANCH  13  15
ENDBRANCH  12  13
ENDBRANCH  11  12
ENDBRANCH  10  11
ENDBRANCH   9  10
ENDBRANCH   3   4
ENDBRANCH   2   3
TORSDOF 11
ENDMDL
MODEL       33
REMARK 921   NORMALIZED FREE ENERGY PREDICTED BY IDOCK:   -5.91 KCAL/MOL
REMARK 922        TOTAL FREE ENERGY PREDICTED BY IDOCK:  -10.95 KCAL/MOL
REMARK 923 INTER-LIGAND FREE ENERGY PREDICTED BY IDOCK:   -8.88 KCAL/MOL
REMARK 924 INTRA-LIGAND FREE ENERGY PREDICTED BY IDOCK:   -2.06 KCAL/MOL
REMARK 927      BINDING AFFINITY PREDICTED BY RF-SCORE:    0.00 PKD
ROOT
HETATM    1  C   UNL     1     -11.389  11.869  63.779  1.00  0.00    -0.532 C  
HETATM    2  C   UNL     1     -12.144  12.838  64.677  1.00  0.00    -0.423 C  
ENDROOT
BRANCH   2   3
HETATM    3  O   UNL     1     -12.146  12.246  65.971  1.00  0.00    -0.623 OA 
BRANCH   3   4
HETATM    4  C   UNL     1     -12.006  13.011  67.089  1.00  0.00    -0.329 A  
HETATM    5  C   UNL     1     -11.953  14.411  67.061  1.00  0.00    -0.424 A  
HETATM    6  C   UNL     1     -11.781  15.147  68.236  1.00  0.00    -0.336 A  
HETATM    7  C   UNL     1     -11.662  14.490  69.459  1.00  0.00    -0.361 A  
HETATM    8  C   UNL     1     -11.727  13.098  69.501  1.00  0.00    -0.382 A  
HETATM    9  C   UNL     1     -11.905  12.346  68.329  1.00  0.00    -0.309 A  
BRANCH   9  10
HETATM   10  O   UNL     1     -11.957  10.994  68.579  1.00  0.00    -0.535 OA 
BRANCH  10  11
HETATM   11  C   UNL     1     -10.917  10.416  69.367  1.00  0.00    -0.251 C  
BRANCH  11  12
HETATM   12  C   UNL     1      -9.655  10.244  68.512  1.00  0.00    -0.161 C  
BRANCH  12  13
HETATM   13  N   UNL     1      -8.659  11.321  68.628  1.00  0.00    -0.200 NA 
HETATM   14  H   UNL     1      -7.735  10.924  68.804  1.00  0.00     0.000 HD 
BRANCH  13  15
HETATM   15  C   UNL     1      -8.597  12.257  67.489  1.00  0.00    -0.174 C  
HETATM   16  C   UNL     1      -8.703  11.414  66.208  1.00  0.00    -0.173 C  
BRANCH  15  17
HETATM   17  C   UNL     1      -7.318  13.141  67.476  1.00  0.00    -0.153 C  
BRANCH  17  18
HETATM   18  C   UNL     1      -7.606  14.552  67.941  1.00  0.00    -0.153 A  
HETATM   19  C   UNL     1      -8.443  15.373  67.178  1.00  0.00    -0.241 A  
HETATM   20  C   UNL     1      -8.537  16.742  67.460  1.00  0.00    -0.194 A  
HETATM   21  C   UNL     1      -7.888  17.287  68.576  1.00  0.00    -0.266 A  
HETATM   22  C   UNL     1      -6.971  15.088  69.062  1.00  0.00    -0.127 A  
HETATM   23  C   UNL     1      -7.129  16.439  69.389  1.00  0.00    -0.190 A  
BRANCH  20  24
HETATM   24  S   UNL     1      -9.376  17.834  66.337  1.00  0.00    -0.213 S  
HETATM   25  O   UNL     1     -10.206  17.032  65.470  1.00  0.00    -0.589 OA 
HETATM   26  N   UNL     1     -10.451  18.696  67.300  1.00  0.00    -0.405 N  
HETATM   27  O   UNL     1      -8.434  18.822  65.865  1.00  0.00    -0.481 OA 
HETATM   28  H1  UNL     1     -10.933  19.322  66.656  1.00  0.00     0.000 HD 
HETATM   29  H2  UNL     1     -10.592  18.611  68.306  1.00  0.00     0.000 HD 
ENDBRANCH  20  24
BRANCH  21  30
HETATM   30  O   UNL     1      -8.041  18.628  68.795  1.00  0.00    -0.323 OA 
HETATM   31  C   UNL     1      -6.873  19.436  68.836  1.00  0.00    -0.335 C  
ENDBRANCH  21  30
ENDBRANCH  17  18
ENDBRANCH  15  17
ENDBRANCH  13  15
ENDBRANCH  12  13
ENDBRANCH  11  12
ENDBRANCH  10  11
ENDBRANCH   9  10
ENDBRANCH   3   4
ENDBRANCH   2   3
TORSDOF 11
ENDMDL
MODEL       34
REMARK 921   NORMALIZED FREE ENERGY PREDICTED BY IDOCK:   -5.86 KCAL/MOL
REMARK 922        TOTAL FREE ENERGY PREDICTED BY IDOCK:  -10.87 KCAL/MOL
REMARK 923 INTER-LIGAND FREE ENERGY PREDICTED BY IDOCK:   -9.76 KCAL/MOL
REMARK 924 INTRA-LIGAND FREE ENERGY PREDICTED BY IDOCK:   -1.11 KCAL/MOL
REMARK 927      BINDING AFFINITY PREDICTED BY RF-SCORE:    0.00 PKD
ROOT
HETATM    1  C   UNL     1     -13.154  10.718  71.761  1.00  0.00    -0.573 C  
HETATM    2  C   UNL     1     -13.414   9.220  71.802  1.00  0.00    -0.415 C  
ENDROOT
BRANCH   2   3
HETATM    3  O   UNL     1     -12.349   8.621  71.073  1.00  0.00    -0.257 OA 
BRANCH   3   4
HETATM    4  C   UNL     1     -11.596   7.628  71.623  1.00  0.00    -0.267 A  
HETATM    5  C   UNL     1     -11.112   7.670  72.938  1.00  0.00    -0.448 A  
HETATM    6  C   UNL     1     -10.320   6.636  73.444  1.00  0.00    -0.296 A  
HETATM    7  C   UNL     1     -10.003   5.543  72.640  1.00  0.00    -0.194 A  
HETATM    8  C   UNL     1     -10.490   5.484  71.335  1.00  0.00    -0.305 A  
HETATM    9  C   UNL     1     -11.291   6.513  70.815  1.00  0.00    -0.342 A  
BRANCH   9  10
HETATM   10  O   UNL     1     -11.682   6.266  69.519  1.00  0.00    -0.360 OA 
BRANCH  10  11
HETATM   11  C   UNL     1     -10.667   6.066  68.537  1.00  0.00    -0.286 C  
BRANCH  11  12
HETATM   12  C   UNL     1     -11.144   6.607  67.183  1.00  0.00    -0.357 C  
BRANCH  12  13
HETATM   13  N   UNL     1     -10.105   7.230  66.347  1.00  0.00    -0.465 NA 
HETATM   14  H   UNL     1     -10.214   6.934  65.377  1.00  0.00     0.000 HD 
BRANCH  13  15
HETATM   15  C   UNL     1     -10.026   8.701  66.421  1.00  0.00    -0.260 C  
HETATM   16  C   UNL     1      -8.551   9.083  66.225  1.00  0.00    -0.140 C  
BRANCH  15  17
HETATM   17  C   UNL     1     -10.588   9.290  67.747  1.00  0.00    -0.307 C  
BRANCH  17  18
HETATM   18  C   UNL     1     -11.074  10.711  67.567  1.00  0.00    -0.367 A  
HETATM   19  C   UNL     1     -11.265  11.218  66.277  1.00  0.00    -0.160 A  
HETATM   20  C   UNL     1     -11.487  12.588  66.083  1.00  0.00    -0.377 A  
HETATM   21  C   UNL     1     -11.637  13.449  67.178  1.00  0.00    -0.358 A  
HETATM   22  C   UNL     1     -11.238  11.563  68.661  1.00  0.00    -0.307 A  
HETATM   23  C   UNL     1     -11.538  12.916  68.467  1.00  0.00    -0.358 A  
BRANCH  20  24
HETATM   24  S   UNL     1     -11.458  13.278  64.446  1.00  0.00    -0.398 S  
HETATM   25  O   UNL     1     -12.748  13.873  64.189  1.00  0.00    -0.665 OA 
HETATM   26  N   UNL     1     -10.390  14.572  64.545  1.00  0.00    -0.494 N  
HETATM   27  O   UNL     1     -10.813  12.337  63.560  1.00  0.00    -0.425 OA 
HETATM   28  H1  UNL     1     -10.373  14.969  63.606  1.00  0.00     0.000 HD 
HETATM   29  H2  UNL     1      -9.872  14.891  65.364  1.00  0.00     0.000 HD 
ENDBRANCH  20  24
BRANCH  21  30
HETATM   30  O   UNL     1     -11.868  14.769  66.908  1.00  0.00    -0.354 OA 
HETATM   31  C   UNL     1     -11.460  15.730  67.872  1.00  0.00    -0.221 C  
ENDBRANCH  21  30
ENDBRANCH  17  18
ENDBRANCH  15  17
ENDBRANCH  13  15
ENDBRANCH  12  13
ENDBRANCH  11  12
ENDBRANCH  10  11
ENDBRANCH   9  10
ENDBRANCH   3   4
ENDBRANCH   2   3
TORSDOF 11
ENDMDL
MODEL       35
REMARK 921   NORMALIZED FREE ENERGY PREDICTED BY IDOCK:   -5.86 KCAL/MOL
REMARK 922        TOTAL FREE ENERGY PREDICTED BY IDOCK:  -10.86 KCAL/MOL
REMARK 923 INTER-LIGAND FREE ENERGY PREDICTED BY IDOCK:   -9.53 KCAL/MOL
REMARK 924 INTRA-LIGAND FREE ENERGY PREDICTED BY IDOCK:   -1.34 KCAL/MOL
REMARK 927      BINDING AFFINITY PREDICTED BY RF-SCORE:    0.00 PKD
ROOT
HETATM    1  C   UNL     1     -13.371  13.101  71.959  1.00  0.00    -0.587 C  
HETATM    2  C   UNL     1     -13.223  11.588  71.937  1.00  0.00    -0.374 C  
ENDROOT
BRANCH   2   3
HETATM    3  O   UNL     1     -12.377  11.296  70.831  1.00  0.00    -0.367 OA 
BRANCH   3   4
HETATM    4  C   UNL     1     -11.724  10.105  70.745  1.00  0.00    -0.357 A  
HETATM    5  C   UNL     1     -11.588   9.223  71.826  1.00  0.00    -0.458 A  
HETATM    6  C   UNL     1     -10.883   8.024  71.690  1.00  0.00    -0.288 A  
HETATM    7  C   UNL     1     -10.305   7.690  70.468  1.00  0.00    -0.211 A  
HETATM    8  C   UNL     1     -10.444   8.553  69.382  1.00  0.00    -0.223 A  
HETATM    9  C   UNL     1     -11.154   9.758  69.502  1.00  0.00    -0.192 A  
BRANCH   9  10
HETATM   10  O   UNL     1     -11.190  10.463  68.321  1.00  0.00    -0.282 OA 
BRANCH  10  11
HETATM   11  C   UNL     1     -10.723   9.816  67.138  1.00  0.00    -0.202 C  
BRANCH  11  12
HETATM   12  C   UNL     1      -9.911  10.807  66.294  1.00  0.00    -0.215 C  
BRANCH  12  13
HETATM   13  N   UNL     1     -10.421  11.050  64.935  1.00  0.00    -0.314 NA 
HETATM   14  H   UNL     1     -10.793  10.185  64.542  1.00  0.00     0.000 HD 
BRANCH  13  15
HETATM   15  C   UNL     1     -11.420  12.129  64.814  1.00  0.00    -0.322 C  
HETATM   16  C   UNL     1     -12.300  11.793  63.599  1.00  0.00    -0.488 C  
BRANCH  15  17
HETATM   17  C   UNL     1     -10.795  13.547  64.680  1.00  0.00    -0.416 C  
BRANCH  17  18
HETATM   18  C   UNL     1     -11.075  14.401  65.896  1.00  0.00    -0.319 A  
HETATM   19  C   UNL     1     -10.645  15.732  65.919  1.00  0.00    -0.350 A  
HETATM   20  C   UNL     1     -10.686  16.467  67.111  1.00  0.00    -0.233 A  
HETATM   21  C   UNL     1     -11.261  15.921  68.267  1.00  0.00    -0.354 A  
HETATM   22  C   UNL     1     -11.663  13.859  67.041  1.00  0.00    -0.426 A  
HETATM   23  C   UNL     1     -11.774  14.621  68.209  1.00  0.00    -0.359 A  
BRANCH  20  24
HETATM   24  S   UNL     1      -9.895  18.055  67.215  1.00  0.00    -0.320 S  
HETATM   25  O   UNL     1     -10.900  19.033  67.559  1.00  0.00    -0.463 OA 
HETATM   26  N   UNL     1      -8.901  17.952  68.566  1.00  0.00    -0.294 N  
HETATM   27  O   UNL     1      -8.987  18.191  66.100  1.00  0.00    -0.468 OA 
HETATM   28  H1  UNL     1      -8.448  18.864  68.626  1.00  0.00     0.000 HD 
HETATM   29  H2  UNL     1      -8.778  17.155  69.190  1.00  0.00     0.000 HD 
ENDBRANCH  20  24
BRANCH  21  30
HETATM   30  O   UNL     1     -11.279  16.705  69.386  1.00  0.00    -0.243 OA 
HETATM   31  C   UNL     1     -11.431  16.066  70.647  1.00  0.00    -0.402 C  
ENDBRANCH  21  30
ENDBRANCH  17  18
ENDBRANCH  15  17
ENDBRANCH  13  15
ENDBRANCH  12  13
ENDBRANCH  11  12
ENDBRANCH  10  11
ENDBRANCH   9  10
ENDBRANCH   3   4
ENDBRANCH   2   3
TORSDOF 11
ENDMDL
MODEL       36
REMARK 921   NORMALIZED FREE ENERGY PREDICTED BY IDOCK:   -5.80 KCAL/MOL
REMARK 922        TOTAL FREE ENERGY PREDICTED BY IDOCK:  -10.78 KCAL/MOL
REMARK 923 INTER-LIGAND FREE ENERGY PREDICTED BY IDOCK:   -9.42 KCAL/MOL
REMARK 924 INTRA-LIGAND FREE ENERGY PREDICTED BY IDOCK:   -1.36 KCAL/MOL
REMARK 927      BINDING AFFINITY PREDICTED BY RF-SCORE:    0.00 PKD
ROOT
HETATM    1  C   UNL     1     -11.180  15.507  64.646  1.00  0.00    -0.381 C  
HETATM    2  C   UNL     1     -12.386  14.650  64.998  1.00  0.00    -0.286 C  
ENDROOT
BRANCH   2   3
HETATM    3  O   UNL     1     -12.304  13.502  64.161  1.00  0.00    -0.574 OA 
BRANCH   3   4
HETATM    4  C   UNL     1     -11.417  12.505  64.428  1.00  0.00    -0.349 A  
HETATM    5  C   UNL     1     -10.478  12.042  63.495  1.00  0.00    -0.505 A  
HETATM    6  C   UNL     1      -9.608  10.995  63.812  1.00  0.00    -0.321 A  
HETATM    7  C   UNL     1      -9.665  10.398  65.069  1.00  0.00    -0.362 A  
HETATM    8  C   UNL     1     -10.585  10.858  66.009  1.00  0.00    -0.254 A  
HETATM    9  C   UNL     1     -11.462  11.912  65.707  1.00  0.00    -0.265 A  
BRANCH   9  10
HETATM   10  O   UNL     1     -12.282  12.229  66.765  1.00  0.00    -0.558 OA 
BRANCH  10  11
HETATM   11  C   UNL     1     -11.721  12.219  68.077  1.00  0.00    -0.356 C  
BRANCH  11  12
HETATM   12  C   UNL     1     -11.343  13.648  68.488  1.00  0.00    -0.290 C  
BRANCH  12  13
HETATM   13  N   UNL     1      -9.986  13.812  69.034  1.00  0.00    -0.427 NA 
HETATM   14  H   UNL     1      -9.551  12.899  69.170  1.00  0.00     0.000 HD 
BRANCH  13  15
HETATM   15  C   UNL     1      -9.089  14.687  68.255  1.00  0.00    -0.189 C  
HETATM   16  C   UNL     1      -8.676  13.905  66.998  1.00  0.00    -0.215 C  
BRANCH  15  17
HETATM   17  C   UNL     1      -7.843  15.171  69.050  1.00  0.00    -0.181 C  
BRANCH  17  18
HETATM   18  C   UNL     1      -7.656  16.668  68.945  1.00  0.00    -0.240 A  
HETATM   19  C   UNL     1      -8.539  17.421  68.163  1.00  0.00    -0.248 A  
HETATM   20  C   UNL     1      -8.252  18.759  67.864  1.00  0.00    -0.269 A  
HETATM   21  C   UNL     1      -7.141  19.396  68.434  1.00  0.00    -0.304 A  
HETATM   22  C   UNL     1      -6.557  17.302  69.526  1.00  0.00    -0.178 A  
HETATM   23  C   UNL     1      -6.315  18.660  69.290  1.00  0.00    -0.282 A  
BRANCH  20  24
HETATM   24  S   UNL     1      -9.218  19.637  66.659  1.00  0.00    -0.385 S  
HETATM   25  O   UNL     1      -9.847  20.757  67.319  1.00  0.00    -0.474 OA 
HETATM   26  N   UNL     1      -8.089  20.318  65.617  1.00  0.00    -0.477 N  
HETATM   27  O   UNL     1      -9.931  18.675  65.850  1.00  0.00    -0.517 OA 
HETATM   28  H1  UNL     1      -8.644  20.822  64.925  1.00  0.00     0.000 HD 
HETATM   29  H2  UNL     1      -7.073  20.245  65.665  1.00  0.00     0.000 HD 
ENDBRANCH  20  24
BRANCH  21  30
HETATM   30  O   UNL     1      -6.937  20.707  68.108  1.00  0.00    -0.269 OA 
HETATM   31  C   UNL     1      -5.619  21.228  68.224  1.00  0.00    -0.262 C  
ENDBRANCH  21  30
ENDBRANCH  17  18
ENDBRANCH  15  17
ENDBRANCH  13  15
ENDBRANCH  12  13
ENDBRANCH  11  12
ENDBRANCH  10  11
ENDBRANCH   9  10
ENDBRANCH   3   4
ENDBRANCH   2   3
TORSDOF 11
ENDMDL
MODEL       37
REMARK 921   NORMALIZED FREE ENERGY PREDICTED BY IDOCK:   -5.79 KCAL/MOL
REMARK 922        TOTAL FREE ENERGY PREDICTED BY IDOCK:  -10.75 KCAL/MOL
REMARK 923 INTER-LIGAND FREE ENERGY PREDICTED BY IDOCK:   -9.36 KCAL/MOL
REMARK 924 INTRA-LIGAND FREE ENERGY PREDICTED BY IDOCK:   -1.39 KCAL/MOL
REMARK 927      BINDING AFFINITY PREDICTED BY RF-SCORE:    0.00 PKD
ROOT
HETATM    1  C   UNL     1     -12.104  11.585  70.454  1.00  0.00    -0.471 C  
HETATM    2  C   UNL     1     -12.039  10.290  71.250  1.00  0.00    -0.382 C  
ENDROOT
BRANCH   2   3
HETATM    3  O   UNL     1     -10.834   9.648  70.848  1.00  0.00    -0.295 OA 
BRANCH   3   4
HETATM    4  C   UNL     1     -10.864   8.499  70.118  1.00  0.00    -0.233 A  
HETATM    5  C   UNL     1     -11.209   7.253  70.660  1.00  0.00    -0.300 A  
HETATM    6  C   UNL     1     -11.196   6.099  69.872  1.00  0.00    -0.484 A  
HETATM    7  C   UNL     1     -10.839   6.178  68.527  1.00  0.00    -0.389 A  
HETATM    8  C   UNL     1     -10.507   7.413  67.974  1.00  0.00    -0.253 A  
HETATM    9  C   UNL     1     -10.520   8.581  68.753  1.00  0.00    -0.184 A  
BRANCH   9  10
HETATM   10  O   UNL     1     -10.177   9.698  68.025  1.00  0.00    -0.173 OA 
BRANCH  10  11
HETATM   11  C   UNL     1     -10.096   9.576  66.606  1.00  0.00    -0.252 C  
BRANCH  11  12
HETATM   12  C   UNL     1      -8.768  10.165  66.111  1.00  0.00    -0.142 C  
BRANCH  12  13
HETATM   13  N   UNL     1      -8.884  11.277  65.155  1.00  0.00    -0.383 NA 
HETATM   14  H   UNL     1      -8.011  11.386  64.639  1.00  0.00     0.000 HD 
BRANCH  13  15
HETATM   15  C   UNL     1     -10.019  11.193  64.216  1.00  0.00    -0.306 C  
HETATM   16  C   UNL     1      -9.560  10.327  63.032  1.00  0.00    -0.297 C  
BRANCH  15  17
HETATM   17  C   UNL     1     -10.533  12.579  63.732  1.00  0.00    -0.451 C  
BRANCH  17  18
HETATM   18  C   UNL     1     -10.978  13.447  64.888  1.00  0.00    -0.353 A  
HETATM   19  C   UNL     1     -10.405  14.712  65.062  1.00  0.00    -0.432 A  
HETATM   20  C   UNL     1     -10.627  15.431  66.244  1.00  0.00    -0.308 A  
HETATM   21  C   UNL     1     -11.514  14.949  67.216  1.00  0.00    -0.340 A  
HETATM   22  C   UNL     1     -11.873  12.971  65.847  1.00  0.00    -0.468 A  
HETATM   23  C   UNL     1     -12.155  13.727  66.991  1.00  0.00    -0.436 A  
BRANCH  20  24
HETATM   24  S   UNL     1      -9.693  16.903  66.588  1.00  0.00    -0.285 S  
HETATM   25  O   UNL     1     -10.623  17.996  66.742  1.00  0.00    -0.344 OA 
HETATM   26  N   UNL     1      -9.050  16.655  68.121  1.00  0.00    -0.209 N  
HETATM   27  O   UNL     1      -8.546  16.937  65.711  1.00  0.00    -0.505 OA 
HETATM   28  H1  UNL     1      -8.515  17.499  68.319  1.00  0.00     0.000 HD 
HETATM   29  H2  UNL     1      -9.170  15.840  68.722  1.00  0.00     0.000 HD 
ENDBRANCH  20  24
BRANCH  21  30
HETATM   30  O   UNL     1     -11.691  15.715  68.335  1.00  0.00    -0.367 OA 
HETATM   31  C   UNL     1     -11.975  15.053  69.560  1.00  0.00    -0.313 C  
ENDBRANCH  21  30
ENDBRANCH  17  18
ENDBRANCH  15  17
ENDBRANCH  13  15
ENDBRANCH  12  13
ENDBRANCH  11  12
ENDBRANCH  10  11
ENDBRANCH   9  10
ENDBRANCH   3   4
ENDBRANCH   2   3
TORSDOF 11
ENDMDL
MODEL       38
REMARK 921   NORMALIZED FREE ENERGY PREDICTED BY IDOCK:   -5.78 KCAL/MOL
REMARK 922        TOTAL FREE ENERGY PREDICTED BY IDOCK:  -10.74 KCAL/MOL
REMARK 923 INTER-LIGAND FREE ENERGY PREDICTED BY IDOCK:   -9.86 KCAL/MOL
REMARK 924 INTRA-LIGAND FREE ENERGY PREDICTED BY IDOCK:   -0.88 KCAL/MOL
REMARK 927      BINDING AFFINITY PREDICTED BY RF-SCORE:    0.00 PKD
ROOT
HETATM    1  C   UNL     1     -12.433  15.642  74.301  1.00  0.00    -0.804 C  
HETATM    2  C   UNL     1     -12.128  16.141  72.897  1.00  0.00    -0.541 C  
ENDROOT
BRANCH   2   3
HETATM    3  O   UNL     1     -13.077  15.509  72.046  1.00  0.00    -0.389 OA 
BRANCH   3   4
HETATM    4  C   UNL     1     -12.930  14.206  71.682  1.00  0.00    -0.347 A  
HETATM    5  C   UNL     1     -13.604  13.150  72.312  1.00  0.00    -0.677 A  
HETATM    6  C   UNL     1     -13.396  11.827  71.916  1.00  0.00    -0.401 A  
HETATM    7  C   UNL     1     -12.509  11.541  70.880  1.00  0.00    -0.464 A  
HETATM    8  C   UNL     1     -11.842  12.582  70.237  1.00  0.00    -0.305 A  
HETATM    9  C   UNL     1     -12.046  13.917  70.621  1.00  0.00    -0.347 A  
BRANCH   9  10
HETATM   10  O   UNL     1     -11.310  14.797  69.860  1.00  0.00    -0.255 OA 
BRANCH  10  11
HETATM   11  C   UNL     1     -11.934  15.382  68.718  1.00  0.00    -0.253 C  
BRANCH  11  12
HETATM   12  C   UNL     1     -11.128  15.043  67.458  1.00  0.00    -0.317 C  
BRANCH  12  13
HETATM   13  N   UNL     1     -11.885  14.391  66.377  1.00  0.00    -0.395 NA 
HETATM   14  H   UNL     1     -12.806  14.820  66.288  1.00  0.00     0.000 HD 
BRANCH  13  15
HETATM   15  C   UNL     1     -11.215  14.355  65.063  1.00  0.00    -0.375 C  
HETATM   16  C   UNL     1     -11.340  15.761  64.456  1.00  0.00    -0.324 C  
BRANCH  15  17
HETATM   17  C   UNL     1     -11.786  13.274  64.101  1.00  0.00    -0.497 C  
BRANCH  17  18
HETATM   18  C   UNL     1     -10.980  11.995  64.152  1.00  0.00    -0.418 A  
HETATM   19  C   UNL     1     -11.063  11.171  65.279  1.00  0.00    -0.076 A  
HETATM   20  C   UNL     1     -10.160  10.114  65.449  1.00  0.00    -0.272 A  
HETATM   21  C   UNL     1      -9.237   9.795  64.444  1.00  0.00    -0.245 A  
HETATM   22  C   UNL     1     -10.073  11.672  63.142  1.00  0.00    -0.409 A  
HETATM   23  C   UNL     1      -9.223  10.568  63.278  1.00  0.00    -0.299 A  
BRANCH  20  24
HETATM   24  S   UNL     1     -10.083   9.238  66.993  1.00  0.00    -0.265 S  
HETATM   25  O   UNL     1      -8.870   9.632  67.670  1.00  0.00    -0.125 OA 
HETATM   26  N   UNL     1     -11.330   9.884  67.916  1.00  0.00    -0.487 N  
HETATM   27  O   UNL     1     -10.468   7.865  66.764  1.00  0.00    -0.327 OA 
HETATM   28  H1  UNL     1     -11.286   9.382  68.802  1.00  0.00     0.000 HD 
HETATM   29  H2  UNL     1     -11.987  10.617  67.649  1.00  0.00     0.000 HD 
ENDBRANCH  20  24
BRANCH  21  30
HETATM   30  O   UNL     1      -8.400   8.739  64.675  1.00  0.00    -0.158 OA 
HETATM   31  C   UNL     1      -6.999   8.972  64.618  1.00  0.00    -0.085 C  
ENDBRANCH  21  30
ENDBRANCH  17  18
ENDBRANCH  15  17
ENDBRANCH  13  15
ENDBRANCH  12  13
ENDBRANCH  11  12
ENDBRANCH  10  11
ENDBRANCH   9  10
ENDBRANCH   3   4
ENDBRANCH   2   3
TORSDOF 11
ENDMDL
MODEL       39
REMARK 921   NORMALIZED FREE ENERGY PREDICTED BY IDOCK:   -5.78 KCAL/MOL
REMARK 922        TOTAL FREE ENERGY PREDICTED BY IDOCK:  -10.74 KCAL/MOL
REMARK 923 INTER-LIGAND FREE ENERGY PREDICTED BY IDOCK:  -10.10 KCAL/MOL
REMARK 924 INTRA-LIGAND FREE ENERGY PREDICTED BY IDOCK:   -0.64 KCAL/MOL
REMARK 927      BINDING AFFINITY PREDICTED BY RF-SCORE:    0.00 PKD
ROOT
HETATM    1  C   UNL     1      -9.591   6.089  74.533  1.00  0.00    -0.232 C  
HETATM    2  C   UNL     1      -9.864   4.863  73.675  1.00  0.00    -0.148 C  
ENDROOT
BRANCH   2   3
HETATM    3  O   UNL     1     -10.929   5.228  72.805  1.00  0.00    -0.240 OA 
BRANCH   3   4
HETATM    4  C   UNL     1     -10.736   5.311  71.460  1.00  0.00    -0.151 A  
HETATM    5  C   UNL     1      -9.941   4.408  70.740  1.00  0.00    -0.247 A  
HETATM    6  C   UNL     1      -9.753   4.555  69.364  1.00  0.00    -0.272 A  
HETATM    7  C   UNL     1     -10.362   5.610  68.686  1.00  0.00    -0.277 A  
HETATM    8  C   UNL     1     -11.165   6.507  69.388  1.00  0.00    -0.418 A  
HETATM    9  C   UNL     1     -11.366   6.368  70.771  1.00  0.00    -0.350 A  
BRANCH   9  10
HETATM   10  O   UNL     1     -12.198   7.340  71.278  1.00  0.00    -0.321 OA 
BRANCH  10  11
HETATM   11  C   UNL     1     -11.625   8.349  72.109  1.00  0.00    -0.374 C  
BRANCH  11  12
HETATM   12  C   UNL     1     -11.283   9.582  71.263  1.00  0.00    -0.382 C  
BRANCH  12  13
HETATM   13  N   UNL     1     -12.353  10.057  70.372  1.00  0.00    -0.474 NA 
HETATM   14  H   UNL     1     -13.138  10.403  70.923  1.00  0.00     0.000 HD 
BRANCH  13  15
HETATM   15  C   UNL     1     -11.950  11.069  69.377  1.00  0.00    -0.337 C  
HETATM   16  C   UNL     1     -10.571  10.650  68.842  1.00  0.00    -0.241 C  
BRANCH  15  17
HETATM   17  C   UNL     1     -11.918  12.519  69.939  1.00  0.00    -0.371 C  
BRANCH  17  18
HETATM   18  C   UNL     1     -11.686  13.539  68.846  1.00  0.00    -0.379 A  
HETATM   19  C   UNL     1     -12.031  13.229  67.527  1.00  0.00    -0.371 A  
HETATM   20  C   UNL     1     -11.615  14.056  66.475  1.00  0.00    -0.374 A  
HETATM   21  C   UNL     1     -10.949  15.261  66.735  1.00  0.00    -0.306 A  
HETATM   22  C   UNL     1     -11.036  14.746  69.110  1.00  0.00    -0.277 A  
HETATM   23  C   UNL     1     -10.690  15.609  68.065  1.00  0.00    -0.287 A  
BRANCH  20  24
HETATM   24  S   UNL     1     -11.813  13.532  64.789  1.00  0.00    -0.403 S  
HETATM   25  O   UNL     1     -12.930  12.618  64.732  1.00  0.00    -0.816 OA 
HETATM   26  N   UNL     1     -12.327  14.906  63.969  1.00  0.00    -1.021 N  
HETATM   27  O   UNL     1     -10.508  13.244  64.240  1.00  0.00    -0.424 OA 
HETATM   28  H1  UNL     1     -12.440  14.605  63.002  1.00  0.00     0.000 HD 
HETATM   29  H2  UNL     1     -12.490  15.836  64.354  1.00  0.00     0.000 HD 
ENDBRANCH  20  24
BRANCH  21  30
HETATM   30  O   UNL     1     -10.590  16.022  65.658  1.00  0.00    -0.357 OA 
HETATM   31  C   UNL     1     -10.447  17.424  65.847  1.00  0.00    -0.252 C  
ENDBRANCH  21  30
ENDBRANCH  17  18
ENDBRANCH  15  17
ENDBRANCH  13  15
ENDBRANCH  12  13
ENDBRANCH  11  12
ENDBRANCH  10  11
ENDBRANCH   9  10
ENDBRANCH   3   4
ENDBRANCH   2   3
TORSDOF 11
ENDMDL
MODEL       40
REMARK 921   NORMALIZED FREE ENERGY PREDICTED BY IDOCK:   -5.77 KCAL/MOL
REMARK 922        TOTAL FREE ENERGY PREDICTED BY IDOCK:  -10.72 KCAL/MOL
REMARK 923 INTER-LIGAND FREE ENERGY PREDICTED BY IDOCK:   -9.20 KCAL/MOL
REMARK 924 INTRA-LIGAND FREE ENERGY PREDICTED BY IDOCK:   -1.52 KCAL/MOL
REMARK 927      BINDING AFFINITY PREDICTED BY RF-SCORE:    0.00 PKD
ROOT
HETATM    1  C   UNL     1     -10.404  19.622  65.896  1.00  0.00    -0.584 C  
HETATM    2  C   UNL     1      -9.245  18.771  66.390  1.00  0.00    -0.307 C  
ENDROOT
BRANCH   2   3
HETATM    3  O   UNL     1      -9.596  17.425  66.089  1.00  0.00    -0.402 OA 
BRANCH   3   4
HETATM    4  C   UNL     1     -10.298  16.670  66.978  1.00  0.00    -0.301 A  
HETATM    5  C   UNL     1     -10.460  17.022  68.326  1.00  0.00    -0.363 A  
HETATM    6  C   UNL     1     -11.168  16.195  69.203  1.00  0.00    -0.336 A  
HETATM    7  C   UNL     1     -11.725  15.005  68.742  1.00  0.00    -0.360 A  
HETATM    8  C   UNL     1     -11.581  14.650  67.402  1.00  0.00    -0.408 A  
HETATM    9  C   UNL     1     -10.878  15.473  66.508  1.00  0.00    -0.284 A  
BRANCH   9  10
HETATM   10  O   UNL     1     -10.858  14.960  65.231  1.00  0.00    -0.334 OA 
BRANCH  10  11
HETATM   11  C   UNL     1     -11.469  13.690  65.007  1.00  0.00    -0.327 C  
BRANCH  11  12
HETATM   12  C   UNL     1     -10.567  12.834  64.108  1.00  0.00    -0.415 C  
BRANCH  12  13
HETATM   13  N   UNL     1      -9.519  12.071  64.803  1.00  0.00    -0.437 NA 
HETATM   14  H   UNL     1      -8.610  12.511  64.655  1.00  0.00     0.000 HD 
BRANCH  13  15
HETATM   15  C   UNL     1      -9.743  11.849  66.245  1.00  0.00    -0.229 C  
HETATM   16  C   UNL     1      -8.385  12.024  66.943  1.00  0.00    -0.159 C  
BRANCH  15  17
HETATM   17  C   UNL     1     -10.370  10.464  66.573  1.00  0.00    -0.287 C  
BRANCH  17  18
HETATM   18  C   UNL     1     -10.700  10.333  68.044  1.00  0.00    -0.299 A  
HETATM   19  C   UNL     1     -10.315   9.180  68.737  1.00  0.00    -0.235 A  
HETATM   20  C   UNL     1     -10.808   8.934  70.025  1.00  0.00    -0.227 A  
HETATM   21  C   UNL     1     -11.598   9.886  70.682  1.00  0.00    -0.335 A  
HETATM   22  C   UNL     1     -11.475  11.291  68.700  1.00  0.00    -0.362 A  
HETATM   23  C   UNL     1     -11.901  11.078  70.015  1.00  0.00    -0.435 A  
BRANCH  20  24
HETATM   24  S   UNL     1     -10.545   7.356  70.800  1.00  0.00    -0.227 S  
HETATM   25  O   UNL     1      -9.381   6.751  70.198  1.00  0.00    -0.158 OA 
HETATM   26  N   UNL     1     -10.085   7.723  72.375  1.00  0.00    -0.208 N  
HETATM   27  O   UNL     1     -11.820   6.691  70.936  1.00  0.00    -0.359 OA 
HETATM   28  H1  UNL     1      -9.934   6.818  72.819  1.00  0.00     0.000 HD 
HETATM   29  H2  UNL     1      -9.979   8.646  72.794  1.00  0.00     0.000 HD 
ENDBRANCH  20  24
BRANCH  21  30
HETATM   30  O   UNL     1     -12.027   9.581  71.943  1.00  0.00    -0.370 OA 
HETATM   31  C   UNL     1     -13.427   9.581  72.192  1.00  0.00    -0.456 C  
ENDBRANCH  21  30
ENDBRANCH  17  18
ENDBRANCH  15  17
ENDBRANCH  13  15
ENDBRANCH  12  13
ENDBRANCH  11  12
ENDBRANCH  10  11
ENDBRANCH   9  10
ENDBRANCH   3   4
ENDBRANCH   2   3
TORSDOF 11
ENDMDL
MODEL       41
REMARK 921   NORMALIZED FREE ENERGY PREDICTED BY IDOCK:   -5.75 KCAL/MOL
REMARK 922        TOTAL FREE ENERGY PREDICTED BY IDOCK:  -10.69 KCAL/MOL
REMARK 923 INTER-LIGAND FREE ENERGY PREDICTED BY IDOCK:   -9.04 KCAL/MOL
REMARK 924 INTRA-LIGAND FREE ENERGY PREDICTED BY IDOCK:   -1.65 KCAL/MOL
REMARK 927      BINDING AFFINITY PREDICTED BY RF-SCORE:    0.00 PKD
ROOT
HETATM    1  C   UNL     1     -11.859  14.216  66.997  1.00  0.00    -0.458 C  
HETATM    2  C   UNL     1     -11.029  14.403  68.258  1.00  0.00    -0.247 C  
ENDROOT
BRANCH   2   3
HETATM    3  O   UNL     1     -11.535  13.463  69.199  1.00  0.00    -0.266 OA 
BRANCH   3   4
HETATM    4  C   UNL     1     -12.285  13.870  70.260  1.00  0.00    -0.358 A  
HETATM    5  C   UNL     1     -12.543  15.218  70.547  1.00  0.00    -0.450 A  
HETATM    6  C   UNL     1     -13.297  15.582  71.665  1.00  0.00    -0.585 A  
HETATM    7  C   UNL     1     -13.806  14.600  72.513  1.00  0.00    -0.561 A  
HETATM    8  C   UNL     1     -13.567  13.256  72.231  1.00  0.00    -0.703 A  
HETATM    9  C   UNL     1     -12.815  12.875  71.108  1.00  0.00    -0.238 A  
BRANCH   9  10
HETATM   10  O   UNL     1     -12.702  11.509  70.994  1.00  0.00    -0.371 OA 
BRANCH  10  11
HETATM   11  C   UNL     1     -13.263  10.700  72.027  1.00  0.00    -0.368 C  
BRANCH  11  12
HETATM   12  C   UNL     1     -13.406   9.255  71.531  1.00  0.00    -0.369 C  
BRANCH  12  13
HETATM   13  N   UNL     1     -12.772   8.229  72.375  1.00  0.00    -0.542 NA 
HETATM   14  H   UNL     1     -13.424   7.463  72.542  1.00  0.00     0.000 HD 
BRANCH  13  15
HETATM   15  C   UNL     1     -11.488   7.700  71.876  1.00  0.00    -0.272 C  
HETATM   16  C   UNL     1     -11.353   6.267  72.415  1.00  0.00    -0.333 C  
BRANCH  15  17
HETATM   17  C   UNL     1     -10.259   8.567  72.271  1.00  0.00    -0.395 C  
BRANCH  17  18
HETATM   18  C   UNL     1      -9.477   9.017  71.057  1.00  0.00    -0.342 A  
HETATM   19  C   UNL     1     -10.155   9.559  69.960  1.00  0.00    -0.279 A  
HETATM   20  C   UNL     1      -9.485   9.764  68.747  1.00  0.00    -0.154 A  
HETATM   21  C   UNL     1      -8.105   9.538  68.646  1.00  0.00    -0.097 A  
HETATM   22  C   UNL     1      -8.100   8.806  70.966  1.00  0.00    -0.186 A  
HETATM   23  C   UNL     1      -7.417   9.085  69.776  1.00  0.00    -0.062 A  
BRANCH  20  24
HETATM   24  S   UNL     1     -10.393  10.191  67.281  1.00  0.00    -0.252 S  
HETATM   25  O   UNL     1     -11.675  10.718  67.686  1.00  0.00    -0.538 OA 
HETATM   26  N   UNL     1      -9.566  11.501  66.629  1.00  0.00    -0.193 N  
HETATM   27  O   UNL     1     -10.227   9.133  66.311  1.00  0.00    -0.276 OA 
HETATM   28  H1  UNL     1     -10.087  11.746  65.788  1.00  0.00     0.000 HD 
HETATM   29  H2  UNL     1      -8.727  11.952  66.995  1.00  0.00     0.000 HD 
ENDBRANCH  20  24
BRANCH  21  30
HETATM   30  O   UNL     1      -7.520   9.777  67.434  1.00  0.00    -0.090 OA 
HETATM   31  C   UNL     1      -6.166  10.209  67.419  1.00  0.00    -0.058 C  
ENDBRANCH  21  30
ENDBRANCH  17  18
ENDBRANCH  15  17
ENDBRANCH  13  15
ENDBRANCH  12  13
ENDBRANCH  11  12
ENDBRANCH  10  11
ENDBRANCH   9  10
ENDBRANCH   3   4
ENDBRANCH   2   3
TORSDOF 11
ENDMDL
MODEL       42
REMARK 921   NORMALIZED FREE ENERGY PREDICTED BY IDOCK:   -5.74 KCAL/MOL
REMARK 922        TOTAL FREE ENERGY PREDICTED BY IDOCK:  -10.68 KCAL/MOL
REMARK 923 INTER-LIGAND FREE ENERGY PREDICTED BY IDOCK:   -8.84 KCAL/MOL
REMARK 924 INTRA-LIGAND FREE ENERGY PREDICTED BY IDOCK:   -1.84 KCAL/MOL
REMARK 927      BINDING AFFINITY PREDICTED BY RF-SCORE:    0.00 PKD
ROOT
HETATM    1  C   UNL     1      -8.430  11.756  67.120  1.00  0.00    -0.170 C  
HETATM    2  C   UNL     1      -8.100  10.278  67.259  1.00  0.00    -0.120 C  
ENDROOT
BRANCH   2   3
HETATM    3  O   UNL     1      -9.046   9.755  68.184  1.00  0.00    -0.126 OA 
BRANCH   3   4
HETATM    4  C   UNL     1      -9.604   8.527  67.995  1.00  0.00    -0.149 A  
HETATM    5  C   UNL     1     -10.080   8.082  66.754  1.00  0.00    -0.357 A  
HETATM    6  C   UNL     1     -10.670   6.822  66.621  1.00  0.00    -0.187 A  
HETATM    7  C   UNL     1     -10.788   5.988  67.730  1.00  0.00    -0.380 A  
HETATM    8  C   UNL     1     -10.307   6.414  68.967  1.00  0.00    -0.238 A  
HETATM    9  C   UNL     1      -9.708   7.675  69.114  1.00  0.00    -0.164 A  
BRANCH   9  10
HETATM   10  O   UNL     1      -9.286   7.905  70.404  1.00  0.00    -0.157 OA 
BRANCH  10  11
HETATM   11  C   UNL     1     -10.236   7.760  71.458  1.00  0.00    -0.182 C  
BRANCH  11  12
HETATM   12  C   UNL     1     -10.931   9.103  71.716  1.00  0.00    -0.359 C  
BRANCH  12  13
HETATM   13  N   UNL     1     -10.584  10.186  70.783  1.00  0.00    -0.375 NA 
HETATM   14  H   UNL     1     -10.177   9.797  69.932  1.00  0.00     0.000 HD 
BRANCH  13  15
HETATM   15  C   UNL     1     -11.685  11.108  70.440  1.00  0.00    -0.320 C  
HETATM   16  C   UNL     1     -12.842  10.805  71.404  1.00  0.00    -0.557 C  
BRANCH  15  17
HETATM   17  C   UNL     1     -12.146  11.005  68.958  1.00  0.00    -0.285 C  
BRANCH  17  18
HETATM   18  C   UNL     1     -11.911  12.296  68.206  1.00  0.00    -0.367 A  
HETATM   19  C   UNL     1     -12.150  12.346  66.829  1.00  0.00    -0.118 A  
HETATM   20  C   UNL     1     -11.722  13.449  66.077  1.00  0.00    -0.362 A  
HETATM   21  C   UNL     1     -11.154  14.564  66.707  1.00  0.00    -0.325 A  
HETATM   22  C   UNL     1     -11.359  13.411  68.839  1.00  0.00    -0.331 A  
HETATM   23  C   UNL     1     -11.004  14.544  68.097  1.00  0.00    -0.261 A  
BRANCH  20  24
HETATM   24  S   UNL     1     -11.777  13.401  64.302  1.00  0.00    -0.423 S  
HETATM   25  O   UNL     1     -12.737  12.396  63.911  1.00  0.00    -0.673 OA 
HETATM   26  N   UNL     1     -12.468  14.866  63.854  1.00  0.00    -1.056 N  
HETATM   27  O   UNL     1     -10.425  13.464  63.798  1.00  0.00    -0.160 OA 
HETATM   28  H1  UNL     1     -12.500  14.838  62.835  1.00  0.00     0.000 HD 
HETATM   29  H2  UNL     1     -12.787  15.617  64.466  1.00  0.00     0.000 HD 
ENDBRANCH  20  24
BRANCH  21  30
HETATM   30  O   UNL     1     -10.777  15.608  65.909  1.00  0.00    -0.322 OA 
HETATM   31  C   UNL     1      -9.397  15.946  65.858  1.00  0.00    -0.318 C  
ENDBRANCH  21  30
ENDBRANCH  17  18
ENDBRANCH  15  17
ENDBRANCH  13  15
ENDBRANCH  12  13
ENDBRANCH  11  12
ENDBRANCH  10  11
ENDBRANCH   9  10
ENDBRANCH   3   4
ENDBRANCH   2   3
TORSDOF 11
ENDMDL
MODEL       43
REMARK 921   NORMALIZED FREE ENERGY PREDICTED BY IDOCK:   -5.74 KCAL/MOL
REMARK 922        TOTAL FREE ENERGY PREDICTED BY IDOCK:  -10.68 KCAL/MOL
REMARK 923 INTER-LIGAND FREE ENERGY PREDICTED BY IDOCK:   -9.76 KCAL/MOL
REMARK 924 INTRA-LIGAND FREE ENERGY PREDICTED BY IDOCK:   -0.92 KCAL/MOL
REMARK 927      BINDING AFFINITY PREDICTED BY RF-SCORE:    0.00 PKD
ROOT
HETATM    1  C   UNL     1      -8.422   9.204  70.595  1.00  0.00    -0.246 C  
HETATM    2  C   UNL     1      -9.507   8.183  70.286  1.00  0.00    -0.170 C  
ENDROOT
BRANCH   2   3
HETATM    3  O   UNL     1     -10.570   8.916  69.687  1.00  0.00    -0.223 OA 
BRANCH   3   4
HETATM    4  C   UNL     1     -11.449   9.622  70.450  1.00  0.00    -0.263 A  
HETATM    5  C   UNL     1     -12.152   9.064  71.528  1.00  0.00    -0.410 A  
HETATM    6  C   UNL     1     -13.065   9.827  72.261  1.00  0.00    -0.445 A  
HETATM    7  C   UNL     1     -13.285  11.162  71.927  1.00  0.00    -0.488 A  
HETATM    8  C   UNL     1     -12.582  11.731  70.866  1.00  0.00    -0.384 A  
HETATM    9  C   UNL     1     -11.659  10.978  70.123  1.00  0.00    -0.334 A  
BRANCH   9  10
HETATM   10  O   UNL     1     -11.060  11.718  69.130  1.00  0.00    -0.232 OA 
BRANCH  10  11
HETATM   11  C   UNL     1     -11.768  12.843  68.611  1.00  0.00    -0.324 C  
BRANCH  11  12
HETATM   12  C   UNL     1     -11.858  12.738  67.083  1.00  0.00    -0.350 C  
BRANCH  12  13
HETATM   13  N   UNL     1     -12.296  13.959  66.388  1.00  0.00    -0.446 NA 
HETATM   14  H   UNL     1     -11.959  14.784  66.885  1.00  0.00     0.000 HD 
BRANCH  13  15
HETATM   15  C   UNL     1     -11.931  14.045  64.961  1.00  0.00    -0.401 C  
HETATM   16  C   UNL     1     -12.245  12.678  64.333  1.00  0.00    -0.518 C  
BRANCH  15  17
HETATM   17  C   UNL     1     -10.448  14.447  64.720  1.00  0.00    -0.394 C  
BRANCH  17  18
HETATM   18  C   UNL     1      -9.947  15.405  65.777  1.00  0.00    -0.393 A  
HETATM   19  C   UNL     1     -10.465  16.703  65.834  1.00  0.00    -0.324 A  
HETATM   20  C   UNL     1      -9.858  17.672  66.644  1.00  0.00    -0.309 A  
HETATM   21  C   UNL     1      -8.798  17.328  67.493  1.00  0.00    -0.218 A  
HETATM   22  C   UNL     1      -8.901  15.056  66.633  1.00  0.00    -0.307 A  
HETATM   23  C   UNL     1      -8.346  16.004  67.499  1.00  0.00    -0.177 A  
BRANCH  20  24
HETATM   24  S   UNL     1     -10.337  19.378  66.517  1.00  0.00    -0.506 S  
HETATM   25  O   UNL     1     -10.750  19.825  67.826  1.00  0.00    -0.407 OA 
HETATM   26  N   UNL     1      -8.907  20.203  66.202  1.00  0.00    -0.564 N  
HETATM   27  O   UNL     1     -11.128  19.546  65.320  1.00  0.00    -0.406 OA 
HETATM   28  H1  UNL     1      -9.181  21.182  66.129  1.00  0.00     0.000 HD 
HETATM   29  H2  UNL     1      -7.970  19.811  66.105  1.00  0.00     0.000 HD 
ENDBRANCH  20  24
BRANCH  21  30
HETATM   30  O   UNL     1      -8.268  18.324  68.266  1.00  0.00    -0.281 OA 
HETATM   31  C   UNL     1      -6.852  18.438  68.331  1.00  0.00    -0.241 C  
ENDBRANCH  21  30
ENDBRANCH  17  18
ENDBRANCH  15  17
ENDBRANCH  13  15
ENDBRANCH  12  13
ENDBRANCH  11  12
ENDBRANCH  10  11
ENDBRANCH   9  10
ENDBRANCH   3   4
ENDBRANCH   2   3
TORSDOF 11
ENDMDL
MODEL       44
REMARK 921   NORMALIZED FREE ENERGY PREDICTED BY IDOCK:   -5.72 KCAL/MOL
REMARK 922        TOTAL FREE ENERGY PREDICTED BY IDOCK:  -10.65 KCAL/MOL
REMARK 923 INTER-LIGAND FREE ENERGY PREDICTED BY IDOCK:   -9.36 KCAL/MOL
REMARK 924 INTRA-LIGAND FREE ENERGY PREDICTED BY IDOCK:   -1.28 KCAL/MOL
REMARK 927      BINDING AFFINITY PREDICTED BY RF-SCORE:    0.00 PKD
ROOT
HETATM    1  C   UNL     1      -7.930  14.995  68.773  1.00  0.00    -0.162 C  
HETATM    2  C   UNL     1      -7.160  16.236  68.347  1.00  0.00    -0.136 C  
ENDROOT
BRANCH   2   3
HETATM    3  O   UNL     1      -7.853  16.755  67.219  1.00  0.00    -0.159 OA 
BRANCH   3   4
HETATM    4  C   UNL     1      -8.403  18.001  67.248  1.00  0.00    -0.229 A  
HETATM    5  C   UNL     1      -7.662  19.162  67.510  1.00  0.00    -0.263 A  
HETATM    6  C   UNL     1      -8.282  20.414  67.555  1.00  0.00    -0.333 A  
HETATM    7  C   UNL     1      -9.653  20.521  67.336  1.00  0.00    -0.578 A  
HETATM    8  C   UNL     1     -10.398  19.375  67.061  1.00  0.00    -0.547 A  
HETATM    9  C   UNL     1      -9.788  18.112  67.007  1.00  0.00    -0.322 A  
BRANCH   9  10
HETATM   10  O   UNL     1     -10.685  17.111  66.711  1.00  0.00    -0.231 OA 
BRANCH  10  11
HETATM   11  C   UNL     1     -10.949  16.831  65.337  1.00  0.00    -0.058 C  
BRANCH  11  12
HETATM   12  C   UNL     1     -10.366  15.461  64.967  1.00  0.00    -0.329 C  
BRANCH  12  13
HETATM   13  N   UNL     1     -11.322  14.496  64.402  1.00  0.00    -0.610 NA 
HETATM   14  H   UNL     1     -11.318  14.557  63.383  1.00  0.00     0.000 HD 
BRANCH  13  15
HETATM   15  C   UNL     1     -11.137  13.095  64.824  1.00  0.00    -0.330 C  
HETATM   16  C   UNL     1     -12.534  12.524  65.114  1.00  0.00    -0.451 C  
BRANCH  15  17
HETATM   17  C   UNL     1     -10.197  12.933  66.053  1.00  0.00    -0.293 C  
BRANCH  17  18
HETATM   18  C   UNL     1     -10.976  12.700  67.328  1.00  0.00    -0.291 A  
HETATM   19  C   UNL     1     -11.424  13.795  68.074  1.00  0.00    -0.344 A  
HETATM   20  C   UNL     1     -11.938  13.609  69.364  1.00  0.00    -0.342 A  
HETATM   21  C   UNL     1     -12.118  12.319  69.881  1.00  0.00    -0.249 A  
HETATM   22  C   UNL     1     -11.168  11.413  67.834  1.00  0.00    -0.352 A  
HETATM   23  C   UNL     1     -11.754  11.224  69.091  1.00  0.00    -0.410 A  
BRANCH  20  24
HETATM   24  S   UNL     1     -12.252  15.006  70.416  1.00  0.00    -0.367 S  
HETATM   25  O   UNL     1     -12.105  16.204  69.623  1.00  0.00    -0.207 OA 
HETATM   26  N   UNL     1     -13.892  14.914  70.773  1.00  0.00    -0.610 N  
HETATM   27  O   UNL     1     -11.589  14.790  71.680  1.00  0.00    -0.330 OA 
HETATM   28  H1  UNL     1     -14.073  15.716  71.376  1.00  0.00     0.000 HD 
HETATM   29  H2  UNL     1     -14.560  14.212  70.456  1.00  0.00     0.000 HD 
ENDBRANCH  20  24
BRANCH  21  30
HETATM   30  O   UNL     1     -12.640  12.218  71.140  1.00  0.00    -0.364 OA 
HETATM   31  C   UNL     1     -12.986  10.925  71.619  1.00  0.00    -0.464 C  
ENDBRANCH  21  30
ENDBRANCH  17  18
ENDBRANCH  15  17
ENDBRANCH  13  15
ENDBRANCH  12  13
ENDBRANCH  11  12
ENDBRANCH  10  11
ENDBRANCH   9  10
ENDBRANCH   3   4
ENDBRANCH   2   3
TORSDOF 11
ENDMDL
MODEL       45
REMARK 921   NORMALIZED FREE ENERGY PREDICTED BY IDOCK:   -5.72 KCAL/MOL
REMARK 922        TOTAL FREE ENERGY PREDICTED BY IDOCK:  -10.64 KCAL/MOL
REMARK 923 INTER-LIGAND FREE ENERGY PREDICTED BY IDOCK:   -9.35 KCAL/MOL
REMARK 924 INTRA-LIGAND FREE ENERGY PREDICTED BY IDOCK:   -1.29 KCAL/MOL
REMARK 927      BINDING AFFINITY PREDICTED BY RF-SCORE:    0.00 PKD
ROOT
HETATM    1  C   UNL     1     -12.397  15.588  73.900  1.00  0.00    -0.757 C  
HETATM    2  C   UNL     1     -12.405  16.090  72.464  1.00  0.00    -0.496 C  
ENDROOT
BRANCH   2   3
HETATM    3  O   UNL     1     -13.330  15.263  71.769  1.00  0.00    -0.379 OA 
BRANCH   3   4
HETATM    4  C   UNL     1     -13.042  13.959  71.504  1.00  0.00    -0.365 A  
HETATM    5  C   UNL     1     -13.581  12.889  72.233  1.00  0.00    -0.611 A  
HETATM    6  C   UNL     1     -13.229  11.570  71.937  1.00  0.00    -0.479 A  
HETATM    7  C   UNL     1     -12.334  11.302  70.904  1.00  0.00    -0.490 A  
HETATM    8  C   UNL     1     -11.801  12.356  70.164  1.00  0.00    -0.341 A  
HETATM    9  C   UNL     1     -12.149  13.687  70.447  1.00  0.00    -0.351 A  
BRANCH   9  10
HETATM   10  O   UNL     1     -11.532  14.579  69.600  1.00  0.00    -0.262 OA 
BRANCH  10  11
HETATM   11  C   UNL     1     -11.968  14.629  68.243  1.00  0.00    -0.247 C  
BRANCH  11  12
HETATM   12  C   UNL     1     -10.751  14.642  67.309  1.00  0.00    -0.290 C  
BRANCH  12  13
HETATM   13  N   UNL     1     -10.979  14.096  65.962  1.00  0.00    -0.301 NA 
HETATM   14  H   UNL     1     -10.642  14.753  65.257  1.00  0.00     0.000 HD 
BRANCH  13  15
HETATM   15  C   UNL     1     -10.412  12.756  65.714  1.00  0.00    -0.276 C  
HETATM   16  C   UNL     1     -10.309  12.586  64.191  1.00  0.00    -0.416 C  
BRANCH  15  17
HETATM   17  C   UNL     1     -11.236  11.602  66.355  1.00  0.00    -0.349 C  
BRANCH  17  18
HETATM   18  C   UNL     1     -10.365  10.685  67.184  1.00  0.00    -0.275 A  
HETATM   19  C   UNL     1     -10.516   9.299  67.069  1.00  0.00    -0.303 A  
HETATM   20  C   UNL     1      -9.893   8.442  67.986  1.00  0.00    -0.169 A  
HETATM   21  C   UNL     1      -9.022   8.950  68.959  1.00  0.00    -0.137 A  
HETATM   22  C   UNL     1      -9.487  11.193  68.143  1.00  0.00    -0.180 A  
HETATM   23  C   UNL     1      -8.804  10.330  69.008  1.00  0.00    -0.170 A  
BRANCH  20  24
HETATM   24  S   UNL     1     -10.294   6.711  68.013  1.00  0.00    -0.214 S  
HETATM   25  O   UNL     1     -11.089   6.455  69.191  1.00  0.00    -0.322 OA 
HETATM   26  N   UNL     1     -11.345   6.494  66.719  1.00  0.00    -0.800 N  
HETATM   27  O   UNL     1      -9.114   5.959  67.657  1.00  0.00    -0.109 OA 
HETATM   28  H1  UNL     1     -11.576   5.501  66.734  1.00  0.00     0.000 HD 
HETATM   29  H2  UNL     1     -11.679   7.200  66.063  1.00  0.00     0.000 HD 
ENDBRANCH  20  24
BRANCH  21  30
HETATM   30  O   UNL     1      -8.439   8.050  69.807  1.00  0.00    -0.124 OA 
HETATM   31  C   UNL     1      -8.704   8.173  71.198  1.00  0.00    -0.138 C  
ENDBRANCH  21  30
ENDBRANCH  17  18
ENDBRANCH  15  17
ENDBRANCH  13  15
ENDBRANCH  12  13
ENDBRANCH  11  12
ENDBRANCH  10  11
ENDBRANCH   9  10
ENDBRANCH   3   4
ENDBRANCH   2   3
TORSDOF 11
ENDMDL
MODEL       46
REMARK 921   NORMALIZED FREE ENERGY PREDICTED BY IDOCK:   -5.71 KCAL/MOL
REMARK 922        TOTAL FREE ENERGY PREDICTED BY IDOCK:  -10.63 KCAL/MOL
REMARK 923 INTER-LIGAND FREE ENERGY PREDICTED BY IDOCK:   -8.93 KCAL/MOL
REMARK 924 INTRA-LIGAND FREE ENERGY PREDICTED BY IDOCK:   -1.70 KCAL/MOL
REMARK 927      BINDING AFFINITY PREDICTED BY RF-SCORE:    0.00 PKD
ROOT
HETATM    1  C   UNL     1      -7.664   8.708  63.990  1.00  0.00    -0.134 C  
HETATM    2  C   UNL     1      -8.697   9.711  63.500  1.00  0.00    -0.222 C  
ENDROOT
BRANCH   2   3
HETATM    3  O   UNL     1      -9.042  10.499  64.633  1.00  0.00    -0.192 OA 
BRANCH   3   4
HETATM    4  C   UNL     1     -10.202  11.210  64.663  1.00  0.00    -0.317 A  
HETATM    5  C   UNL     1     -10.865  11.650  63.508  1.00  0.00    -0.497 A  
HETATM    6  C   UNL     1     -12.040  12.401  63.597  1.00  0.00    -0.648 A  
HETATM    7  C   UNL     1     -12.570  12.722  64.844  1.00  0.00    -0.541 A  
HETATM    8  C   UNL     1     -11.927  12.280  66.000  1.00  0.00    -0.342 A  
HETATM    9  C   UNL     1     -10.749  11.520  65.926  1.00  0.00    -0.272 A  
BRANCH   9  10
HETATM   10  O   UNL     1     -10.275  11.169  67.170  1.00  0.00    -0.189 OA 
BRANCH  10  11
HETATM   11  C   UNL     1     -10.917  10.094  67.854  1.00  0.00    -0.277 C  
BRANCH  11  12
HETATM   12  C   UNL     1     -11.263  10.525  69.285  1.00  0.00    -0.262 C  
BRANCH  12  13
HETATM   13  N   UNL     1     -10.814  11.874  69.667  1.00  0.00    -0.450 NA 
HETATM   14  H   UNL     1     -10.492  12.381  68.842  1.00  0.00     0.000 HD 
BRANCH  13  15
HETATM   15  C   UNL     1     -11.797  12.686  70.408  1.00  0.00    -0.154 C  
HETATM   16  C   UNL     1     -12.705  11.709  71.171  1.00  0.00    -0.426 C  
BRANCH  15  17
HETATM   17  C   UNL     1     -12.630  13.637  69.502  1.00  0.00     0.095 C  
BRANCH  17  18
HETATM   18  C   UNL     1     -11.889  14.922  69.205  1.00  0.00    -0.340 A  
HETATM   19  C   UNL     1     -11.595  15.259  67.879  1.00  0.00    -0.301 A  
HETATM   20  C   UNL     1     -10.716  16.313  67.597  1.00  0.00    -0.311 A  
HETATM   21  C   UNL     1     -10.209  17.115  68.628  1.00  0.00    -0.336 A  
HETATM   22  C   UNL     1     -11.398  15.728  70.233  1.00  0.00    -0.371 A  
HETATM   23  C   UNL     1     -10.583  16.828  69.945  1.00  0.00    -0.104 A  
BRANCH  20  24
HETATM   24  S   UNL     1     -10.128  16.572  65.941  1.00  0.00    -0.312 S  
HETATM   25  O   UNL     1     -10.466  17.921  65.552  1.00  0.00    -0.650 OA 
HETATM   26  N   UNL     1      -8.453  16.560  66.073  1.00  0.00    -0.272 N  
HETATM   27  O   UNL     1     -10.443  15.404  65.151  1.00  0.00    -0.392 OA 
HETATM   28  H1  UNL     1      -8.116  16.709  65.122  1.00  0.00     0.000 HD 
HETATM   29  H2  UNL     1      -7.896  16.432  66.917  1.00  0.00     0.000 HD 
ENDBRANCH  20  24
BRANCH  21  30
HETATM   30  O   UNL     1      -9.371  18.134  68.272  1.00  0.00    -0.284 OA 
HETATM   31  C   UNL     1      -9.728  19.457  68.650  1.00  0.00    -0.433 C  
ENDBRANCH  21  30
ENDBRANCH  17  18
ENDBRANCH  15  17
ENDBRANCH  13  15
ENDBRANCH  12  13
ENDBRANCH  11  12
ENDBRANCH  10  11
ENDBRANCH   9  10
ENDBRANCH   3   4
ENDBRANCH   2   3
TORSDOF 11
ENDMDL
MODEL       47
REMARK 921   NORMALIZED FREE ENERGY PREDICTED BY IDOCK:   -5.69 KCAL/MOL
REMARK 922        TOTAL FREE ENERGY PREDICTED BY IDOCK:  -10.60 KCAL/MOL
REMARK 923 INTER-LIGAND FREE ENERGY PREDICTED BY IDOCK:   -9.34 KCAL/MOL
REMARK 924 INTRA-LIGAND FREE ENERGY PREDICTED BY IDOCK:   -1.26 KCAL/MOL
REMARK 927      BINDING AFFINITY PREDICTED BY RF-SCORE:    0.00 PKD
ROOT
HETATM    1  C   UNL     1      -8.354   9.759  65.717  1.00  0.00    -0.132 C  
HETATM    2  C   UNL     1      -9.846   9.517  65.887  1.00  0.00    -0.290 C  
ENDROOT
BRANCH   2   3
HETATM    3  O   UNL     1     -10.102   9.636  67.281  1.00  0.00    -0.185 OA 
BRANCH   3   4
HETATM    4  C   UNL     1     -10.441   8.547  68.025  1.00  0.00    -0.191 A  
HETATM    5  C   UNL     1     -10.500   7.247  67.503  1.00  0.00    -0.337 A  
HETATM    6  C   UNL     1     -10.881   6.168  68.305  1.00  0.00    -0.387 A  
HETATM    7  C   UNL     1     -11.207   6.375  69.643  1.00  0.00    -0.483 A  
HETATM    8  C   UNL     1     -11.140   7.661  70.177  1.00  0.00    -0.229 A  
HETATM    9  C   UNL     1     -10.754   8.754  69.385  1.00  0.00    -0.169 A  
BRANCH   9  10
HETATM   10  O   UNL     1     -10.736   9.933  70.094  1.00  0.00    -0.263 OA 
BRANCH  10  11
HETATM   11  C   UNL     1     -11.612  10.057  71.214  1.00  0.00    -0.350 C  
BRANCH  11  12
HETATM   12  C   UNL     1     -12.591  11.214  70.979  1.00  0.00    -0.403 C  
BRANCH  12  13
HETATM   13  N   UNL     1     -11.993  12.456  70.463  1.00  0.00    -0.520 NA 
HETATM   14  H   UNL     1     -12.276  12.603  69.494  1.00  0.00     0.000 HD 
BRANCH  13  15
HETATM   15  C   UNL     1     -12.263  13.670  71.258  1.00  0.00    -0.171 C  
HETATM   16  C   UNL     1     -13.391  13.322  72.242  1.00  0.00    -0.630 C  
BRANCH  15  17
HETATM   17  C   UNL     1     -12.632  14.910  70.396  1.00  0.00    -0.394 C  
BRANCH  17  18
HETATM   18  C   UNL     1     -11.562  15.222  69.373  1.00  0.00    -0.347 A  
HETATM   19  C   UNL     1     -11.867  15.149  68.010  1.00  0.00    -0.225 A  
HETATM   20  C   UNL     1     -10.845  15.203  67.053  1.00  0.00    -0.314 A  
HETATM   21  C   UNL     1      -9.520  15.446  67.438  1.00  0.00    -0.205 A  
HETATM   22  C   UNL     1     -10.245  15.478  69.759  1.00  0.00    -0.301 A  
HETATM   23  C   UNL     1      -9.237  15.611  68.798  1.00  0.00    -0.211 A  
BRANCH  20  24
HETATM   24  S   UNL     1     -11.191  14.840  65.348  1.00  0.00    -0.359 S  
HETATM   25  O   UNL     1     -10.943  16.036  64.578  1.00  0.00    -0.592 OA 
HETATM   26  N   UNL     1      -9.987  13.763  64.886  1.00  0.00    -0.620 N  
HETATM   27  O   UNL     1     -12.414  14.076  65.279  1.00  0.00    -0.441 OA 
HETATM   28  H1  UNL     1     -10.185  13.555  63.908  1.00  0.00     0.000 HD 
HETATM   29  H2  UNL     1      -9.225  13.397  65.457  1.00  0.00     0.000 HD 
ENDBRANCH  20  24
BRANCH  21  30
HETATM   30  O   UNL     1      -8.581  15.501  66.446  1.00  0.00    -0.294 OA 
HETATM   31  C   UNL     1      -7.900  16.732  66.238  1.00  0.00    -0.299 C  
ENDBRANCH  21  30
ENDBRANCH  17  18
ENDBRANCH  15  17
ENDBRANCH  13  15
ENDBRANCH  12  13
ENDBRANCH  11  12
ENDBRANCH  10  11
ENDBRANCH   9  10
ENDBRANCH   3   4
ENDBRANCH   2   3
TORSDOF 11
ENDMDL
MODEL       48
REMARK 921   NORMALIZED FREE ENERGY PREDICTED BY IDOCK:   -5.67 KCAL/MOL
REMARK 922        TOTAL FREE ENERGY PREDICTED BY IDOCK:  -10.55 KCAL/MOL
REMARK 923 INTER-LIGAND FREE ENERGY PREDICTED BY IDOCK:   -9.50 KCAL/MOL
REMARK 924 INTRA-LIGAND FREE ENERGY PREDICTED BY IDOCK:   -1.06 KCAL/MOL
REMARK 927      BINDING AFFINITY PREDICTED BY RF-SCORE:    0.00 PKD
ROOT
HETATM    1  C   UNL     1      -9.872   9.127  66.328  1.00  0.00    -0.359 C  
HETATM    2  C   UNL     1     -10.543   8.237  67.363  1.00  0.00    -0.253 C  
ENDROOT
BRANCH   2   3
HETATM    3  O   UNL     1     -10.539   8.980  68.575  1.00  0.00    -0.209 OA 
BRANCH   3   4
HETATM    4  C   UNL     1     -10.908   8.402  69.752  1.00  0.00    -0.183 A  
HETATM    5  C   UNL     1     -10.769   7.031  70.011  1.00  0.00    -0.267 A  
HETATM    6  C   UNL     1     -11.189   6.484  71.226  1.00  0.00    -0.338 A  
HETATM    7  C   UNL     1     -11.753   7.304  72.202  1.00  0.00    -0.323 A  
HETATM    8  C   UNL     1     -11.884   8.670  71.961  1.00  0.00    -0.443 A  
HETATM    9  C   UNL     1     -11.462   9.234  70.747  1.00  0.00    -0.292 A  
BRANCH   9  10
HETATM   10  O   UNL     1     -11.662  10.595  70.706  1.00  0.00    -0.328 OA 
BRANCH  10  11
HETATM   11  C   UNL     1     -12.993  11.084  70.866  1.00  0.00    -0.224 C  
BRANCH  11  12
HETATM   12  C   UNL     1     -13.067  11.984  72.107  1.00  0.00    -0.246 C  
BRANCH  12  13
HETATM   13  N   UNL     1     -13.547  13.354  71.868  1.00  0.00    -0.423 NA 
HETATM   14  H   UNL     1     -14.242  13.608  72.571  1.00  0.00     0.000 HD 
BRANCH  13  15
HETATM   15  C   UNL     1     -12.501  14.392  71.795  1.00  0.00    -0.339 C  
HETATM   16  C   UNL     1     -12.477  15.104  73.156  1.00  0.00    -0.561 C  
BRANCH  15  17
HETATM   17  C   UNL     1     -12.708  15.406  70.634  1.00  0.00    -0.490 C  
BRANCH  17  18
HETATM   18  C   UNL     1     -11.846  15.072  69.436  1.00  0.00    -0.358 A  
HETATM   19  C   UNL     1     -11.101  16.082  68.819  1.00  0.00    -0.338 A  
HETATM   20  C   UNL     1     -10.485  15.850  67.582  1.00  0.00    -0.289 A  
HETATM   21  C   UNL     1     -10.510  14.575  67.001  1.00  0.00    -0.268 A  
HETATM   22  C   UNL     1     -11.861  13.797  68.868  1.00  0.00    -0.396 A  
HETATM   23  C   UNL     1     -11.180  13.546  67.671  1.00  0.00    -0.304 A  
BRANCH  20  24
HETATM   24  S   UNL     1      -9.771  17.196  66.668  1.00  0.00    -0.289 S  
HETATM   25  O   UNL     1      -9.554  18.292  67.583  1.00  0.00    -0.275 OA 
HETATM   26  N   UNL     1      -8.233  16.663  66.249  1.00  0.00    -0.322 N  
HETATM   27  O   UNL     1     -10.471  17.322  65.411  1.00  0.00    -0.635 OA 
HETATM   28  H1  UNL     1      -7.824  17.435  65.725  1.00  0.00     0.000 HD 
HETATM   29  H2  UNL     1      -7.804  15.765  66.471  1.00  0.00     0.000 HD 
ENDBRANCH  20  24
BRANCH  21  30
HETATM   30  O   UNL     1      -9.873  14.423  65.801  1.00  0.00    -0.317 OA 
HETATM   31  C   UNL     1     -10.561  13.742  64.760  1.00  0.00    -0.428 C  
ENDBRANCH  21  30
ENDBRANCH  17  18
ENDBRANCH  15  17
ENDBRANCH  13  15
ENDBRANCH  12  13
ENDBRANCH  11  12
ENDBRANCH  10  11
ENDBRANCH   9  10
ENDBRANCH   3   4
ENDBRANCH   2   3
TORSDOF 11
ENDMDL
MODEL       49
REMARK 921   NORMALIZED FREE ENERGY PREDICTED BY IDOCK:   -5.66 KCAL/MOL
REMARK 922        TOTAL FREE ENERGY PREDICTED BY IDOCK:  -10.54 KCAL/MOL
REMARK 923 INTER-LIGAND FREE ENERGY PREDICTED BY IDOCK:   -8.56 KCAL/MOL
REMARK 924 INTRA-LIGAND FREE ENERGY PREDICTED BY IDOCK:   -1.99 KCAL/MOL
REMARK 927      BINDING AFFINITY PREDICTED BY RF-SCORE:    0.00 PKD
ROOT
HETATM    1  C   UNL     1     -14.345  15.333  72.051  1.00  0.00    -0.689 C  
HETATM    2  C   UNL     1     -14.025  13.875  72.344  1.00  0.00    -0.531 C  
ENDROOT
BRANCH   2   3
HETATM    3  O   UNL     1     -12.671  13.688  71.949  1.00  0.00    -0.299 OA 
BRANCH   3   4
HETATM    4  C   UNL     1     -12.364  13.194  70.717  1.00  0.00    -0.321 A  
HETATM    5  C   UNL     1     -12.183  14.003  69.587  1.00  0.00    -0.383 A  
HETATM    6  C   UNL     1     -11.896  13.442  68.340  1.00  0.00    -0.401 A  
HETATM    7  C   UNL     1     -11.783  12.059  68.208  1.00  0.00    -0.396 A  
HETATM    8  C   UNL     1     -11.948  11.245  69.327  1.00  0.00    -0.411 A  
HETATM    9  C   UNL     1     -12.232  11.795  70.587  1.00  0.00    -0.349 A  
BRANCH   9  10
HETATM   10  O   UNL     1     -12.345  10.833  71.564  1.00  0.00    -0.344 OA 
BRANCH  10  11
HETATM   11  C   UNL     1     -13.320   9.806  71.386  1.00  0.00    -0.371 C  
BRANCH  11  12
HETATM   12  C   UNL     1     -12.696   8.441  71.701  1.00  0.00    -0.331 C  
BRANCH  12  13
HETATM   13  N   UNL     1     -12.529   7.539  70.551  1.00  0.00    -0.501 NA 
HETATM   14  H   UNL     1     -12.880   7.986  69.703  1.00  0.00     0.000 HD 
BRANCH  13  15
HETATM   15  C   UNL     1     -11.159   7.038  70.327  1.00  0.00    -0.285 C  
HETATM   16  C   UNL     1     -10.899   5.954  71.385  1.00  0.00    -0.332 C  
BRANCH  15  17
HETATM   17  C   UNL     1     -10.072   8.149  70.381  1.00  0.00    -0.196 C  
BRANCH  17  18
HETATM   18  C   UNL     1      -9.699   8.635  68.998  1.00  0.00    -0.173 A  
HETATM   19  C   UNL     1      -8.750   9.654  68.857  1.00  0.00    -0.132 A  
HETATM   20  C   UNL     1      -8.562  10.277  67.616  1.00  0.00    -0.118 A  
HETATM   21  C   UNL     1      -9.234   9.815  66.477  1.00  0.00    -0.156 A  
HETATM   22  C   UNL     1     -10.359   8.163  67.862  1.00  0.00    -0.280 A  
HETATM   23  C   UNL     1     -10.112   8.734  66.609  1.00  0.00    -0.358 A  
BRANCH  20  24
HETATM   24  S   UNL     1      -7.565  11.742  67.489  1.00  0.00    -0.145 S  
HETATM   25  O   UNL     1      -6.471  11.462  66.589  1.00  0.00    -0.132 OA 
HETATM   26  N   UNL     1      -8.531  12.850  66.675  1.00  0.00    -0.424 N  
HETATM   27  O   UNL     1      -7.398  12.301  68.811  1.00  0.00    -0.109 OA 
HETATM   28  H1  UNL     1      -7.959  13.690  66.602  1.00  0.00     0.000 HD 
HETATM   29  H2  UNL     1      -9.481  12.712  66.330  1.00  0.00     0.000 HD 
ENDBRANCH  20  24
BRANCH  21  30
HETATM   30  O   UNL     1      -8.985  10.463  65.299  1.00  0.00    -0.168 OA 
HETATM   31  C   UNL     1      -9.171   9.743  64.087  1.00  0.00    -0.224 C  
ENDBRANCH  21  30
ENDBRANCH  17  18
ENDBRANCH  15  17
ENDBRANCH  13  15
ENDBRANCH  12  13
ENDBRANCH  11  12
ENDBRANCH  10  11
ENDBRANCH   9  10
ENDBRANCH   3   4
ENDBRANCH   2   3
TORSDOF 11
ENDMDL
MODEL       50
REMARK 921   NORMALIZED FREE ENERGY PREDICTED BY IDOCK:   -5.66 KCAL/MOL
REMARK 922        TOTAL FREE ENERGY PREDICTED BY IDOCK:  -10.54 KCAL/MOL
REMARK 923 INTER-LIGAND FREE ENERGY PREDICTED BY IDOCK:   -9.57 KCAL/MOL
REMARK 924 INTRA-LIGAND FREE ENERGY PREDICTED BY IDOCK:   -0.97 KCAL/MOL
REMARK 927      BINDING AFFINITY PREDICTED BY RF-SCORE:    0.00 PKD
ROOT
HETATM    1  C   UNL     1     -11.210  11.455  63.747  1.00  0.00    -0.375 C  
HETATM    2  C   UNL     1     -12.564  12.107  63.510  1.00  0.00    -0.506 C  
ENDROOT
BRANCH   2   3
HETATM    3  O   UNL     1     -12.928  12.705  64.748  1.00  0.00    -0.816 OA 
BRANCH   3   4
HETATM    4  C   UNL     1     -12.183  13.712  65.284  1.00  0.00    -0.439 A  
HETATM    5  C   UNL     1     -11.750  14.823  64.548  1.00  0.00    -0.398 A  
HETATM    6  C   UNL     1     -10.964  15.815  65.141  1.00  0.00    -0.394 A  
HETATM    7  C   UNL     1     -10.602  15.708  66.482  1.00  0.00    -0.307 A  
HETATM    8  C   UNL     1     -11.037  14.614  67.228  1.00  0.00    -0.331 A  
HETATM    9  C   UNL     1     -11.832  13.613  66.647  1.00  0.00    -0.409 A  
BRANCH   9  10
HETATM   10  O   UNL     1     -12.170  12.627  67.546  1.00  0.00    -0.389 OA 
BRANCH  10  11
HETATM   11  C   UNL     1     -11.115  11.919  68.194  1.00  0.00    -0.242 C  
BRANCH  11  12
HETATM   12  C   UNL     1     -10.628  10.777  67.293  1.00  0.00    -0.257 C  
BRANCH  12  13
HETATM   13  N   UNL     1     -10.948   9.419  67.762  1.00  0.00    -0.499 NA 
HETATM   14  H   UNL     1     -11.915   9.189  67.531  1.00  0.00     0.000 HD 
BRANCH  13  15
HETATM   15  C   UNL     1     -10.047   8.353  67.283  1.00  0.00    -0.253 C  
HETATM   16  C   UNL     1      -9.430   8.843  65.964  1.00  0.00    -0.320 C  
BRANCH  15  17
HETATM   17  C   UNL     1     -10.751   6.978  67.098  1.00  0.00    -0.433 C  
BRANCH  17  18
HETATM   18  C   UNL     1     -10.585   6.094  68.313  1.00  0.00    -0.324 A  
HETATM   19  C   UNL     1     -11.131   6.492  69.538  1.00  0.00    -0.425 A  
HETATM   20  C   UNL     1     -10.794   5.813  70.716  1.00  0.00    -0.260 A  
HETATM   21  C   UNL     1     -10.000   4.660  70.673  1.00  0.00    -0.223 A  
HETATM   22  C   UNL     1      -9.805   4.937  68.264  1.00  0.00    -0.198 A  
HETATM   23  C   UNL     1      -9.533   4.214  69.432  1.00  0.00    -0.260 A  
BRANCH  20  24
HETATM   24  S   UNL     1     -11.263   6.473  72.298  1.00  0.00    -0.286 S  
HETATM   25  O   UNL     1     -12.252   7.502  72.078  1.00  0.00    -0.290 OA 
HETATM   26  N   UNL     1     -12.091   5.223  73.057  1.00  0.00    -0.468 N  
HETATM   27  O   UNL     1     -10.070   6.658  73.092  1.00  0.00    -0.171 OA 
HETATM   28  H1  UNL     1     -12.360   5.601  73.964  1.00  0.00     0.000 HD 
HETATM   29  H2  UNL     1     -12.282   4.290  72.691  1.00  0.00     0.000 HD 
ENDBRANCH  20  24
BRANCH  21  30
HETATM   30  O   UNL     1      -9.727   4.043  71.862  1.00  0.00    -0.149 OA 
HETATM   31  C   UNL     1      -9.737   2.622  71.896  1.00  0.00    -0.151 C  
ENDBRANCH  21  30
ENDBRANCH  17  18
ENDBRANCH  15  17
ENDBRANCH  13  15
ENDBRANCH  12  13
ENDBRANCH  11  12
ENDBRANCH  10  11
ENDBRANCH   9  10
ENDBRANCH   3   4
ENDBRANCH   2   3
TORSDOF 11
ENDMDL
MODEL       51
REMARK 921   NORMALIZED FREE ENERGY PREDICTED BY IDOCK:   -5.66 KCAL/MOL
REMARK 922        TOTAL FREE ENERGY PREDICTED BY IDOCK:  -10.54 KCAL/MOL
REMARK 923 INTER-LIGAND FREE ENERGY PREDICTED BY IDOCK:   -9.27 KCAL/MOL
REMARK 924 INTRA-LIGAND FREE ENERGY PREDICTED BY IDOCK:   -1.27 KCAL/MOL
REMARK 927      BINDING AFFINITY PREDICTED BY RF-SCORE:    0.00 PKD
ROOT
HETATM    1  C   UNL     1     -11.240  16.432  64.567  1.00  0.00    -0.136 C  
HETATM    2  C   UNL     1     -10.524  16.326  65.905  1.00  0.00    -0.345 C  
ENDROOT
BRANCH   2   3
HETATM    3  O   UNL     1      -9.246  16.921  65.710  1.00  0.00    -0.527 OA 
BRANCH   3   4
HETATM    4  C   UNL     1      -8.751  17.822  66.603  1.00  0.00    -0.261 A  
HETATM    5  C   UNL     1      -8.908  19.208  66.465  1.00  0.00    -0.348 A  
HETATM    6  C   UNL     1      -8.355  20.090  67.397  1.00  0.00    -0.382 A  
HETATM    7  C   UNL     1      -7.637  19.595  68.484  1.00  0.00    -0.372 A  
HETATM    8  C   UNL     1      -7.485  18.218  68.639  1.00  0.00    -0.308 A  
HETATM    9  C   UNL     1      -8.039  17.320  67.713  1.00  0.00    -0.198 A  
BRANCH   9  10
HETATM   10  O   UNL     1      -7.793  16.008  68.046  1.00  0.00    -0.133 OA 
BRANCH  10  11
HETATM   11  C   UNL     1      -8.262  15.535  69.308  1.00  0.00    -0.255 C  
BRANCH  11  12
HETATM   12  C   UNL     1      -9.796  15.565  69.333  1.00  0.00    -0.283 C  
BRANCH  12  13
HETATM   13  N   UNL     1     -10.439  14.491  70.107  1.00  0.00    -0.373 NA 
HETATM   14  H   UNL     1     -10.526  14.769  71.085  1.00  0.00     0.000 HD 
BRANCH  13  15
HETATM   15  C   UNL     1     -11.744  14.032  69.595  1.00  0.00    -0.311 C  
HETATM   16  C   UNL     1     -12.824  14.643  70.502  1.00  0.00    -0.371 C  
BRANCH  15  17
HETATM   17  C   UNL     1     -11.878  12.484  69.526  1.00  0.00    -0.375 C  
BRANCH  17  18
HETATM   18  C   UNL     1     -11.292  11.926  68.248  1.00  0.00    -0.335 A  
HETATM   19  C   UNL     1     -11.498  12.602  67.041  1.00  0.00    -0.406 A  
HETATM   20  C   UNL     1     -11.169  11.991  65.824  1.00  0.00    -0.334 A  
HETATM   21  C   UNL     1     -10.525  10.747  65.801  1.00  0.00    -0.188 A  
HETATM   22  C   UNL     1     -10.637  10.694  68.230  1.00  0.00    -0.227 A  
HETATM   23  C   UNL     1     -10.238  10.120  67.018  1.00  0.00    -0.290 A  
BRANCH  20  24
HETATM   24  S   UNL     1     -11.675  12.723  64.286  1.00  0.00    -0.415 S  
HETATM   25  O   UNL     1     -10.489  13.160  63.587  1.00  0.00    -0.219 OA 
HETATM   26  N   UNL     1     -12.274  11.442  63.377  1.00  0.00    -0.691 N  
HETATM   27  O   UNL     1     -12.822  13.566  64.532  1.00  0.00    -0.645 OA 
HETATM   28  H1  UNL     1     -12.564  11.862  62.495  1.00  0.00     0.000 HD 
HETATM   29  H2  UNL     1     -12.334  10.461  63.648  1.00  0.00     0.000 HD 
ENDBRANCH  20  24
BRANCH  21  30
HETATM   30  O   UNL     1     -10.221  10.223  64.576  1.00  0.00    -0.314 OA 
HETATM   31  C   UNL     1      -8.866  10.265  64.148  1.00  0.00    -0.222 C  
ENDBRANCH  21  30
ENDBRANCH  17  18
ENDBRANCH  15  17
ENDBRANCH  13  15
ENDBRANCH  12  13
ENDBRANCH  11  12
ENDBRANCH  10  11
ENDBRANCH   9  10
ENDBRANCH   3   4
ENDBRANCH   2   3
TORSDOF 11
ENDMDL
MODEL       52
REMARK 921   NORMALIZED FREE ENERGY PREDICTED BY IDOCK:   -5.65 KCAL/MOL
REMARK 922        TOTAL FREE ENERGY PREDICTED BY IDOCK:  -10.53 KCAL/MOL
REMARK 923 INTER-LIGAND FREE ENERGY PREDICTED BY IDOCK:   -9.75 KCAL/MOL
REMARK 924 INTRA-LIGAND FREE ENERGY PREDICTED BY IDOCK:   -0.78 KCAL/MOL
REMARK 927      BINDING AFFINITY PREDICTED BY RF-SCORE:    0.00 PKD
ROOT
HETATM    1  C   UNL     1     -11.137  11.604  63.569  1.00  0.00    -0.476 C  
HETATM    2  C   UNL     1     -12.632  11.845  63.425  1.00  0.00    -0.431 C  
ENDROOT
BRANCH   2   3
HETATM    3  O   UNL     1     -13.053  12.418  64.657  1.00  0.00    -0.825 OA 
BRANCH   3   4
HETATM    4  C   UNL     1     -12.257  13.298  65.327  1.00  0.00    -0.448 A  
HETATM    5  C   UNL     1     -11.960  14.582  64.850  1.00  0.00    -0.425 A  
HETATM    6  C   UNL     1     -11.115  15.435  65.564  1.00  0.00    -0.301 A  
HETATM    7  C   UNL     1     -10.557  15.015  66.770  1.00  0.00    -0.301 A  
HETATM    8  C   UNL     1     -10.856  13.745  67.261  1.00  0.00    -0.292 A  
HETATM    9  C   UNL     1     -11.707  12.879  66.556  1.00  0.00    -0.393 A  
BRANCH   9  10
HETATM   10  O   UNL     1     -11.889  11.681  67.208  1.00  0.00    -0.609 OA 
BRANCH  10  11
HETATM   11  C   UNL     1     -11.252  11.500  68.471  1.00  0.00    -0.258 C  
BRANCH  11  12
HETATM   12  C   UNL     1     -12.279  11.016  69.504  1.00  0.00    -0.282 C  
BRANCH  12  13
HETATM   13  N   UNL     1     -11.718  10.500  70.762  1.00  0.00    -0.348 NA 
HETATM   14  H   UNL     1     -11.739  11.227  71.478  1.00  0.00     0.000 HD 
BRANCH  13  15
HETATM   15  C   UNL     1     -12.342   9.266  71.278  1.00  0.00    -0.328 C  
HETATM   16  C   UNL     1     -13.495   9.696  72.199  1.00  0.00    -0.516 C  
BRANCH  15  17
HETATM   17  C   UNL     1     -11.349   8.328  72.021  1.00  0.00    -0.390 C  
BRANCH  17  18
HETATM   18  C   UNL     1     -10.764   7.284  71.096  1.00  0.00    -0.244 A  
HETATM   19  C   UNL     1     -10.543   7.599  69.751  1.00  0.00    -0.245 A  
HETATM   20  C   UNL     1     -10.226   6.590  68.832  1.00  0.00    -0.181 A  
HETATM   21  C   UNL     1     -10.012   5.274  69.263  1.00  0.00    -0.215 A  
HETATM   22  C   UNL     1     -10.538   5.977  71.531  1.00  0.00    -0.295 A  
HETATM   23  C   UNL     1     -10.144   4.986  70.625  1.00  0.00    -0.313 A  
BRANCH  20  24
HETATM   24  S   UNL     1     -10.212   6.935  67.089  1.00  0.00    -0.271 S  
HETATM   25  O   UNL     1      -8.910   6.584  66.574  1.00  0.00    -0.128 OA 
HETATM   26  N   UNL     1     -11.267   5.810  66.420  1.00  0.00    -0.744 N  
HETATM   27  O   UNL     1     -10.850   8.212  66.867  1.00  0.00    -0.250 OA 
HETATM   28  H1  UNL     1     -11.259   6.008  65.420  1.00  0.00     0.000 HD 
HETATM   29  H2  UNL     1     -11.797   5.088  66.907  1.00  0.00     0.000 HD 
ENDBRANCH  20  24
BRANCH  21  30
HETATM   30  O   UNL     1      -9.690   4.349  68.310  1.00  0.00    -0.150 OA 
HETATM   31  C   UNL     1      -8.614   3.460  68.578  1.00  0.00    -0.092 C  
ENDBRANCH  21  30
ENDBRANCH  17  18
ENDBRANCH  15  17
ENDBRANCH  13  15
ENDBRANCH  12  13
ENDBRANCH  11  12
ENDBRANCH  10  11
ENDBRANCH   9  10
ENDBRANCH   3   4
ENDBRANCH   2   3
TORSDOF 11
ENDMDL
MODEL       53
REMARK 921   NORMALIZED FREE ENERGY PREDICTED BY IDOCK:   -5.64 KCAL/MOL
REMARK 922        TOTAL FREE ENERGY PREDICTED BY IDOCK:  -10.52 KCAL/MOL
REMARK 923 INTER-LIGAND FREE ENERGY PREDICTED BY IDOCK:   -9.92 KCAL/MOL
REMARK 924 INTRA-LIGAND FREE ENERGY PREDICTED BY IDOCK:   -0.59 KCAL/MOL
REMARK 927      BINDING AFFINITY PREDICTED BY RF-SCORE:    0.00 PKD
ROOT
HETATM    1  C   UNL     1     -10.606  11.579  63.198  1.00  0.00    -0.323 C  
HETATM    2  C   UNL     1     -12.006  12.098  63.487  1.00  0.00    -0.524 C  
ENDROOT
BRANCH   2   3
HETATM    3  O   UNL     1     -12.003  12.480  64.857  1.00  0.00    -0.372 OA 
BRANCH   3   4
HETATM    4  C   UNL     1     -11.173  13.461  65.307  1.00  0.00    -0.289 A  
HETATM    5  C   UNL     1     -11.192  14.772  64.811  1.00  0.00    -0.392 A  
HETATM    6  C   UNL     1     -10.298  15.734  65.289  1.00  0.00    -0.387 A  
HETATM    7  C   UNL     1      -9.373  15.396  66.275  1.00  0.00    -0.351 A  
HETATM    8  C   UNL     1      -9.353  14.100  66.786  1.00  0.00    -0.295 A  
HETATM    9  C   UNL     1     -10.248  13.124  66.318  1.00  0.00    -0.293 A  
BRANCH   9  10
HETATM   10  O   UNL     1     -10.081  11.915  66.953  1.00  0.00    -0.205 OA 
BRANCH  10  11
HETATM   11  C   UNL     1      -8.959  11.761  67.820  1.00  0.00    -0.173 C  
BRANCH  11  12
HETATM   12  C   UNL     1      -9.035  10.401  68.527  1.00  0.00    -0.139 C  
BRANCH  12  13
HETATM   13  N   UNL     1      -9.148  10.454  69.993  1.00  0.00    -0.336 NA 
HETATM   14  H   UNL     1      -9.062  11.419  70.315  1.00  0.00     0.000 HD 
BRANCH  13  15
HETATM   15  C   UNL     1     -10.364   9.840  70.560  1.00  0.00    -0.283 C  
HETATM   16  C   UNL     1     -10.189   8.317  70.456  1.00  0.00    -0.213 C  
BRANCH  15  17
HETATM   17  C   UNL     1     -11.678  10.304  69.869  1.00  0.00    -0.298 C  
BRANCH  17  18
HETATM   18  C   UNL     1     -12.206  11.587  70.470  1.00  0.00    -0.469 A  
HETATM   19  C   UNL     1     -11.804  12.816  69.936  1.00  0.00    -0.371 A  
HETATM   20  C   UNL     1     -12.090  14.008  70.615  1.00  0.00    -0.354 A  
HETATM   21  C   UNL     1     -12.879  13.998  71.773  1.00  0.00    -0.340 A  
HETATM   22  C   UNL     1     -13.004  11.575  71.616  1.00  0.00    -0.499 A  
HETATM   23  C   UNL     1     -13.355  12.772  72.249  1.00  0.00    -0.563 A  
BRANCH  20  24
HETATM   24  S   UNL     1     -11.355  15.538  70.091  1.00  0.00    -0.361 S  
HETATM   25  O   UNL     1     -11.429  16.470  71.191  1.00  0.00    -0.331 OA 
HETATM   26  N   UNL     1      -9.719  15.192  69.918  1.00  0.00    -0.471 N  
HETATM   27  O   UNL     1     -11.811  15.834  68.752  1.00  0.00    -0.387 OA 
HETATM   28  H1  UNL     1      -9.297  16.070  69.617  1.00  0.00     0.000 HD 
HETATM   29  H2  UNL     1      -9.251  14.300  70.078  1.00  0.00     0.000 HD 
ENDBRANCH  20  24
BRANCH  21  30
HETATM   30  O   UNL     1     -13.128  15.203  72.370  1.00  0.00    -0.320 OA 
HETATM   31  C   UNL     1     -12.766  15.361  73.735  1.00  0.00    -0.583 C  
ENDBRANCH  21  30
ENDBRANCH  17  18
ENDBRANCH  15  17
ENDBRANCH  13  15
ENDBRANCH  12  13
ENDBRANCH  11  12
ENDBRANCH  10  11
ENDBRANCH   9  10
ENDBRANCH   3   4
ENDBRANCH   2   3
TORSDOF 11
ENDMDL
MODEL       54
REMARK 921   NORMALIZED FREE ENERGY PREDICTED BY IDOCK:   -5.62 KCAL/MOL
REMARK 922        TOTAL FREE ENERGY PREDICTED BY IDOCK:  -10.47 KCAL/MOL
REMARK 923 INTER-LIGAND FREE ENERGY PREDICTED BY IDOCK:   -9.29 KCAL/MOL
REMARK 924 INTRA-LIGAND FREE ENERGY PREDICTED BY IDOCK:   -1.18 KCAL/MOL
REMARK 927      BINDING AFFINITY PREDICTED BY RF-SCORE:    0.00 PKD
ROOT
HETATM    1  C   UNL     1     -11.275   5.811  72.369  1.00  0.00    -0.343 C  
HETATM    2  C   UNL     1     -10.785   6.736  73.472  1.00  0.00    -0.292 C  
ENDROOT
BRANCH   2   3
HETATM    3  O   UNL     1     -11.028   8.058  73.007  1.00  0.00    -0.374 OA 
BRANCH   3   4
HETATM    4  C   UNL     1     -10.273   8.600  72.013  1.00  0.00    -0.337 A  
HETATM    5  C   UNL     1      -8.879   8.459  71.943  1.00  0.00    -0.267 A  
HETATM    6  C   UNL     1      -8.148   9.060  70.914  1.00  0.00    -0.203 A  
HETATM    7  C   UNL     1      -8.803   9.809  69.939  1.00  0.00    -0.248 A  
HETATM    8  C   UNL     1     -10.189   9.945  69.991  1.00  0.00    -0.319 A  
HETATM    9  C   UNL     1     -10.937   9.343  71.015  1.00  0.00    -0.338 A  
BRANCH   9  10
HETATM   10  O   UNL     1     -12.287   9.580  70.885  1.00  0.00    -0.288 OA 
BRANCH  10  11
HETATM   11  C   UNL     1     -12.891  10.521  71.771  1.00  0.00    -0.454 C  
BRANCH  11  12
HETATM   12  C   UNL     1     -12.746  11.937  71.198  1.00  0.00    -0.284 C  
BRANCH  12  13
HETATM   13  N   UNL     1     -13.365  13.010  71.994  1.00  0.00    -0.494 NA 
HETATM   14  H   UNL     1     -13.480  12.705  72.961  1.00  0.00     0.000 HD 
BRANCH  13  15
HETATM   15  C   UNL     1     -12.673  14.312  71.954  1.00  0.00    -0.338 C  
HETATM   16  C   UNL     1     -13.050  15.061  73.242  1.00  0.00    -0.607 C  
BRANCH  15  17
HETATM   17  C   UNL     1     -13.008  15.158  70.693  1.00  0.00    -0.420 C  
BRANCH  17  18
HETATM   18  C   UNL     1     -11.852  15.197  69.719  1.00  0.00    -0.364 A  
HETATM   19  C   UNL     1     -11.887  14.396  68.573  1.00  0.00    -0.369 A  
HETATM   20  C   UNL     1     -10.739  14.239  67.785  1.00  0.00    -0.251 A  
HETATM   21  C   UNL     1      -9.576  14.969  68.066  1.00  0.00    -0.208 A  
HETATM   22  C   UNL     1     -10.700  15.937  69.993  1.00  0.00    -0.343 A  
HETATM   23  C   UNL     1      -9.580  15.840  69.160  1.00  0.00    -0.255 A  
BRANCH  20  24
HETATM   24  S   UNL     1     -10.695  13.020  66.494  1.00  0.00    -0.281 S  
HETATM   25  O   UNL     1     -12.055  12.633  66.199  1.00  0.00    -0.521 OA 
HETATM   26  N   UNL     1     -10.172  13.855  65.132  1.00  0.00    -0.478 N  
HETATM   27  O   UNL     1      -9.634  12.083  66.780  1.00  0.00    -0.198 OA 
HETATM   28  H1  UNL     1     -10.147  13.155  64.391  1.00  0.00     0.000 HD 
HETATM   29  H2  UNL     1      -9.931  14.843  65.062  1.00  0.00     0.000 HD 
ENDBRANCH  20  24
BRANCH  21  30
HETATM   30  O   UNL     1      -8.502  14.775  67.242  1.00  0.00    -0.187 OA 
HETATM   31  C   UNL     1      -7.732  15.910  66.868  1.00  0.00    -0.233 C  
ENDBRANCH  21  30
ENDBRANCH  17  18
ENDBRANCH  15  17
ENDBRANCH  13  15
ENDBRANCH  12  13
ENDBRANCH  11  12
ENDBRANCH  10  11
ENDBRANCH   9  10
ENDBRANCH   3   4
ENDBRANCH   2   3
TORSDOF 11
ENDMDL
MODEL       55
REMARK 921   NORMALIZED FREE ENERGY PREDICTED BY IDOCK:   -5.61 KCAL/MOL
REMARK 922        TOTAL FREE ENERGY PREDICTED BY IDOCK:  -10.47 KCAL/MOL
REMARK 923 INTER-LIGAND FREE ENERGY PREDICTED BY IDOCK:   -9.31 KCAL/MOL
REMARK 924 INTRA-LIGAND FREE ENERGY PREDICTED BY IDOCK:   -1.16 KCAL/MOL
REMARK 927      BINDING AFFINITY PREDICTED BY RF-SCORE:    0.00 PKD
ROOT
HETATM    1  C   UNL     1      -8.917   7.995  73.545  1.00  0.00    -0.327 C  
HETATM    2  C   UNL     1      -8.899   8.125  72.029  1.00  0.00    -0.174 C  
ENDROOT
BRANCH   2   3
HETATM    3  O   UNL     1      -9.946   9.032  71.705  1.00  0.00    -0.325 OA 
BRANCH   3   4
HETATM    4  C   UNL     1     -11.243   8.620  71.671  1.00  0.00    -0.309 A  
HETATM    5  C   UNL     1     -12.294   9.339  72.259  1.00  0.00    -0.344 A  
HETATM    6  C   UNL     1     -13.605   8.856  72.218  1.00  0.00    -0.513 A  
HETATM    7  C   UNL     1     -13.882   7.646  71.587  1.00  0.00    -0.480 A  
HETATM    8  C   UNL     1     -12.848   6.928  70.989  1.00  0.00    -0.220 A  
HETATM    9  C   UNL     1     -11.527   7.403  71.017  1.00  0.00    -0.282 A  
BRANCH   9  10
HETATM   10  O   UNL     1     -10.656   6.563  70.362  1.00  0.00    -0.212 OA 
BRANCH  10  11
HETATM   11  C   UNL     1     -11.075   5.992  69.124  1.00  0.00    -0.335 C  
BRANCH  11  12
HETATM   12  C   UNL     1     -10.302   6.641  67.968  1.00  0.00    -0.191 C  
BRANCH  12  13
HETATM   13  N   UNL     1     -10.971   7.779  67.317  1.00  0.00    -0.524 NA 
HETATM   14  H   UNL     1     -11.952   7.812  67.595  1.00  0.00     0.000 HD 
BRANCH  13  15
HETATM   15  C   UNL     1     -10.340   9.095  67.532  1.00  0.00    -0.261 C  
HETATM   16  C   UNL     1      -8.926   8.833  68.076  1.00  0.00    -0.141 C  
BRANCH  15  17
HETATM   17  C   UNL     1     -11.145  10.025  68.484  1.00  0.00    -0.219 C  
BRANCH  17  18
HETATM   18  C   UNL     1     -11.378  11.388  67.872  1.00  0.00    -0.371 A  
HETATM   19  C   UNL     1     -11.456  11.517  66.481  1.00  0.00    -0.178 A  
HETATM   20  C   UNL     1     -11.437  12.786  65.887  1.00  0.00    -0.356 A  
HETATM   21  C   UNL     1     -11.456  13.943  66.676  1.00  0.00    -0.355 A  
HETATM   22  C   UNL     1     -11.412  12.539  68.662  1.00  0.00    -0.348 A  
HETATM   23  C   UNL     1     -11.472  13.805  68.068  1.00  0.00    -0.344 A  
BRANCH  20  24
HETATM   24  S   UNL     1     -11.261  12.950  64.127  1.00  0.00    -0.414 S  
HETATM   25  O   UNL     1     -11.789  11.755  63.511  1.00  0.00    -0.465 OA 
HETATM   26  N   UNL     1     -12.332  14.173  63.701  1.00  0.00    -1.092 N  
HETATM   27  O   UNL     1      -9.953  13.493  63.843  1.00  0.00     0.067 OA 
HETATM   28  H1  UNL     1     -12.232  14.268  62.691  1.00  0.00     0.000 HD 
HETATM   29  H2  UNL     1     -12.948  14.705  64.317  1.00  0.00     0.000 HD 
ENDBRANCH  20  24
BRANCH  21  30
HETATM   30  O   UNL     1     -11.453  15.145  66.024  1.00  0.00    -0.285 OA 
HETATM   31  C   UNL     1     -10.440  16.084  66.357  1.00  0.00    -0.309 C  
ENDBRANCH  21  30
ENDBRANCH  17  18
ENDBRANCH  15  17
ENDBRANCH  13  15
ENDBRANCH  12  13
ENDBRANCH  11  12
ENDBRANCH  10  11
ENDBRANCH   9  10
ENDBRANCH   3   4
ENDBRANCH   2   3
TORSDOF 11
ENDMDL
MODEL       56
REMARK 921   NORMALIZED FREE ENERGY PREDICTED BY IDOCK:   -5.60 KCAL/MOL
REMARK 922        TOTAL FREE ENERGY PREDICTED BY IDOCK:  -10.45 KCAL/MOL
REMARK 923 INTER-LIGAND FREE ENERGY PREDICTED BY IDOCK:   -9.27 KCAL/MOL
REMARK 924 INTRA-LIGAND FREE ENERGY PREDICTED BY IDOCK:   -1.18 KCAL/MOL
REMARK 927      BINDING AFFINITY PREDICTED BY RF-SCORE:    0.00 PKD
ROOT
HETATM    1  C   UNL     1      -8.271   2.471  66.669  1.00  0.00    -0.086 C  
HETATM    2  C   UNL     1      -9.155   3.452  65.914  1.00  0.00    -0.154 C  
ENDROOT
BRANCH   2   3
HETATM    3  O   UNL     1      -9.682   4.336  66.897  1.00  0.00    -0.197 OA 
BRANCH   3   4
HETATM    4  C   UNL     1      -9.632   5.685  66.722  1.00  0.00    -0.146 A  
HETATM    5  C   UNL     1      -8.848   6.304  65.738  1.00  0.00    -0.122 A  
HETATM    6  C   UNL     1      -8.812   7.696  65.620  1.00  0.00    -0.086 A  
HETATM    7  C   UNL     1      -9.563   8.489  66.486  1.00  0.00    -0.303 A  
HETATM    8  C   UNL     1     -10.356   7.884  67.460  1.00  0.00    -0.329 A  
HETATM    9  C   UNL     1     -10.406   6.487  67.587  1.00  0.00    -0.194 A  
BRANCH   9  10
HETATM   10  O   UNL     1     -11.253   6.084  68.594  1.00  0.00    -0.307 OA 
BRANCH  10  11
HETATM   11  C   UNL     1     -10.676   5.675  69.833  1.00  0.00    -0.329 C  
BRANCH  11  12
HETATM   12  C   UNL     1     -11.403   6.365  70.995  1.00  0.00    -0.328 C  
BRANCH  12  13
HETATM   13  N   UNL     1     -12.270   7.493  70.619  1.00  0.00    -0.528 NA 
HETATM   14  H   UNL     1     -13.200   7.366  71.018  1.00  0.00     0.000 HD 
BRANCH  13  15
HETATM   15  C   UNL     1     -11.753   8.833  70.960  1.00  0.00    -0.282 C  
HETATM   16  C   UNL     1     -10.856   8.668  72.197  1.00  0.00    -0.424 C  
BRANCH  15  17
HETATM   17  C   UNL     1     -12.869   9.886  71.212  1.00  0.00    -0.486 C  
BRANCH  17  18
HETATM   18  C   UNL     1     -12.472  11.256  70.710  1.00  0.00    -0.471 A  
HETATM   19  C   UNL     1     -12.765  12.387  71.480  1.00  0.00    -0.333 A  
HETATM   20  C   UNL     1     -12.620  13.669  70.936  1.00  0.00    -0.346 A  
HETATM   21  C   UNL     1     -12.072  13.845  69.659  1.00  0.00    -0.349 A  
HETATM   22  C   UNL     1     -11.912  11.427  69.443  1.00  0.00    -0.407 A  
HETATM   23  C   UNL     1     -11.694  12.712  68.931  1.00  0.00    -0.370 A  
BRANCH  20  24
HETATM   24  S   UNL     1     -13.243  15.089  71.805  1.00  0.00    -0.408 S  
HETATM   25  O   UNL     1     -13.325  14.755  73.207  1.00  0.00    -0.564 OA 
HETATM   26  N   UNL     1     -12.015  16.232  71.697  1.00  0.00    -0.656 N  
HETATM   27  O   UNL     1     -14.335  15.651  71.045  1.00  0.00    -0.428 OA 
HETATM   28  H1  UNL     1     -12.373  17.046  72.195  1.00  0.00     0.000 HD 
HETATM   29  H2  UNL     1     -11.111  16.133  71.235  1.00  0.00     0.000 HD 
ENDBRANCH  20  24
BRANCH  21  30
HETATM   30  O   UNL     1     -11.946  15.128  69.203  1.00  0.00    -0.307 OA 
HETATM   31  C   UNL     1     -11.379  15.327  67.915  1.00  0.00    -0.334 C  
ENDBRANCH  21  30
ENDBRANCH  17  18
ENDBRANCH  15  17
ENDBRANCH  13  15
ENDBRANCH  12  13
ENDBRANCH  11  12
ENDBRANCH  10  11
ENDBRANCH   9  10
ENDBRANCH   3   4
ENDBRANCH   2   3
TORSDOF 11
ENDMDL
MODEL       57
REMARK 921   NORMALIZED FREE ENERGY PREDICTED BY IDOCK:   -5.59 KCAL/MOL
REMARK 922        TOTAL FREE ENERGY PREDICTED BY IDOCK:  -10.43 KCAL/MOL
REMARK 923 INTER-LIGAND FREE ENERGY PREDICTED BY IDOCK:   -9.46 KCAL/MOL
REMARK 924 INTRA-LIGAND FREE ENERGY PREDICTED BY IDOCK:   -0.97 KCAL/MOL
REMARK 927      BINDING AFFINITY PREDICTED BY RF-SCORE:    0.00 PKD
ROOT
HETATM    1  C   UNL     1     -11.105   6.140  68.926  1.00  0.00    -0.417 C  
HETATM    2  C   UNL     1     -11.517   6.721  70.270  1.00  0.00    -0.360 C  
ENDROOT
BRANCH   2   3
HETATM    3  O   UNL     1     -10.890   7.996  70.350  1.00  0.00    -0.240 OA 
BRANCH   3   4
HETATM    4  C   UNL     1     -11.587   9.093  70.754  1.00  0.00    -0.276 A  
HETATM    5  C   UNL     1     -12.564   9.057  71.760  1.00  0.00    -0.434 A  
HETATM    6  C   UNL     1     -13.269  10.208  72.117  1.00  0.00    -0.463 A  
HETATM    7  C   UNL     1     -13.006  11.415  71.474  1.00  0.00    -0.505 A  
HETATM    8  C   UNL     1     -12.028  11.468  70.481  1.00  0.00    -0.439 A  
HETATM    9  C   UNL     1     -11.308  10.320  70.115  1.00  0.00    -0.316 A  
BRANCH   9  10
HETATM   10  O   UNL     1     -10.381  10.576  69.131  1.00  0.00    -0.197 OA 
BRANCH  10  11
HETATM   11  C   UNL     1     -10.356  11.882  68.556  1.00  0.00    -0.218 C  
BRANCH  11  12
HETATM   12  C   UNL     1     -10.540  11.781  67.036  1.00  0.00    -0.232 C  
BRANCH  12  13
HETATM   13  N   UNL     1     -11.789  12.351  66.508  1.00  0.00    -0.563 NA 
HETATM   14  H   UNL     1     -12.486  12.412  67.251  1.00  0.00     0.000 HD 
BRANCH  13  15
HETATM   15  C   UNL     1     -11.657  13.656  65.832  1.00  0.00    -0.328 C  
HETATM   16  C   UNL     1     -12.247  13.493  64.422  1.00  0.00    -0.440 C  
BRANCH  15  17
HETATM   17  C   UNL     1     -10.196  14.183  65.772  1.00  0.00    -0.347 C  
BRANCH  17  18
HETATM   18  C   UNL     1     -10.050  15.513  66.477  1.00  0.00    -0.290 A  
HETATM   19  C   UNL     1      -9.097  16.433  66.026  1.00  0.00    -0.317 A  
HETATM   20  C   UNL     1      -8.785  17.561  66.796  1.00  0.00    -0.257 A  
HETATM   21  C   UNL     1      -9.499  17.846  67.968  1.00  0.00    -0.279 A  
HETATM   22  C   UNL     1     -10.774  15.801  67.636  1.00  0.00    -0.310 A  
HETATM   23  C   UNL     1     -10.515  16.969  68.362  1.00  0.00    -0.370 A  
BRANCH  20  24
HETATM   24  S   UNL     1      -7.395  18.582  66.370  1.00  0.00    -0.261 S  
HETATM   25  O   UNL     1      -6.908  18.158  65.078  1.00  0.00    -0.306 OA 
HETATM   26  N   UNL     1      -8.047  20.110  66.113  1.00  0.00    -0.508 N  
HETATM   27  O   UNL     1      -6.558  18.733  67.537  1.00  0.00    -0.196 OA 
HETATM   28  H1  UNL     1      -7.250  20.696  65.868  1.00  0.00     0.000 HD 
HETATM   29  H2  UNL     1      -9.025  20.390  66.185  1.00  0.00     0.000 HD 
ENDBRANCH  20  24
BRANCH  21  30
HETATM   30  O   UNL     1      -9.148  18.973  68.656  1.00  0.00    -0.345 OA 
HETATM   31  C   UNL     1     -10.184  19.854  69.070  1.00  0.00    -0.242 C  
ENDBRANCH  21  30
ENDBRANCH  17  18
ENDBRANCH  15  17
ENDBRANCH  13  15
ENDBRANCH  12  13
ENDBRANCH  11  12
ENDBRANCH  10  11
ENDBRANCH   9  10
ENDBRANCH   3   4
ENDBRANCH   2   3
TORSDOF 11
ENDMDL
MODEL       58
REMARK 921   NORMALIZED FREE ENERGY PREDICTED BY IDOCK:   -5.57 KCAL/MOL
REMARK 922        TOTAL FREE ENERGY PREDICTED BY IDOCK:  -10.40 KCAL/MOL
REMARK 923 INTER-LIGAND FREE ENERGY PREDICTED BY IDOCK:   -8.56 KCAL/MOL
REMARK 924 INTRA-LIGAND FREE ENERGY PREDICTED BY IDOCK:   -1.84 KCAL/MOL
REMARK 927      BINDING AFFINITY PREDICTED BY RF-SCORE:    0.00 PKD
ROOT
HETATM    1  C   UNL     1     -12.996  15.425  73.522  1.00  0.00    -0.659 C  
HETATM    2  C   UNL     1     -13.934  14.942  72.426  1.00  0.00    -0.481 C  
ENDROOT
BRANCH   2   3
HETATM    3  O   UNL     1     -13.740  13.535  72.341  1.00  0.00    -0.543 OA 
BRANCH   3   4
HETATM    4  C   UNL     1     -13.001  12.991  71.336  1.00  0.00    -0.283 A  
HETATM    5  C   UNL     1     -12.369  13.755  70.345  1.00  0.00    -0.423 A  
HETATM    6  C   UNL     1     -11.645  13.143  69.319  1.00  0.00    -0.370 A  
HETATM    7  C   UNL     1     -11.540  11.755  69.272  1.00  0.00    -0.378 A  
HETATM    8  C   UNL     1     -12.153  10.984  70.259  1.00  0.00    -0.448 A  
HETATM    9  C   UNL     1     -12.880  11.586  71.298  1.00  0.00    -0.360 A  
BRANCH   9  10
HETATM   10  O   UNL     1     -13.396  10.661  72.177  1.00  0.00    -0.444 OA 
BRANCH  10  11
HETATM   11  C   UNL     1     -13.712   9.363  71.678  1.00  0.00    -0.321 C  
BRANCH  11  12
HETATM   12  C   UNL     1     -13.071   8.294  72.574  1.00  0.00    -0.094 C  
BRANCH  12  13
HETATM   13  N   UNL     1     -12.908   6.967  71.960  1.00  0.00    -0.543 NA 
HETATM   14  H   UNL     1     -13.439   6.917  71.090  1.00  0.00     0.000 HD 
BRANCH  13  15
HETATM   15  C   UNL     1     -11.514   6.541  71.726  1.00  0.00    -0.300 C  
HETATM   16  C   UNL     1     -11.286   5.272  72.562  1.00  0.00    -0.272 C  
BRANCH  15  17
HETATM   17  C   UNL     1     -10.462   7.635  72.066  1.00  0.00    -0.258 C  
BRANCH  17  18
HETATM   18  C   UNL     1      -9.829   8.211  70.819  1.00  0.00    -0.201 A  
HETATM   19  C   UNL     1     -10.216   7.731  69.563  1.00  0.00    -0.207 A  
HETATM   20  C   UNL     1      -9.486   8.078  68.419  1.00  0.00    -0.145 A  
HETATM   21  C   UNL     1      -8.432   8.998  68.497  1.00  0.00    -0.128 A  
HETATM   22  C   UNL     1      -8.790   9.140  70.898  1.00  0.00    -0.292 A  
HETATM   23  C   UNL     1      -8.112   9.546  69.743  1.00  0.00    -0.143 A  
BRANCH  20  24
HETATM   24  S   UNL     1      -9.800   7.263  66.872  1.00  0.00    -0.221 S  
HETATM   25  O   UNL     1     -11.103   6.645  66.949  1.00  0.00    -0.400 OA 
HETATM   26  N   UNL     1      -9.970   8.509  65.756  1.00  0.00    -0.368 N  
HETATM   27  O   UNL     1      -8.601   6.568  66.465  1.00  0.00    -0.115 OA 
HETATM   28  H1  UNL     1     -10.151   8.041  64.869  1.00  0.00     0.000 HD 
HETATM   29  H2  UNL     1      -9.907   9.512  65.929  1.00  0.00     0.000 HD 
ENDBRANCH  20  24
BRANCH  21  30
HETATM   30  O   UNL     1      -7.778   9.299  67.335  1.00  0.00    -0.094 OA 
HETATM   31  C   UNL     1      -6.383   9.566  67.402  1.00  0.00    -0.065 C  
ENDBRANCH  21  30
ENDBRANCH  17  18
ENDBRANCH  15  17
ENDBRANCH  13  15
ENDBRANCH  12  13
ENDBRANCH  11  12
ENDBRANCH  10  11
ENDBRANCH   9  10
ENDBRANCH   3   4
ENDBRANCH   2   3
TORSDOF 11
ENDMDL
MODEL       59
REMARK 921   NORMALIZED FREE ENERGY PREDICTED BY IDOCK:   -5.57 KCAL/MOL
REMARK 922        TOTAL FREE ENERGY PREDICTED BY IDOCK:  -10.39 KCAL/MOL
REMARK 923 INTER-LIGAND FREE ENERGY PREDICTED BY IDOCK:   -9.02 KCAL/MOL
REMARK 924 INTRA-LIGAND FREE ENERGY PREDICTED BY IDOCK:   -1.37 KCAL/MOL
REMARK 927      BINDING AFFINITY PREDICTED BY RF-SCORE:    0.00 PKD
ROOT
HETATM    1  C   UNL     1      -6.147  16.704  67.350  1.00  0.00    -0.191 C  
HETATM    2  C   UNL     1      -6.074  17.866  68.328  1.00  0.00    -0.177 C  
ENDROOT
BRANCH   2   3
HETATM    3  O   UNL     1      -7.350  17.927  68.954  1.00  0.00    -0.276 OA 
BRANCH   3   4
HETATM    4  C   UNL     1      -8.407  18.518  68.332  1.00  0.00    -0.332 A  
HETATM    5  C   UNL     1      -8.359  19.814  67.799  1.00  0.00    -0.344 A  
HETATM    6  C   UNL     1      -9.483  20.384  67.194  1.00  0.00    -0.567 A  
HETATM    7  C   UNL     1     -10.672  19.662  67.113  1.00  0.00    -0.587 A  
HETATM    8  C   UNL     1     -10.728  18.368  67.627  1.00  0.00    -0.390 A  
HETATM    9  C   UNL     1      -9.606  17.781  68.233  1.00  0.00    -0.312 A  
BRANCH   9  10
HETATM   10  O   UNL     1      -9.856  16.498  68.664  1.00  0.00    -0.230 OA 
BRANCH  10  11
HETATM   11  C   UNL     1     -11.139  16.215  69.222  1.00  0.00    -0.327 C  
BRANCH  11  12
HETATM   12  C   UNL     1     -11.652  14.874  68.682  1.00  0.00    -0.318 C  
BRANCH  12  13
HETATM   13  N   UNL     1     -12.130  14.891  67.290  1.00  0.00    -0.412 NA 
HETATM   14  H   UNL     1     -12.385  15.842  67.021  1.00  0.00     0.000 HD 
BRANCH  13  15
HETATM   15  C   UNL     1     -11.209  14.313  66.294  1.00  0.00    -0.337 C  
HETATM   16  C   UNL     1     -10.783  15.457  65.359  1.00  0.00    -0.416 C  
BRANCH  15  17
HETATM   17  C   UNL     1     -11.819  13.129  65.492  1.00  0.00    -0.420 C  
BRANCH  17  18
HETATM   18  C   UNL     1     -11.235  11.801  65.922  1.00  0.00    -0.345 A  
HETATM   19  C   UNL     1     -11.398  11.370  67.243  1.00  0.00    -0.347 A  
HETATM   20  C   UNL     1     -10.676  10.269  67.721  1.00  0.00    -0.275 A  
HETATM   21  C   UNL     1      -9.871   9.514  66.857  1.00  0.00    -0.204 A  
HETATM   22  C   UNL     1     -10.447  11.043  65.055  1.00  0.00    -0.344 A  
HETATM   23  C   UNL     1      -9.788   9.897  65.514  1.00  0.00    -0.381 A  
BRANCH  20  24
HETATM   24  S   UNL     1     -10.668   9.884  69.455  1.00  0.00    -0.255 S  
HETATM   25  O   UNL     1     -11.719  10.646  70.087  1.00  0.00    -0.276 OA 
HETATM   26  N   UNL     1     -11.173   8.284  69.543  1.00  0.00    -0.439 N  
HETATM   27  O   UNL     1      -9.299   9.863  69.916  1.00  0.00    -0.220 OA 
HETATM   28  H1  UNL     1     -11.168   8.063  70.538  1.00  0.00     0.000 HD 
HETATM   29  H2  UNL     1     -11.428   7.668  68.771  1.00  0.00     0.000 HD 
ENDBRANCH  20  24
BRANCH  21  30
HETATM   30  O   UNL     1      -9.211   8.444  67.393  1.00  0.00    -0.138 OA 
HETATM   31  C   UNL     1      -9.215   7.222  66.665  1.00  0.00    -0.157 C  
ENDBRANCH  21  30
ENDBRANCH  17  18
ENDBRANCH  15  17
ENDBRANCH  13  15
ENDBRANCH  12  13
ENDBRANCH  11  12
ENDBRANCH  10  11
ENDBRANCH   9  10
ENDBRANCH   3   4
ENDBRANCH   2   3
TORSDOF 11
ENDMDL
MODEL       60
REMARK 921   NORMALIZED FREE ENERGY PREDICTED BY IDOCK:   -5.56 KCAL/MOL
REMARK 922        TOTAL FREE ENERGY PREDICTED BY IDOCK:  -10.37 KCAL/MOL
REMARK 923 INTER-LIGAND FREE ENERGY PREDICTED BY IDOCK:   -8.91 KCAL/MOL
REMARK 924 INTRA-LIGAND FREE ENERGY PREDICTED BY IDOCK:   -1.47 KCAL/MOL
REMARK 927      BINDING AFFINITY PREDICTED BY RF-SCORE:    0.00 PKD
ROOT
HETATM    1  C   UNL     1      -9.817   8.721  66.451  1.00  0.00    -0.352 C  
HETATM    2  C   UNL     1     -10.661   7.932  67.440  1.00  0.00    -0.272 C  
ENDROOT
BRANCH   2   3
HETATM    3  O   UNL     1     -10.681   8.705  68.635  1.00  0.00    -0.164 OA 
BRANCH   3   4
HETATM    4  C   UNL     1     -10.999   8.135  69.830  1.00  0.00    -0.168 A  
HETATM    5  C   UNL     1     -10.981   6.751  70.051  1.00  0.00    -0.344 A  
HETATM    6  C   UNL     1     -11.343   6.218  71.291  1.00  0.00    -0.356 A  
HETATM    7  C   UNL     1     -11.727   7.064  72.329  1.00  0.00    -0.294 A  
HETATM    8  C   UNL     1     -11.736   8.443  72.125  1.00  0.00    -0.442 A  
HETATM    9  C   UNL     1     -11.370   8.993  70.887  1.00  0.00    -0.293 A  
BRANCH   9  10
HETATM   10  O   UNL     1     -11.431  10.368  70.888  1.00  0.00    -0.344 OA 
BRANCH  10  11
HETATM   11  C   UNL     1     -12.711  10.985  70.764  1.00  0.00    -0.323 C  
BRANCH  11  12
HETATM   12  C   UNL     1     -13.034  11.767  72.044  1.00  0.00    -0.265 C  
BRANCH  12  13
HETATM   13  N   UNL     1     -13.651  13.088  71.841  1.00  0.00    -0.396 NA 
HETATM   14  H   UNL     1     -14.424  13.216  72.494  1.00  0.00     0.000 HD 
BRANCH  13  15
HETATM   15  C   UNL     1     -12.730  14.239  71.917  1.00  0.00    -0.338 C  
HETATM   16  C   UNL     1     -12.894  14.854  73.316  1.00  0.00    -0.646 C  
BRANCH  15  17
HETATM   17  C   UNL     1     -12.964  15.300  70.805  1.00  0.00    -0.492 C  
BRANCH  17  18
HETATM   18  C   UNL     1     -11.895  15.239  69.737  1.00  0.00    -0.357 A  
HETATM   19  C   UNL     1     -11.794  14.104  68.925  1.00  0.00    -0.382 A  
HETATM   20  C   UNL     1     -10.679  13.925  68.095  1.00  0.00    -0.250 A  
HETATM   21  C   UNL     1      -9.708  14.929  67.979  1.00  0.00    -0.212 A  
HETATM   22  C   UNL     1     -10.937  16.247  69.613  1.00  0.00    -0.346 A  
HETATM   23  C   UNL     1      -9.865  16.102  68.725  1.00  0.00    -0.230 A  
BRANCH  20  24
HETATM   24  S   UNL     1     -10.411  12.373  67.273  1.00  0.00    -0.224 S  
HETATM   25  O   UNL     1     -11.673  11.675  67.214  1.00  0.00    -0.568 OA 
HETATM   26  N   UNL     1     -10.063  12.785  65.681  1.00  0.00    -0.276 N  
HETATM   27  O   UNL     1      -9.189  11.790  67.776  1.00  0.00    -0.170 OA 
HETATM   28  H1  UNL     1      -9.909  11.895  65.209  1.00  0.00     0.000 HD 
HETATM   29  H2  UNL     1     -10.016  13.720  65.276  1.00  0.00     0.000 HD 
ENDBRANCH  20  24
BRANCH  21  30
HETATM   30  O   UNL     1      -8.658  14.688  67.138  1.00  0.00    -0.200 OA 
HETATM   31  C   UNL     1      -7.466  15.439  67.324  1.00  0.00    -0.207 C  
ENDBRANCH  21  30
ENDBRANCH  17  18
ENDBRANCH  15  17
ENDBRANCH  13  15
ENDBRANCH  12  13
ENDBRANCH  11  12
ENDBRANCH  10  11
ENDBRANCH   9  10
ENDBRANCH   3   4
ENDBRANCH   2   3
TORSDOF 11
ENDMDL
MODEL       61
REMARK 921   NORMALIZED FREE ENERGY PREDICTED BY IDOCK:   -5.55 KCAL/MOL
REMARK 922        TOTAL FREE ENERGY PREDICTED BY IDOCK:  -10.37 KCAL/MOL
REMARK 923 INTER-LIGAND FREE ENERGY PREDICTED BY IDOCK:   -9.04 KCAL/MOL
REMARK 924 INTRA-LIGAND FREE ENERGY PREDICTED BY IDOCK:   -1.33 KCAL/MOL
REMARK 927      BINDING AFFINITY PREDICTED BY RF-SCORE:    0.00 PKD
ROOT
HETATM    1  C   UNL     1      -9.400  16.779  68.528  1.00  0.00    -0.246 C  
HETATM    2  C   UNL     1     -10.795  16.535  69.085  1.00  0.00    -0.334 C  
ENDROOT
BRANCH   2   3
HETATM    3  O   UNL     1     -10.609  15.792  70.284  1.00  0.00    -0.314 OA 
BRANCH   3   4
HETATM    4  C   UNL     1     -11.669  15.237  70.933  1.00  0.00    -0.344 A  
HETATM    5  C   UNL     1     -12.466  15.940  71.847  1.00  0.00    -0.524 A  
HETATM    6  C   UNL     1     -13.526  15.313  72.507  1.00  0.00    -0.588 A  
HETATM    7  C   UNL     1     -13.805  13.971  72.259  1.00  0.00    -0.655 A  
HETATM    8  C   UNL     1     -13.029  13.264  71.343  1.00  0.00    -0.398 A  
HETATM    9  C   UNL     1     -11.964  13.883  70.668  1.00  0.00    -0.292 A  
BRANCH   9  10
HETATM   10  O   UNL     1     -11.329  13.026  69.799  1.00  0.00    -0.174 OA 
BRANCH  10  11
HETATM   11  C   UNL     1     -12.127  12.310  68.857  1.00  0.00    -0.126 C  
BRANCH  11  12
HETATM   12  C   UNL     1     -11.686  12.664  67.431  1.00  0.00    -0.369 C  
BRANCH  12  13
HETATM   13  N   UNL     1     -11.262  11.528  66.598  1.00  0.00    -0.321 NA 
HETATM   14  H   UNL     1     -11.102  11.839  65.639  1.00  0.00     0.000 HD 
BRANCH  13  15
HETATM   15  C   UNL     1     -10.088  10.781  67.089  1.00  0.00    -0.204 C  
HETATM   16  C   UNL     1      -8.840  11.528  66.594  1.00  0.00    -0.187 C  
BRANCH  15  17
HETATM   17  C   UNL     1     -10.066   9.291  66.645  1.00  0.00    -0.341 C  
BRANCH  17  18
HETATM   18  C   UNL     1     -10.526   8.368  67.752  1.00  0.00    -0.284 A  
HETATM   19  C   UNL     1     -10.841   8.899  69.007  1.00  0.00    -0.071 A  
HETATM   20  C   UNL     1     -11.043   8.050  70.103  1.00  0.00    -0.191 A  
HETATM   21  C   UNL     1     -11.045   6.659  69.936  1.00  0.00    -0.348 A  
HETATM   22  C   UNL     1     -10.542   6.983  67.579  1.00  0.00    -0.351 A  
HETATM   23  C   UNL     1     -10.821   6.137  68.658  1.00  0.00    -0.403 A  
BRANCH  20  24
HETATM   24  S   UNL     1     -11.173   8.717  71.744  1.00  0.00    -0.362 S  
HETATM   25  O   UNL     1     -11.653  10.075  71.638  1.00  0.00    -0.317 OA 
HETATM   26  N   UNL     1     -12.431   7.861  72.458  1.00  0.00    -0.566 N  
HETATM   27  O   UNL     1      -9.998   8.334  72.492  1.00  0.00    -0.266 OA 
HETATM   28  H1  UNL     1     -12.506   8.244  73.399  1.00  0.00     0.000 HD 
HETATM   29  H2  UNL     1     -12.996   7.121  72.041  1.00  0.00     0.000 HD 
ENDBRANCH  20  24
BRANCH  21  30
HETATM   30  O   UNL     1     -11.265   5.896  71.049  1.00  0.00    -0.279 OA 
HETATM   31  C   UNL     1     -10.280   4.935  71.407  1.00  0.00    -0.187 C  
ENDBRANCH  21  30
ENDBRANCH  17  18
ENDBRANCH  15  17
ENDBRANCH  13  15
ENDBRANCH  12  13
ENDBRANCH  11  12
ENDBRANCH  10  11
ENDBRANCH   9  10
ENDBRANCH   3   4
ENDBRANCH   2   3
TORSDOF 11
ENDMDL
MODEL       62
REMARK 921   NORMALIZED FREE ENERGY PREDICTED BY IDOCK:   -5.55 KCAL/MOL
REMARK 922        TOTAL FREE ENERGY PREDICTED BY IDOCK:  -10.37 KCAL/MOL
REMARK 923 INTER-LIGAND FREE ENERGY PREDICTED BY IDOCK:   -8.50 KCAL/MOL
REMARK 924 INTRA-LIGAND FREE ENERGY PREDICTED BY IDOCK:   -1.86 KCAL/MOL
REMARK 927      BINDING AFFINITY PREDICTED BY RF-SCORE:    0.00 PKD
ROOT
HETATM    1  C   UNL     1     -12.712  12.079  63.151  1.00  0.00    -0.286 C  
HETATM    2  C   UNL     1     -11.207  11.949  63.328  1.00  0.00    -0.294 C  
ENDROOT
BRANCH   2   3
HETATM    3  O   UNL     1     -11.002  11.663  64.707  1.00  0.00    -0.302 OA 
BRANCH   3   4
HETATM    4  C   UNL     1     -10.256  12.491  65.490  1.00  0.00    -0.275 A  
HETATM    5  C   UNL     1     -10.364  13.888  65.451  1.00  0.00    -0.364 A  
HETATM    6  C   UNL     1      -9.554  14.693  66.257  1.00  0.00    -0.333 A  
HETATM    7  C   UNL     1      -8.625  14.109  67.115  1.00  0.00    -0.230 A  
HETATM    8  C   UNL     1      -8.518  12.720  67.172  1.00  0.00    -0.181 A  
HETATM    9  C   UNL     1      -9.329  11.899  66.372  1.00  0.00    -0.226 A  
BRANCH   9  10
HETATM   10  O   UNL     1      -9.084  10.561  66.581  1.00  0.00    -0.152 OA 
BRANCH  10  11
HETATM   11  C   UNL     1      -9.182  10.060  67.913  1.00  0.00    -0.137 C  
BRANCH  11  12
HETATM   12  C   UNL     1      -9.904   8.706  67.904  1.00  0.00    -0.173 C  
BRANCH  12  13
HETATM   13  N   UNL     1     -11.017   8.574  68.858  1.00  0.00    -0.429 NA 
HETATM   14  H   UNL     1     -11.201   7.588  69.045  1.00  0.00     0.000 HD 
BRANCH  13  15
HETATM   15  C   UNL     1     -10.856   9.307  70.129  1.00  0.00    -0.242 C  
HETATM   16  C   UNL     1     -10.400   8.286  71.183  1.00  0.00    -0.247 C  
BRANCH  15  17
HETATM   17  C   UNL     1     -12.142  10.052  70.587  1.00  0.00    -0.381 C  
BRANCH  17  18
HETATM   18  C   UNL     1     -12.081  11.528  70.263  1.00  0.00    -0.444 A  
HETATM   19  C   UNL     1     -12.320  12.467  71.273  1.00  0.00    -0.154 A  
HETATM   20  C   UNL     1     -12.499  13.819  70.953  1.00  0.00    -0.377 A  
HETATM   21  C   UNL     1     -12.328  14.269  69.637  1.00  0.00    -0.266 A  
HETATM   22  C   UNL     1     -11.896  11.975  68.954  1.00  0.00    -0.356 A  
HETATM   23  C   UNL     1     -11.997  13.337  68.648  1.00  0.00    -0.345 A  
BRANCH  20  24
HETATM   24  S   UNL     1     -13.068  14.966  72.184  1.00  0.00    -0.378 S  
HETATM   25  O   UNL     1     -12.077  16.007  72.319  1.00  0.00    -0.443 OA 
HETATM   26  N   UNL     1     -14.401  15.716  71.488  1.00  0.00    -0.528 N  
HETATM   27  O   UNL     1     -13.608  14.218  73.296  1.00  0.00    -0.483 OA 
HETATM   28  H1  UNL     1     -14.728  16.375  72.195  1.00  0.00     0.000 HD 
HETATM   29  H2  UNL     1     -14.797  15.551  70.563  1.00  0.00     0.000 HD 
ENDBRANCH  20  24
BRANCH  21  30
HETATM   30  O   UNL     1     -12.502  15.605  69.405  1.00  0.00    -0.188 OA 
HETATM   31  C   UNL     1     -11.436  16.323  68.799  1.00  0.00    -0.289 C  
ENDBRANCH  21  30
ENDBRANCH  17  18
ENDBRANCH  15  17
ENDBRANCH  13  15
ENDBRANCH  12  13
ENDBRANCH  11  12
ENDBRANCH  10  11
ENDBRANCH   9  10
ENDBRANCH   3   4
ENDBRANCH   2   3
TORSDOF 11
ENDMDL
MODEL       63
REMARK 921   NORMALIZED FREE ENERGY PREDICTED BY IDOCK:   -5.54 KCAL/MOL
REMARK 922        TOTAL FREE ENERGY PREDICTED BY IDOCK:  -10.35 KCAL/MOL
REMARK 923 INTER-LIGAND FREE ENERGY PREDICTED BY IDOCK:   -8.93 KCAL/MOL
REMARK 924 INTRA-LIGAND FREE ENERGY PREDICTED BY IDOCK:   -1.41 KCAL/MOL
REMARK 927      BINDING AFFINITY PREDICTED BY RF-SCORE:    0.00 PKD
ROOT
HETATM    1  C   UNL     1     -10.637  12.616  66.568  1.00  0.00    -0.272 C  
HETATM    2  C   UNL     1     -11.672  12.652  67.682  1.00  0.00    -0.361 C  
ENDROOT
BRANCH   2   3
HETATM    3  O   UNL     1     -12.044  11.299  67.911  1.00  0.00    -0.634 OA 
BRANCH   3   4
HETATM    4  C   UNL     1     -11.464  10.573  68.907  1.00  0.00    -0.226 A  
HETATM    5  C   UNL     1     -10.375   9.714  68.698  1.00  0.00    -0.226 A  
HETATM    6  C   UNL     1      -9.835   8.972  69.751  1.00  0.00    -0.188 A  
HETATM    7  C   UNL     1     -10.376   9.080  71.030  1.00  0.00    -0.348 A  
HETATM    8  C   UNL     1     -11.450   9.940  71.253  1.00  0.00    -0.435 A  
HETATM    9  C   UNL     1     -12.000  10.697  70.205  1.00  0.00    -0.339 A  
BRANCH   9  10
HETATM   10  O   UNL     1     -13.041  11.493  70.626  1.00  0.00    -0.036 OA 
BRANCH  10  11
HETATM   11  C   UNL     1     -13.153  11.770  72.021  1.00  0.00    -0.331 C  
BRANCH  11  12
HETATM   12  C   UNL     1     -13.438  13.263  72.230  1.00  0.00    -0.582 C  
BRANCH  12  13
HETATM   13  N   UNL     1     -13.359  14.099  71.022  1.00  0.00    -0.279 NA 
HETATM   14  H   UNL     1     -14.199  14.672  70.938  1.00  0.00     0.000 HD 
BRANCH  13  15
HETATM   15  C   UNL     1     -12.157  14.948  70.914  1.00  0.00    -0.317 C  
HETATM   16  C   UNL     1     -12.139  15.863  72.149  1.00  0.00    -0.596 C  
BRANCH  15  17
HETATM   17  C   UNL     1     -12.094  15.777  69.599  1.00  0.00    -0.282 C  
BRANCH  17  18
HETATM   18  C   UNL     1     -10.691  16.257  69.305  1.00  0.00    -0.307 A  
HETATM   19  C   UNL     1     -10.503  17.445  68.590  1.00  0.00    -0.355 A  
HETATM   20  C   UNL     1      -9.233  17.786  68.107  1.00  0.00    -0.277 A  
HETATM   21  C   UNL     1      -8.114  17.005  68.429  1.00  0.00    -0.245 A  
HETATM   22  C   UNL     1      -9.577  15.486  69.640  1.00  0.00    -0.264 A  
HETATM   23  C   UNL     1      -8.297  15.869  69.224  1.00  0.00    -0.238 A  
BRANCH  20  24
HETATM   24  S   UNL     1      -9.036  19.141  66.975  1.00  0.00    -0.309 S  
HETATM   25  O   UNL     1     -10.244  19.931  67.010  1.00  0.00    -0.402 OA 
HETATM   26  N   UNL     1      -7.855  20.114  67.671  1.00  0.00    -0.301 N  
HETATM   27  O   UNL     1      -8.433  18.643  65.761  1.00  0.00    -0.446 OA 
HETATM   28  H1  UNL     1      -7.742  20.891  67.021  1.00  0.00     0.000 HD 
HETATM   29  H2  UNL     1      -7.360  19.960  68.549  1.00  0.00     0.000 HD 
ENDBRANCH  20  24
BRANCH  21  30
HETATM   30  O   UNL     1      -6.906  17.411  67.935  1.00  0.00    -0.171 OA 
HETATM   31  C   UNL     1      -6.080  16.440  67.307  1.00  0.00    -0.166 C  
ENDBRANCH  21  30
ENDBRANCH  17  18
ENDBRANCH  15  17
ENDBRANCH  13  15
ENDBRANCH  12  13
ENDBRANCH  11  12
ENDBRANCH  10  11
ENDBRANCH   9  10
ENDBRANCH   3   4
ENDBRANCH   2   3
TORSDOF 11
ENDMDL
MODEL       64
REMARK 921   NORMALIZED FREE ENERGY PREDICTED BY IDOCK:   -5.51 KCAL/MOL
REMARK 922        TOTAL FREE ENERGY PREDICTED BY IDOCK:  -10.30 KCAL/MOL
REMARK 923 INTER-LIGAND FREE ENERGY PREDICTED BY IDOCK:   -9.53 KCAL/MOL
REMARK 924 INTRA-LIGAND FREE ENERGY PREDICTED BY IDOCK:   -0.77 KCAL/MOL
REMARK 927      BINDING AFFINITY PREDICTED BY RF-SCORE:    0.00 PKD
ROOT
HETATM    1  C   UNL     1     -11.089  11.494  63.679  1.00  0.00    -0.469 C  
HETATM    2  C   UNL     1     -12.502  12.009  63.456  1.00  0.00    -0.540 C  
ENDROOT
BRANCH   2   3
HETATM    3  O   UNL     1     -12.918  12.554  64.703  1.00  0.00    -0.803 OA 
BRANCH   3   4
HETATM    4  C   UNL     1     -12.224  13.568  65.289  1.00  0.00    -0.441 A  
HETATM    5  C   UNL     1     -11.894  14.758  64.626  1.00  0.00    -0.442 A  
HETATM    6  C   UNL     1     -11.155  15.757  65.266  1.00  0.00    -0.280 A  
HETATM    7  C   UNL     1     -10.738  15.577  66.583  1.00  0.00    -0.306 A  
HETATM    8  C   UNL     1     -11.070  14.404  67.258  1.00  0.00    -0.318 A  
HETATM    9  C   UNL     1     -11.816  13.395  66.629  1.00  0.00    -0.395 A  
BRANCH   9  10
HETATM   10  O   UNL     1     -12.053  12.325  67.460  1.00  0.00    -0.514 OA 
BRANCH  10  11
HETATM   11  C   UNL     1     -10.984  11.866  68.287  1.00  0.00    -0.230 C  
BRANCH  11  12
HETATM   12  C   UNL     1     -11.431  10.623  69.068  1.00  0.00    -0.274 C  
BRANCH  12  13
HETATM   13  N   UNL     1     -11.450  10.767  70.532  1.00  0.00    -0.394 NA 
HETATM   14  H   UNL     1     -10.970  11.626  70.804  1.00  0.00     0.000 HD 
BRANCH  13  15
HETATM   15  C   UNL     1     -12.784  10.714  71.160  1.00  0.00    -0.422 C  
HETATM   16  C   UNL     1     -13.048  12.098  71.774  1.00  0.00    -0.457 C  
BRANCH  15  17
HETATM   17  C   UNL     1     -12.928   9.590  72.225  1.00  0.00    -0.466 C  
BRANCH  17  18
HETATM   18  C   UNL     1     -12.041   8.405  71.914  1.00  0.00    -0.398 A  
HETATM   19  C   UNL     1     -10.831   8.250  72.599  1.00  0.00    -0.381 A  
HETATM   20  C   UNL     1      -9.893   7.302  72.170  1.00  0.00    -0.160 A  
HETATM   21  C   UNL     1     -10.196   6.420  71.124  1.00  0.00    -0.191 A  
HETATM   22  C   UNL     1     -12.353   7.519  70.882  1.00  0.00    -0.198 A  
HETATM   23  C   UNL     1     -11.447   6.521  70.505  1.00  0.00    -0.448 A  
BRANCH  20  24
HETATM   24  S   UNL     1      -8.255   7.284  72.859  1.00  0.00    -0.110 S  
HETATM   25  O   UNL     1      -7.994   5.954  73.357  1.00  0.00    -0.108 OA 
HETATM   26  N   UNL     1      -7.232   7.467  71.538  1.00  0.00    -0.070 N  
HETATM   27  O   UNL     1      -8.069   8.487  73.636  1.00  0.00    -0.381 OA 
HETATM   28  H1  UNL     1      -6.292   7.456  71.933  1.00  0.00     0.000 HD 
HETATM   29  H2  UNL     1      -7.492   7.566  70.557  1.00  0.00     0.000 HD 
ENDBRANCH  20  24
BRANCH  21  30
HETATM   30  O   UNL     1      -9.236   5.512  70.773  1.00  0.00    -0.145 OA 
HETATM   31  C   UNL     1      -9.619   4.149  70.649  1.00  0.00    -0.194 C  
ENDBRANCH  21  30
ENDBRANCH  17  18
ENDBRANCH  15  17
ENDBRANCH  13  15
ENDBRANCH  12  13
ENDBRANCH  11  12
ENDBRANCH  10  11
ENDBRANCH   9  10
ENDBRANCH   3   4
ENDBRANCH   2   3
TORSDOF 11
ENDMDL
MODEL       65
REMARK 921   NORMALIZED FREE ENERGY PREDICTED BY IDOCK:   -5.51 KCAL/MOL
REMARK 922        TOTAL FREE ENERGY PREDICTED BY IDOCK:  -10.29 KCAL/MOL
REMARK 923 INTER-LIGAND FREE ENERGY PREDICTED BY IDOCK:   -9.37 KCAL/MOL
REMARK 924 INTRA-LIGAND FREE ENERGY PREDICTED BY IDOCK:   -0.92 KCAL/MOL
REMARK 927      BINDING AFFINITY PREDICTED BY RF-SCORE:    0.00 PKD
ROOT
HETATM    1  C   UNL     1     -11.586  14.804  65.015  1.00  0.00    -0.378 C  
HETATM    2  C   UNL     1     -10.550  15.915  65.081  1.00  0.00    -0.397 C  
ENDROOT
BRANCH   2   3
HETATM    3  O   UNL     1     -10.673  16.485  66.378  1.00  0.00    -0.261 OA 
BRANCH   3   4
HETATM    4  C   UNL     1     -10.365  17.793  66.600  1.00  0.00    -0.345 A  
HETATM    5  C   UNL     1     -10.697  18.823  65.708  1.00  0.00    -0.263 A  
HETATM    6  C   UNL     1     -10.332  20.146  65.971  1.00  0.00    -0.483 A  
HETATM    7  C   UNL     1      -9.631  20.457  67.134  1.00  0.00    -0.587 A  
HETATM    8  C   UNL     1      -9.307  19.444  68.035  1.00  0.00    -0.402 A  
HETATM    9  C   UNL     1      -9.671  18.111  67.786  1.00  0.00    -0.293 A  
BRANCH   9  10
HETATM   10  O   UNL     1      -9.275  17.264  68.795  1.00  0.00    -0.270 OA 
BRANCH  10  11
HETATM   11  C   UNL     1      -8.382  16.200  68.468  1.00  0.00    -0.195 C  
BRANCH  11  12
HETATM   12  C   UNL     1      -9.021  14.856  68.839  1.00  0.00    -0.184 C  
BRANCH  12  13
HETATM   13  N   UNL     1     -10.017  14.904  69.921  1.00  0.00    -0.458 NA 
HETATM   14  H   UNL     1     -10.032  15.835  70.341  1.00  0.00     0.000 HD 
BRANCH  13  15
HETATM   15  C   UNL     1     -11.385  14.499  69.546  1.00  0.00    -0.275 C  
HETATM   16  C   UNL     1     -12.198  15.788  69.345  1.00  0.00    -0.149 C  
BRANCH  15  17
HETATM   17  C   UNL     1     -12.065  13.561  70.584  1.00  0.00    -0.386 C  
BRANCH  17  18
HETATM   18  C   UNL     1     -11.845  12.102  70.252  1.00  0.00    -0.339 A  
HETATM   19  C   UNL     1     -12.519  11.118  70.983  1.00  0.00    -0.506 A  
HETATM   20  C   UNL     1     -12.158   9.770  70.852  1.00  0.00    -0.321 A  
HETATM   21  C   UNL     1     -11.201   9.376  69.908  1.00  0.00    -0.155 A  
HETATM   22  C   UNL     1     -10.901  11.712  69.300  1.00  0.00    -0.203 A  
HETATM   23  C   UNL     1     -10.598  10.358  69.115  1.00  0.00    -0.255 A  
BRANCH  20  24
HETATM   24  S   UNL     1     -12.816   8.553  71.967  1.00  0.00    -0.386 S  
HETATM   25  O   UNL     1     -14.011   9.097  72.568  1.00  0.00    -0.479 OA 
HETATM   26  N   UNL     1     -13.351   7.307  70.975  1.00  0.00    -0.587 N  
HETATM   27  O   UNL     1     -11.724   7.980  72.720  1.00  0.00    -0.396 OA 
HETATM   28  H1  UNL     1     -13.729   6.608  71.615  1.00  0.00     0.000 HD 
HETATM   29  H2  UNL     1     -13.309   7.259  69.957  1.00  0.00     0.000 HD 
ENDBRANCH  20  24
BRANCH  21  30
HETATM   30  O   UNL     1     -10.915   8.042  69.828  1.00  0.00    -0.227 OA 
HETATM   31  C   UNL     1     -10.209   7.576  68.685  1.00  0.00    -0.197 C  
ENDBRANCH  21  30
ENDBRANCH  17  18
ENDBRANCH  15  17
ENDBRANCH  13  15
ENDBRANCH  12  13
ENDBRANCH  11  12
ENDBRANCH  10  11
ENDBRANCH   9  10
ENDBRANCH   3   4
ENDBRANCH   2   3
TORSDOF 11
ENDMDL
MODEL       66
REMARK 921   NORMALIZED FREE ENERGY PREDICTED BY IDOCK:   -5.49 KCAL/MOL
REMARK 922        TOTAL FREE ENERGY PREDICTED BY IDOCK:  -10.26 KCAL/MOL
REMARK 923 INTER-LIGAND FREE ENERGY PREDICTED BY IDOCK:   -9.34 KCAL/MOL
REMARK 924 INTRA-LIGAND FREE ENERGY PREDICTED BY IDOCK:   -0.92 KCAL/MOL
REMARK 927      BINDING AFFINITY PREDICTED BY RF-SCORE:    0.00 PKD
ROOT
HETATM    1  C   UNL     1     -13.462  13.259  72.130  1.00  0.00    -0.655 C  
HETATM    2  C   UNL     1     -13.153  11.993  71.346  1.00  0.00    -0.197 C  
ENDROOT
BRANCH   2   3
HETATM    3  O   UNL     1     -13.111  10.943  72.305  1.00  0.00    -0.376 OA 
BRANCH   3   4
HETATM    4  C   UNL     1     -13.125   9.638  71.915  1.00  0.00    -0.436 A  
HETATM    5  C   UNL     1     -14.251   8.812  72.035  1.00  0.00    -0.493 A  
HETATM    6  C   UNL     1     -14.203   7.472  71.644  1.00  0.00    -0.592 A  
HETATM    7  C   UNL     1     -13.025   6.939  71.125  1.00  0.00    -0.248 A  
HETATM    8  C   UNL     1     -11.902   7.754  70.988  1.00  0.00    -0.290 A  
HETATM    9  C   UNL     1     -11.938   9.104  71.372  1.00  0.00    -0.339 A  
BRANCH   9  10
HETATM   10  O   UNL     1     -10.739   9.742  71.148  1.00  0.00    -0.324 OA 
BRANCH  10  11
HETATM   11  C   UNL     1     -10.125   9.588  69.869  1.00  0.00    -0.232 C  
BRANCH  11  12
HETATM   12  C   UNL     1     -10.605  10.699  68.927  1.00  0.00    -0.212 C  
BRANCH  12  13
HETATM   13  N   UNL     1      -9.676  11.827  68.751  1.00  0.00    -0.384 NA 
HETATM   14  H   UNL     1      -8.978  11.596  68.044  1.00  0.00     0.000 HD 
BRANCH  13  15
HETATM   15  C   UNL     1     -10.303  13.125  68.436  1.00  0.00    -0.253 C  
HETATM   16  C   UNL     1     -11.765  12.839  68.058  1.00  0.00    -0.405 C  
BRANCH  15  17
HETATM   17  C   UNL     1      -9.575  13.914  67.311  1.00  0.00    -0.243 C  
BRANCH  17  18
HETATM   18  C   UNL     1      -9.209  15.313  67.753  1.00  0.00    -0.187 A  
HETATM   19  C   UNL     1      -9.744  16.414  67.074  1.00  0.00    -0.253 A  
HETATM   20  C   UNL     1      -9.244  17.701  67.311  1.00  0.00    -0.241 A  
HETATM   21  C   UNL     1      -8.285  17.921  68.309  1.00  0.00    -0.290 A  
HETATM   22  C   UNL     1      -8.265  15.531  68.757  1.00  0.00    -0.177 A  
HETATM   23  C   UNL     1      -7.823  16.826  69.047  1.00  0.00    -0.201 A  
BRANCH  20  24
HETATM   24  S   UNL     1      -9.723  19.056  66.267  1.00  0.00    -0.319 S  
HETATM   25  O   UNL     1     -10.818  18.615  65.436  1.00  0.00    -0.569 OA 
HETATM   26  N   UNL     1     -10.393  20.188  67.313  1.00  0.00    -0.392 N  
HETATM   27  O   UNL     1      -8.529  19.689  65.757  1.00  0.00    -0.401 OA 
HETATM   28  H1  UNL     1     -10.668  20.966  66.714  1.00  0.00     0.000 HD 
HETATM   29  H2  UNL     1     -10.502  20.114  68.324  1.00  0.00     0.000 HD 
ENDBRANCH  20  24
BRANCH  21  30
HETATM   30  O   UNL     1      -7.858  19.207  68.492  1.00  0.00    -0.317 OA 
HETATM   31  C   UNL     1      -6.577  19.409  69.074  1.00  0.00    -0.312 C  
ENDBRANCH  21  30
ENDBRANCH  17  18
ENDBRANCH  15  17
ENDBRANCH  13  15
ENDBRANCH  12  13
ENDBRANCH  11  12
ENDBRANCH  10  11
ENDBRANCH   9  10
ENDBRANCH   3   4
ENDBRANCH   2   3
TORSDOF 11
ENDMDL
MODEL       67
REMARK 921   NORMALIZED FREE ENERGY PREDICTED BY IDOCK:   -5.48 KCAL/MOL
REMARK 922        TOTAL FREE ENERGY PREDICTED BY IDOCK:  -10.25 KCAL/MOL
REMARK 923 INTER-LIGAND FREE ENERGY PREDICTED BY IDOCK:   -8.77 KCAL/MOL
REMARK 924 INTRA-LIGAND FREE ENERGY PREDICTED BY IDOCK:   -1.48 KCAL/MOL
REMARK 927      BINDING AFFINITY PREDICTED BY RF-SCORE:    0.00 PKD
ROOT
HETATM    1  C   UNL     1      -7.372  14.720  69.259  1.00  0.00    -0.168 C  
HETATM    2  C   UNL     1      -8.571  15.616  69.533  1.00  0.00    -0.191 C  
ENDROOT
BRANCH   2   3
HETATM    3  O   UNL     1      -9.153  15.884  68.263  1.00  0.00    -0.181 OA 
BRANCH   3   4
HETATM    4  C   UNL     1      -9.536  17.145  67.921  1.00  0.00    -0.266 A  
HETATM    5  C   UNL     1      -9.654  18.190  68.849  1.00  0.00    -0.247 A  
HETATM    6  C   UNL     1     -10.078  19.460  68.449  1.00  0.00    -0.538 A  
HETATM    7  C   UNL     1     -10.391  19.702  67.113  1.00  0.00    -0.581 A  
HETATM    8  C   UNL     1     -10.266  18.674  66.179  1.00  0.00    -0.450 A  
HETATM    9  C   UNL     1      -9.835  17.395  66.566  1.00  0.00    -0.304 A  
BRANCH   9  10
HETATM   10  O   UNL     1      -9.763  16.525  65.502  1.00  0.00    -0.524 OA 
BRANCH  10  11
HETATM   11  C   UNL     1     -10.893  15.695  65.236  1.00  0.00    -0.406 C  
BRANCH  11  12
HETATM   12  C   UNL     1     -10.448  14.229  65.145  1.00  0.00    -0.411 C  
BRANCH  12  13
HETATM   13  N   UNL     1      -9.911  13.652  66.388  1.00  0.00    -0.290 NA 
HETATM   14  H   UNL     1     -10.009  14.319  67.154  1.00  0.00     0.000 HD 
BRANCH  13  15
HETATM   15  C   UNL     1     -10.477  12.347  66.780  1.00  0.00    -0.221 C  
HETATM   16  C   UNL     1     -11.758  12.146  65.955  1.00  0.00    -0.388 C  
BRANCH  15  17
HETATM   17  C   UNL     1     -10.764  12.224  68.303  1.00  0.00    -0.244 C  
BRANCH  17  18
HETATM   18  C   UNL     1     -10.810  10.779  68.751  1.00  0.00    -0.262 A  
HETATM   19  C   UNL     1     -11.785  10.371  69.667  1.00  0.00    -0.283 A  
HETATM   20  C   UNL     1     -11.705   9.108  70.268  1.00  0.00    -0.017 A  
HETATM   21  C   UNL     1     -10.717   8.194  69.878  1.00  0.00    -0.241 A  
HETATM   22  C   UNL     1      -9.834   9.866  68.349  1.00  0.00    -0.166 A  
HETATM   23  C   UNL     1      -9.802   8.577  68.892  1.00  0.00    -0.181 A  
BRANCH  20  24
HETATM   24  S   UNL     1     -12.774   8.690  71.624  1.00  0.00    -0.350 S  
HETATM   25  O   UNL     1     -13.566   7.548  71.234  1.00  0.00    -0.331 OA 
HETATM   26  N   UNL     1     -11.743   8.120  72.824  1.00  0.00    -0.522 N  
HETATM   27  O   UNL     1     -13.329   9.908  72.167  1.00  0.00    -0.438 OA 
HETATM   28  H1  UNL     1     -12.356   7.880  73.602  1.00  0.00     0.000 HD 
HETATM   29  H2  UNL     1     -10.728   8.033  72.783  1.00  0.00     0.000 HD 
ENDBRANCH  20  24
BRANCH  21  30
HETATM   30  O   UNL     1     -10.714   6.976  70.498  1.00  0.00    -0.226 OA 
HETATM   31  C   UNL     1     -10.686   5.811  69.684  1.00  0.00    -0.346 C  
ENDBRANCH  21  30
ENDBRANCH  17  18
ENDBRANCH  15  17
ENDBRANCH  13  15
ENDBRANCH  12  13
ENDBRANCH  11  12
ENDBRANCH  10  11
ENDBRANCH   9  10
ENDBRANCH   3   4
ENDBRANCH   2   3
TORSDOF 11
ENDMDL
MODEL       68
REMARK 921   NORMALIZED FREE ENERGY PREDICTED BY IDOCK:   -5.46 KCAL/MOL
REMARK 922        TOTAL FREE ENERGY PREDICTED BY IDOCK:  -10.22 KCAL/MOL
REMARK 923 INTER-LIGAND FREE ENERGY PREDICTED BY IDOCK:   -8.95 KCAL/MOL
REMARK 924 INTRA-LIGAND FREE ENERGY PREDICTED BY IDOCK:   -1.27 KCAL/MOL
REMARK 927      BINDING AFFINITY PREDICTED BY RF-SCORE:    0.00 PKD
ROOT
HETATM    1  C   UNL     1     -10.490   6.041  74.015  1.00  0.00    -0.272 C  
HETATM    2  C   UNL     1     -11.229   5.259  72.941  1.00  0.00    -0.312 C  
ENDROOT
BRANCH   2   3
HETATM    3  O   UNL     1     -11.240   6.095  71.790  1.00  0.00    -0.262 OA 
BRANCH   3   4
HETATM    4  C   UNL     1     -11.952   7.256  71.775  1.00  0.00    -0.307 A  
HETATM    5  C   UNL     1     -13.353   7.299  71.800  1.00  0.00    -0.367 A  
HETATM    6  C   UNL     1     -14.035   8.518  71.756  1.00  0.00    -0.491 A  
HETATM    7  C   UNL     1     -13.322   9.713  71.688  1.00  0.00    -0.485 A  
HETATM    8  C   UNL     1     -11.928   9.684  71.676  1.00  0.00    -0.470 A  
HETATM    9  C   UNL     1     -11.230   8.467  71.725  1.00  0.00    -0.293 A  
BRANCH   9  10
HETATM   10  O   UNL     1      -9.866   8.647  71.717  1.00  0.00    -0.238 OA 
BRANCH  10  11
HETATM   11  C   UNL     1      -9.195   8.642  70.458  1.00  0.00    -0.175 C  
BRANCH  11  12
HETATM   12  C   UNL     1      -8.743  10.066  70.108  1.00  0.00     0.010 C  
BRANCH  12  13
HETATM   13  N   UNL     1      -9.301  10.621  68.864  1.00  0.00    -0.180 NA 
HETATM   14  H   UNL     1      -8.575  10.675  68.149  1.00  0.00     0.000 HD 
BRANCH  13  15
HETATM   15  C   UNL     1     -10.484   9.919  68.329  1.00  0.00    -0.210 C  
HETATM   16  C   UNL     1     -10.089   9.357  66.954  1.00  0.00    -0.314 C  
BRANCH  15  17
HETATM   17  C   UNL     1     -11.749  10.818  68.228  1.00  0.00    -0.205 C  
BRANCH  17  18
HETATM   18  C   UNL     1     -11.447  12.255  68.589  1.00  0.00    -0.355 A  
HETATM   19  C   UNL     1     -11.868  12.760  69.824  1.00  0.00    -0.380 A  
HETATM   20  C   UNL     1     -11.807  14.135  70.083  1.00  0.00    -0.313 A  
HETATM   21  C   UNL     1     -11.222  15.010  69.158  1.00  0.00    -0.281 A  
HETATM   22  C   UNL     1     -10.850  13.121  67.672  1.00  0.00    -0.269 A  
HETATM   23  C   UNL     1     -10.719  14.484  67.964  1.00  0.00    -0.243 A  
BRANCH  20  24
HETATM   24  S   UNL     1     -12.585  14.812  71.530  1.00  0.00    -0.359 S  
HETATM   25  O   UNL     1     -13.640  15.697  71.098  1.00  0.00    -0.582 OA 
HETATM   26  N   UNL     1     -13.370  13.508  72.244  1.00  0.00    -0.503 N  
HETATM   27  O   UNL     1     -11.557  15.183  72.475  1.00  0.00    -0.421 OA 
HETATM   28  H1  UNL     1     -13.817  13.896  73.075  1.00  0.00     0.000 HD 
HETATM   29  H2  UNL     1     -13.396  12.542  71.919  1.00  0.00     0.000 HD 
ENDBRANCH  20  24
BRANCH  21  30
HETATM   30  O   UNL     1     -11.185  16.336  69.489  1.00  0.00    -0.323 OA 
HETATM   31  C   UNL     1     -10.613  17.243  68.555  1.00  0.00    -0.350 C  
ENDBRANCH  21  30
ENDBRANCH  17  18
ENDBRANCH  15  17
ENDBRANCH  13  15
ENDBRANCH  12  13
ENDBRANCH  11  12
ENDBRANCH  10  11
ENDBRANCH   9  10
ENDBRANCH   3   4
ENDBRANCH   2   3
TORSDOF 11
ENDMDL
MODEL       69
REMARK 921   NORMALIZED FREE ENERGY PREDICTED BY IDOCK:   -5.44 KCAL/MOL
REMARK 922        TOTAL FREE ENERGY PREDICTED BY IDOCK:  -10.19 KCAL/MOL
REMARK 923 INTER-LIGAND FREE ENERGY PREDICTED BY IDOCK:   -8.67 KCAL/MOL
REMARK 924 INTRA-LIGAND FREE ENERGY PREDICTED BY IDOCK:   -1.52 KCAL/MOL
REMARK 927      BINDING AFFINITY PREDICTED BY RF-SCORE:    0.00 PKD
ROOT
HETATM    1  C   UNL     1     -11.982  14.586  66.334  1.00  0.00    -0.350 C  
HETATM    2  C   UNL     1     -12.109  13.394  65.398  1.00  0.00    -0.421 C  
ENDROOT
BRANCH   2   3
HETATM    3  O   UNL     1     -12.267  12.257  66.237  1.00  0.00    -0.628 OA 
BRANCH   3   4
HETATM    4  C   UNL     1     -11.202  11.468  66.553  1.00  0.00    -0.259 A  
HETATM    5  C   UNL     1     -10.107  11.278  65.700  1.00  0.00    -0.295 A  
HETATM    6  C   UNL     1      -9.052  10.435  66.062  1.00  0.00    -0.187 A  
HETATM    7  C   UNL     1      -9.080   9.772  67.287  1.00  0.00    -0.150 A  
HETATM    8  C   UNL     1     -10.158   9.963  68.150  1.00  0.00    -0.193 A  
HETATM    9  C   UNL     1     -11.221  10.811  67.801  1.00  0.00    -0.316 A  
BRANCH   9  10
HETATM   10  O   UNL     1     -12.180  10.878  68.786  1.00  0.00    -0.518 OA 
BRANCH  10  11
HETATM   11  C   UNL     1     -11.853  11.562  69.995  1.00  0.00    -0.355 C  
BRANCH  11  12
HETATM   12  C   UNL     1     -11.796  13.073  69.735  1.00  0.00    -0.311 C  
BRANCH  12  13
HETATM   13  N   UNL     1     -12.115  13.928  70.890  1.00  0.00    -0.441 NA 
HETATM   14  H   UNL     1     -11.962  13.414  71.758  1.00  0.00     0.000 HD 
BRANCH  13  15
HETATM   15  C   UNL     1     -11.408  15.222  70.938  1.00  0.00    -0.342 C  
HETATM   16  C   UNL     1     -11.876  15.943  72.212  1.00  0.00    -0.617 C  
BRANCH  15  17
HETATM   17  C   UNL     1     -11.634  16.104  69.678  1.00  0.00    -0.244 C  
BRANCH  17  18
HETATM   18  C   UNL     1     -10.338  16.695  69.167  1.00  0.00    -0.326 A  
HETATM   19  C   UNL     1      -9.173  15.921  69.181  1.00  0.00    -0.253 A  
HETATM   20  C   UNL     1      -7.928  16.515  68.935  1.00  0.00    -0.239 A  
HETATM   21  C   UNL     1      -7.841  17.862  68.560  1.00  0.00    -0.298 A  
HETATM   22  C   UNL     1     -10.258  18.034  68.778  1.00  0.00    -0.362 A  
HETATM   23  C   UNL     1      -9.021  18.605  68.457  1.00  0.00    -0.364 A  
BRANCH  20  24
HETATM   24  S   UNL     1      -6.428  15.605  69.218  1.00  0.00    -0.156 S  
HETATM   25  O   UNL     1      -5.741  16.210  70.334  1.00  0.00    -0.175 OA 
HETATM   26  N   UNL     1      -6.936  14.103  69.777  1.00  0.00    -0.344 N  
HETATM   27  O   UNL     1      -5.808  15.331  67.943  1.00  0.00    -0.133 OA 
HETATM   28  H1  UNL     1      -6.076  13.581  69.940  1.00  0.00     0.000 HD 
HETATM   29  H2  UNL     1      -7.894  13.784  69.923  1.00  0.00     0.000 HD 
ENDBRANCH  20  24
BRANCH  21  30
HETATM   30  O   UNL     1      -6.593  18.365  68.320  1.00  0.00    -0.211 OA 
HETATM   31  C   UNL     1      -6.370  19.045  67.092  1.00  0.00    -0.187 C  
ENDBRANCH  21  30
ENDBRANCH  17  18
ENDBRANCH  15  17
ENDBRANCH  13  15
ENDBRANCH  12  13
ENDBRANCH  11  12
ENDBRANCH  10  11
ENDBRANCH   9  10
ENDBRANCH   3   4
ENDBRANCH   2   3
TORSDOF 11
ENDMDL
MODEL       70
REMARK 921   NORMALIZED FREE ENERGY PREDICTED BY IDOCK:   -5.44 KCAL/MOL
REMARK 922        TOTAL FREE ENERGY PREDICTED BY IDOCK:  -10.19 KCAL/MOL
REMARK 923 INTER-LIGAND FREE ENERGY PREDICTED BY IDOCK:   -8.81 KCAL/MOL
REMARK 924 INTRA-LIGAND FREE ENERGY PREDICTED BY IDOCK:   -1.37 KCAL/MOL
REMARK 927      BINDING AFFINITY PREDICTED BY RF-SCORE:    0.00 PKD
ROOT
HETATM    1  C   UNL     1      -9.068   2.950  67.946  1.00  0.00    -0.224 C  
HETATM    2  C   UNL     1      -8.566   4.121  67.115  1.00  0.00    -0.104 C  
ENDROOT
BRANCH   2   3
HETATM    3  O   UNL     1      -9.729   4.818  66.685  1.00  0.00    -0.156 OA 
BRANCH   3   4
HETATM    4  C   UNL     1      -9.745   6.178  66.617  1.00  0.00    -0.160 A  
HETATM    5  C   UNL     1      -8.960   6.912  65.716  1.00  0.00    -0.038 A  
HETATM    6  C   UNL     1      -8.994   8.309  65.708  1.00  0.00    -0.185 A  
HETATM    7  C   UNL     1      -9.816   8.991  66.602  1.00  0.00    -0.316 A  
HETATM    8  C   UNL     1     -10.610   8.273  67.494  1.00  0.00    -0.291 A  
HETATM    9  C   UNL     1     -10.591   6.869  67.510  1.00  0.00    -0.281 A  
BRANCH   9  10
HETATM   10  O   UNL     1     -11.450   6.346  68.448  1.00  0.00    -0.205 OA 
BRANCH  10  11
HETATM   11  C   UNL     1     -10.918   5.993  69.724  1.00  0.00    -0.401 C  
BRANCH  11  12
HETATM   12  C   UNL     1     -11.835   6.529  70.832  1.00  0.00    -0.331 C  
BRANCH  12  13
HETATM   13  N   UNL     1     -12.443   7.843  70.572  1.00  0.00    -0.363 NA 
HETATM   14  H   UNL     1     -13.457   7.785  70.673  1.00  0.00     0.000 HD 
BRANCH  13  15
HETATM   15  C   UNL     1     -11.919   8.959  71.383  1.00  0.00    -0.311 C  
HETATM   16  C   UNL     1     -11.094   8.338  72.522  1.00  0.00    -0.439 C  
BRANCH  15  17
HETATM   17  C   UNL     1     -13.025   9.901  71.938  1.00  0.00    -0.545 C  
BRANCH  17  18
HETATM   18  C   UNL     1     -12.918  11.294  71.358  1.00  0.00    -0.482 A  
HETATM   19  C   UNL     1     -12.528  11.459  70.024  1.00  0.00    -0.224 A  
HETATM   20  C   UNL     1     -12.200  12.730  69.537  1.00  0.00    -0.102 A  
HETATM   21  C   UNL     1     -12.366  13.867  70.339  1.00  0.00    -0.363 A  
HETATM   22  C   UNL     1     -13.100  12.425  72.155  1.00  0.00    -0.419 A  
HETATM   23  C   UNL     1     -12.846  13.702  71.643  1.00  0.00    -0.427 A  
BRANCH  20  24
HETATM   24  S   UNL     1     -11.447  12.912  67.938  1.00  0.00    -0.339 S  
HETATM   25  O   UNL     1     -11.795  11.755  67.146  1.00  0.00    -0.599 OA 
HETATM   26  N   UNL     1     -12.264  14.195  67.222  1.00  0.00    -0.573 N  
HETATM   27  O   UNL     1     -10.096  13.391  68.115  1.00  0.00    -0.231 OA 
HETATM   28  H1  UNL     1     -11.833  14.299  66.304  1.00  0.00     0.000 HD 
HETATM   29  H2  UNL     1     -13.024  14.748  67.618  1.00  0.00     0.000 HD 
ENDBRANCH  20  24
BRANCH  21  30
HETATM   30  O   UNL     1     -12.040  15.075  69.788  1.00  0.00    -0.304 OA 
HETATM   31  C   UNL     1     -11.297  15.993  70.579  1.00  0.00    -0.401 C  
ENDBRANCH  21  30
ENDBRANCH  17  18
ENDBRANCH  15  17
ENDBRANCH  13  15
ENDBRANCH  12  13
ENDBRANCH  11  12
ENDBRANCH  10  11
ENDBRANCH   9  10
ENDBRANCH   3   4
ENDBRANCH   2   3
TORSDOF 11
ENDMDL
MODEL       71
REMARK 921   NORMALIZED FREE ENERGY PREDICTED BY IDOCK:   -5.44 KCAL/MOL
REMARK 922        TOTAL FREE ENERGY PREDICTED BY IDOCK:  -10.18 KCAL/MOL
REMARK 923 INTER-LIGAND FREE ENERGY PREDICTED BY IDOCK:   -9.25 KCAL/MOL
REMARK 924 INTRA-LIGAND FREE ENERGY PREDICTED BY IDOCK:   -0.93 KCAL/MOL
REMARK 927      BINDING AFFINITY PREDICTED BY RF-SCORE:    0.00 PKD
ROOT
HETATM    1  C   UNL     1      -8.212   6.076  70.408  1.00  0.00    -0.116 C  
HETATM    2  C   UNL     1      -9.549   6.510  70.990  1.00  0.00    -0.175 C  
ENDROOT
BRANCH   2   3
HETATM    3  O   UNL     1      -9.766   7.834  70.517  1.00  0.00    -0.175 OA 
BRANCH   3   4
HETATM    4  C   UNL     1     -10.890   8.523  70.860  1.00  0.00    -0.232 A  
HETATM    5  C   UNL     1     -11.721   8.155  71.927  1.00  0.00    -0.362 A  
HETATM    6  C   UNL     1     -12.878   8.883  72.219  1.00  0.00    -0.475 A  
HETATM    7  C   UNL     1     -13.218   9.991  71.447  1.00  0.00    -0.486 A  
HETATM    8  C   UNL     1     -12.392  10.375  70.391  1.00  0.00    -0.370 A  
HETATM    9  C   UNL     1     -11.224   9.656  70.090  1.00  0.00    -0.256 A  
BRANCH   9  10
HETATM   10  O   UNL     1     -10.539  10.197  69.026  1.00  0.00    -0.199 OA 
BRANCH  10  11
HETATM   11  C   UNL     1     -11.278  10.539  67.854  1.00  0.00    -0.289 C  
BRANCH  11  12
HETATM   12  C   UNL     1     -10.345  10.538  66.636  1.00  0.00    -0.237 C  
BRANCH  12  13
HETATM   13  N   UNL     1     -10.326  11.783  65.852  1.00  0.00    -0.232 NA 
HETATM   14  H   UNL     1      -9.443  11.863  65.346  1.00  0.00     0.000 HD 
BRANCH  13  15
HETATM   15  C   UNL     1     -11.458  11.968  64.923  1.00  0.00    -0.294 C  
HETATM   16  C   UNL     1     -10.860  12.219  63.529  1.00  0.00    -0.508 C  
BRANCH  15  17
HETATM   17  C   UNL     1     -12.423  13.115  65.336  1.00  0.00    -0.535 C  
BRANCH  17  18
HETATM   18  C   UNL     1     -11.772  14.073  66.309  1.00  0.00    -0.401 A  
HETATM   19  C   UNL     1     -12.012  13.933  67.680  1.00  0.00    -0.403 A  
HETATM   20  C   UNL     1     -11.615  14.937  68.572  1.00  0.00    -0.323 A  
HETATM   21  C   UNL     1     -10.873  16.038  68.124  1.00  0.00    -0.322 A  
HETATM   22  C   UNL     1     -11.021  15.160  65.860  1.00  0.00    -0.339 A  
HETATM   23  C   UNL     1     -10.557  16.123  66.764  1.00  0.00    -0.277 A  
BRANCH  20  24
HETATM   24  S   UNL     1     -12.152  14.898  70.266  1.00  0.00    -0.350 S  
HETATM   25  O   UNL     1     -12.525  13.540  70.585  1.00  0.00    -0.346 OA 
HETATM   26  N   UNL     1     -10.762  15.194  71.164  1.00  0.00    -0.495 N  
HETATM   27  O   UNL     1     -12.996  16.045  70.508  1.00  0.00    -0.337 OA 
HETATM   28  H1  UNL     1     -11.070  15.171  72.135  1.00  0.00     0.000 HD 
HETATM   29  H2  UNL     1      -9.818  15.359  70.815  1.00  0.00     0.000 HD 
ENDBRANCH  20  24
BRANCH  21  30
HETATM   30  O   UNL     1     -10.507  16.968  69.057  1.00  0.00    -0.318 OA 
HETATM   31  C   UNL     1      -9.937  18.187  68.598  1.00  0.00    -0.395 C  
ENDBRANCH  21  30
ENDBRANCH  17  18
ENDBRANCH  15  17
ENDBRANCH  13  15
ENDBRANCH  12  13
ENDBRANCH  11  12
ENDBRANCH  10  11
ENDBRANCH   9  10
ENDBRANCH   3   4
ENDBRANCH   2   3
TORSDOF 11
ENDMDL
MODEL       72
REMARK 921   NORMALIZED FREE ENERGY PREDICTED BY IDOCK:   -5.44 KCAL/MOL
REMARK 922        TOTAL FREE ENERGY PREDICTED BY IDOCK:  -10.17 KCAL/MOL
REMARK 923 INTER-LIGAND FREE ENERGY PREDICTED BY IDOCK:   -8.93 KCAL/MOL
REMARK 924 INTRA-LIGAND FREE ENERGY PREDICTED BY IDOCK:   -1.25 KCAL/MOL
REMARK 927      BINDING AFFINITY PREDICTED BY RF-SCORE:    0.00 PKD
ROOT
HETATM    1  C   UNL     1      -7.947  10.069  63.457  1.00  0.00    -0.157 C  
HETATM    2  C   UNL     1      -9.443  10.240  63.246  1.00  0.00    -0.300 C  
ENDROOT
BRANCH   2   3
HETATM    3  O   UNL     1      -9.967  10.660  64.500  1.00  0.00    -0.296 OA 
BRANCH   3   4
HETATM    4  C   UNL     1     -10.816  11.721  64.584  1.00  0.00    -0.307 A  
HETATM    5  C   UNL     1     -11.387  12.338  63.462  1.00  0.00    -0.549 A  
HETATM    6  C   UNL     1     -12.232  13.443  63.603  1.00  0.00    -0.480 A  
HETATM    7  C   UNL     1     -12.518  13.944  64.871  1.00  0.00    -0.420 A  
HETATM    8  C   UNL     1     -11.966  13.331  65.995  1.00  0.00    -0.473 A  
HETATM    9  C   UNL     1     -11.121  12.217  65.869  1.00  0.00    -0.322 A  
BRANCH   9  10
HETATM   10  O   UNL     1     -10.690  11.748  67.088  1.00  0.00    -0.221 OA 
BRANCH  10  11
HETATM   11  C   UNL     1     -11.611  11.006  67.886  1.00  0.00    -0.226 C  
BRANCH  11  12
HETATM   12  C   UNL     1     -11.906  11.773  69.182  1.00  0.00    -0.326 C  
BRANCH  12  13
HETATM   13  N   UNL     1     -11.313  11.207  70.404  1.00  0.00    -0.473 NA 
HETATM   14  H   UNL     1     -11.341  11.895  71.157  1.00  0.00     0.000 HD 
BRANCH  13  15
HETATM   15  C   UNL     1     -11.896   9.931  70.863  1.00  0.00    -0.356 C  
HETATM   16  C   UNL     1     -13.119  10.281  71.726  1.00  0.00    -0.570 C  
BRANCH  15  17
HETATM   17  C   UNL     1     -10.895   9.032  71.643  1.00  0.00    -0.437 C  
BRANCH  17  18
HETATM   18  C   UNL     1     -10.546   7.780  70.870  1.00  0.00    -0.220 A  
HETATM   19  C   UNL     1     -10.207   7.875  69.516  1.00  0.00    -0.208 A  
HETATM   20  C   UNL     1     -10.109   6.720  68.729  1.00  0.00    -0.160 A  
HETATM   21  C   UNL     1     -10.235   5.450  69.307  1.00  0.00    -0.245 A  
HETATM   22  C   UNL     1     -10.658   6.516  71.452  1.00  0.00    -0.266 A  
HETATM   23  C   UNL     1     -10.483   5.361  70.681  1.00  0.00    -0.329 A  
BRANCH  20  24
HETATM   24  S   UNL     1      -9.948   6.847  66.964  1.00  0.00    -0.214 S  
HETATM   25  O   UNL     1      -8.704   6.221  66.582  1.00  0.00    -0.119 OA 
HETATM   26  N   UNL     1     -11.151   5.847  66.351  1.00  0.00    -0.759 N  
HETATM   27  O   UNL     1     -10.337   8.179  66.561  1.00  0.00    -0.273 OA 
HETATM   28  H1  UNL     1     -11.059   5.919  65.338  1.00  0.00     0.000 HD 
HETATM   29  H2  UNL     1     -11.825   5.289  66.875  1.00  0.00     0.000 HD 
ENDBRANCH  20  24
BRANCH  21  30
HETATM   30  O   UNL     1     -10.111   4.371  68.478  1.00  0.00    -0.056 OA 
HETATM   31  C   UNL     1      -9.292   3.290  68.905  1.00  0.00    -0.164 C  
ENDBRANCH  21  30
ENDBRANCH  17  18
ENDBRANCH  15  17
ENDBRANCH  13  15
ENDBRANCH  12  13
ENDBRANCH  11  12
ENDBRANCH  10  11
ENDBRANCH   9  10
ENDBRANCH   3   4
ENDBRANCH   2   3
TORSDOF 11
ENDMDL
MODEL       73
REMARK 921   NORMALIZED FREE ENERGY PREDICTED BY IDOCK:   -5.43 KCAL/MOL
REMARK 922        TOTAL FREE ENERGY PREDICTED BY IDOCK:  -10.17 KCAL/MOL
REMARK 923 INTER-LIGAND FREE ENERGY PREDICTED BY IDOCK:   -8.12 KCAL/MOL
REMARK 924 INTRA-LIGAND FREE ENERGY PREDICTED BY IDOCK:   -2.05 KCAL/MOL
REMARK 927      BINDING AFFINITY PREDICTED BY RF-SCORE:    0.00 PKD
ROOT
HETATM    1  C   UNL     1     -10.601   5.642  71.242  1.00  0.00    -0.321 C  
HETATM    2  C   UNL     1     -11.565   6.266  72.239  1.00  0.00    -0.309 C  
ENDROOT
BRANCH   2   3
HETATM    3  O   UNL     1     -11.042   7.556  72.531  1.00  0.00    -0.272 OA 
BRANCH   3   4
HETATM    4  C   UNL     1     -11.531   8.666  71.911  1.00  0.00    -0.348 A  
HETATM    5  C   UNL     1     -12.818   9.171  72.144  1.00  0.00    -0.486 A  
HETATM    6  C   UNL     1     -13.281  10.298  71.460  1.00  0.00    -0.484 A  
HETATM    7  C   UNL     1     -12.460  10.938  70.534  1.00  0.00    -0.438 A  
HETATM    8  C   UNL     1     -11.173  10.453  70.304  1.00  0.00    -0.395 A  
HETATM    9  C   UNL     1     -10.693   9.324  70.987  1.00  0.00    -0.316 A  
BRANCH   9  10
HETATM   10  O   UNL     1      -9.401   9.010  70.634  1.00  0.00    -0.193 OA 
BRANCH  10  11
HETATM   11  C   UNL     1      -8.747   9.838  69.673  1.00  0.00    -0.199 C  
BRANCH  11  12
HETATM   12  C   UNL     1      -7.896   8.971  68.737  1.00  0.00    -0.096 C  
BRANCH  12  13
HETATM   13  N   UNL     1      -8.411   8.822  67.367  1.00  0.00    -0.109 NA 
HETATM   14  H   UNL     1      -8.167   7.902  67.000  1.00  0.00     0.000 HD 
BRANCH  13  15
HETATM   15  C   UNL     1      -9.856   9.065  67.200  1.00  0.00    -0.203 C  
HETATM   16  C   UNL     1     -10.522   7.694  67.000  1.00  0.00    -0.419 C  
BRANCH  15  17
HETATM   17  C   UNL     1     -10.197  10.031  66.030  1.00  0.00    -0.277 C  
BRANCH  17  18
HETATM   18  C   UNL     1     -10.401  11.450  66.515  1.00  0.00    -0.277 A  
HETATM   19  C   UNL     1      -9.300  12.304  66.633  1.00  0.00    -0.228 A  
HETATM   20  C   UNL     1      -9.428  13.533  67.294  1.00  0.00    -0.230 A  
HETATM   21  C   UNL     1     -10.679  13.975  67.744  1.00  0.00    -0.243 A  
HETATM   22  C   UNL     1     -11.652  11.892  66.949  1.00  0.00    -0.358 A  
HETATM   23  C   UNL     1     -11.792  13.154  67.539  1.00  0.00    -0.409 A  
BRANCH  20  24
HETATM   24  S   UNL     1      -7.986  14.496  67.686  1.00  0.00    -0.192 S  
HETATM   25  O   UNL     1      -8.138  15.796  67.075  1.00  0.00    -0.192 OA 
HETATM   26  N   UNL     1      -8.092  14.773  69.340  1.00  0.00    -0.368 N  
HETATM   27  O   UNL     1      -6.818  13.662  67.527  1.00  0.00    -0.169 OA 
HETATM   28  H1  UNL     1      -7.265  15.325  69.565  1.00  0.00     0.000 HD 
HETATM   29  H2  UNL     1      -8.821  14.458  69.979  1.00  0.00     0.000 HD 
ENDBRANCH  20  24
BRANCH  21  30
HETATM   30  O   UNL     1     -10.726  15.192  68.365  1.00  0.00    -0.238 OA 
HETATM   31  C   UNL     1     -11.706  15.389  69.376  1.00  0.00    -0.351 C  
ENDBRANCH  21  30
ENDBRANCH  17  18
ENDBRANCH  15  17
ENDBRANCH  13  15
ENDBRANCH  12  13
ENDBRANCH  11  12
ENDBRANCH  10  11
ENDBRANCH   9  10
ENDBRANCH   3   4
ENDBRANCH   2   3
TORSDOF 11
ENDMDL
MODEL       74
REMARK 921   NORMALIZED FREE ENERGY PREDICTED BY IDOCK:   -5.43 KCAL/MOL
REMARK 922        TOTAL FREE ENERGY PREDICTED BY IDOCK:  -10.17 KCAL/MOL
REMARK 923 INTER-LIGAND FREE ENERGY PREDICTED BY IDOCK:   -8.69 KCAL/MOL
REMARK 924 INTRA-LIGAND FREE ENERGY PREDICTED BY IDOCK:   -1.48 KCAL/MOL
REMARK 927      BINDING AFFINITY PREDICTED BY RF-SCORE:    0.00 PKD
ROOT
HETATM    1  C   UNL     1     -10.695  19.447  67.086  1.00  0.00    -0.593 C  
HETATM    2  C   UNL     1     -10.371  18.286  68.014  1.00  0.00    -0.391 C  
ENDROOT
BRANCH   2   3
HETATM    3  O   UNL     1     -10.551  17.107  67.239  1.00  0.00    -0.325 OA 
BRANCH   3   4
HETATM    4  C   UNL     1     -11.046  15.970  67.802  1.00  0.00    -0.273 A  
HETATM    5  C   UNL     1     -11.370  15.862  69.161  1.00  0.00    -0.366 A  
HETATM    6  C   UNL     1     -11.849  14.662  69.693  1.00  0.00    -0.367 A  
HETATM    7  C   UNL     1     -12.012  13.551  68.868  1.00  0.00    -0.378 A  
HETATM    8  C   UNL     1     -11.706  13.649  67.512  1.00  0.00    -0.406 A  
HETATM    9  C   UNL     1     -11.229  14.850  66.963  1.00  0.00    -0.344 A  
BRANCH   9  10
HETATM   10  O   UNL     1     -10.998  14.751  65.610  1.00  0.00    -0.319 OA 
BRANCH  10  11
HETATM   11  C   UNL     1     -11.939  14.027  64.819  1.00  0.00    -0.417 C  
BRANCH  11  12
HETATM   12  C   UNL     1     -11.200  13.019  63.929  1.00  0.00    -0.389 C  
BRANCH  12  13
HETATM   13  N   UNL     1      -9.797  12.761  64.294  1.00  0.00    -0.606 NA 
HETATM   14  H   UNL     1      -9.510  13.390  65.044  1.00  0.00     0.000 HD 
BRANCH  13  15
HETATM   15  C   UNL     1      -9.481  11.366  64.656  1.00  0.00    -0.148 C  
HETATM   16  C   UNL     1      -9.091  10.642  63.358  1.00  0.00    -0.253 C  
BRANCH  15  17
HETATM   17  C   UNL     1     -10.642  10.631  65.383  1.00  0.00    -0.185 C  
BRANCH  17  18
HETATM   18  C   UNL     1     -10.191  10.027  66.694  1.00  0.00    -0.288 A  
HETATM   19  C   UNL     1     -10.381   8.660  66.927  1.00  0.00    -0.355 A  
HETATM   20  C   UNL     1     -10.187   8.129  68.209  1.00  0.00    -0.206 A  
HETATM   21  C   UNL     1      -9.691   8.930  69.246  1.00  0.00    -0.165 A  
HETATM   22  C   UNL     1      -9.682  10.824  67.721  1.00  0.00    -0.179 A  
HETATM   23  C   UNL     1      -9.415  10.275  68.980  1.00  0.00    -0.206 A  
BRANCH  20  24
HETATM   24  S   UNL     1     -10.686   6.463  68.574  1.00  0.00    -0.313 S  
HETATM   25  O   UNL     1     -10.875   5.768  67.323  1.00  0.00    -0.272 OA 
HETATM   26  N   UNL     1      -9.331   5.753  69.271  1.00  0.00    -0.123 N  
HETATM   27  O   UNL     1     -11.668   6.498  69.633  1.00  0.00    -0.357 OA 
HETATM   28  H1  UNL     1      -9.617   4.797  69.481  1.00  0.00     0.000 HD 
HETATM   29  H2  UNL     1      -8.423   6.182  69.446  1.00  0.00     0.000 HD 
ENDBRANCH  20  24
BRANCH  21  30
HETATM   30  O   UNL     1      -9.513   8.335  70.464  1.00  0.00    -0.163 OA 
HETATM   31  C   UNL     1     -10.292   8.803  71.557  1.00  0.00    -0.303 C  
ENDBRANCH  21  30
ENDBRANCH  17  18
ENDBRANCH  15  17
ENDBRANCH  13  15
ENDBRANCH  12  13
ENDBRANCH  11  12
ENDBRANCH  10  11
ENDBRANCH   9  10
ENDBRANCH   3   4
ENDBRANCH   2   3
TORSDOF 11
ENDMDL
MODEL       75
REMARK 921   NORMALIZED FREE ENERGY PREDICTED BY IDOCK:   -5.43 KCAL/MOL
REMARK 922        TOTAL FREE ENERGY PREDICTED BY IDOCK:  -10.16 KCAL/MOL
REMARK 923 INTER-LIGAND FREE ENERGY PREDICTED BY IDOCK:   -8.69 KCAL/MOL
REMARK 924 INTRA-LIGAND FREE ENERGY PREDICTED BY IDOCK:   -1.47 KCAL/MOL
REMARK 927      BINDING AFFINITY PREDICTED BY RF-SCORE:    0.00 PKD
ROOT
HETATM    1  C   UNL     1     -10.640  19.409  67.338  1.00  0.00    -0.603 C  
HETATM    2  C   UNL     1     -10.209  18.184  68.129  1.00  0.00    -0.388 C  
ENDROOT
BRANCH   2   3
HETATM    3  O   UNL     1     -10.762  17.066  67.444  1.00  0.00    -0.318 OA 
BRANCH   3   4
HETATM    4  C   UNL     1     -11.197  15.972  68.128  1.00  0.00    -0.325 A  
HETATM    5  C   UNL     1     -11.349  15.947  69.522  1.00  0.00    -0.335 A  
HETATM    6  C   UNL     1     -11.773  14.788  70.177  1.00  0.00    -0.352 A  
HETATM    7  C   UNL     1     -12.054  13.637  69.445  1.00  0.00    -0.364 A  
HETATM    8  C   UNL     1     -11.920  13.653  68.058  1.00  0.00    -0.385 A  
HETATM    9  C   UNL     1     -11.500  14.812  67.386  1.00  0.00    -0.363 A  
BRANCH   9  10
HETATM   10  O   UNL     1     -11.442  14.633  66.022  1.00  0.00    -0.340 OA 
BRANCH  10  11
HETATM   11  C   UNL     1     -11.849  13.372  65.493  1.00  0.00    -0.363 C  
BRANCH  11  12
HETATM   12  C   UNL     1     -10.755  12.824  64.567  1.00  0.00    -0.358 C  
BRANCH  12  13
HETATM   13  N   UNL     1      -9.450  12.579  65.202  1.00  0.00    -0.443 NA 
HETATM   14  H   UNL     1      -9.106  13.437  65.634  1.00  0.00     0.000 HD 
BRANCH  13  15
HETATM   15  C   UNL     1      -9.415  11.473  66.178  1.00  0.00    -0.220 C  
HETATM   16  C   UNL     1      -7.939  11.232  66.532  1.00  0.00    -0.145 C  
BRANCH  15  17
HETATM   17  C   UNL     1     -10.091  10.169  65.668  1.00  0.00    -0.324 C  
BRANCH  17  18
HETATM   18  C   UNL     1     -10.200   9.129  66.761  1.00  0.00    -0.331 A  
HETATM   19  C   UNL     1     -10.750   9.482  67.998  1.00  0.00    -0.266 A  
HETATM   20  C   UNL     1     -10.649   8.611  69.091  1.00  0.00    -0.178 A  
HETATM   21  C   UNL     1     -10.100   7.331  68.935  1.00  0.00    -0.180 A  
HETATM   22  C   UNL     1      -9.666   7.849  66.598  1.00  0.00    -0.305 A  
HETATM   23  C   UNL     1      -9.637   6.951  67.671  1.00  0.00    -0.143 A  
BRANCH  20  24
HETATM   24  S   UNL     1     -11.098   9.158  70.720  1.00  0.00    -0.297 S  
HETATM   25  O   UNL     1     -11.937  10.326  70.584  1.00  0.00    -0.291 OA 
HETATM   26  N   UNL     1     -12.111   7.956  71.313  1.00  0.00    -0.299 N  
HETATM   27  O   UNL     1      -9.927   9.101  71.565  1.00  0.00    -0.312 OA 
HETATM   28  H1  UNL     1     -12.369   8.270  72.248  1.00  0.00     0.000 HD 
HETATM   29  H2  UNL     1     -12.404   7.100  70.842  1.00  0.00     0.000 HD 
ENDBRANCH  20  24
BRANCH  21  30
HETATM   30  O   UNL     1     -10.050   6.533  70.043  1.00  0.00    -0.170 OA 
HETATM   31  C   UNL     1     -10.270   5.138  69.873  1.00  0.00    -0.291 C  
ENDBRANCH  21  30
ENDBRANCH  17  18
ENDBRANCH  15  17
ENDBRANCH  13  15
ENDBRANCH  12  13
ENDBRANCH  11  12
ENDBRANCH  10  11
ENDBRANCH   9  10
ENDBRANCH   3   4
ENDBRANCH   2   3
TORSDOF 11
ENDMDL
MODEL       76
REMARK 921   NORMALIZED FREE ENERGY PREDICTED BY IDOCK:   -5.43 KCAL/MOL
REMARK 922        TOTAL FREE ENERGY PREDICTED BY IDOCK:  -10.16 KCAL/MOL
REMARK 923 INTER-LIGAND FREE ENERGY PREDICTED BY IDOCK:   -9.09 KCAL/MOL
REMARK 924 INTRA-LIGAND FREE ENERGY PREDICTED BY IDOCK:   -1.07 KCAL/MOL
REMARK 927      BINDING AFFINITY PREDICTED BY RF-SCORE:    0.00 PKD
ROOT
HETATM    1  C   UNL     1     -11.479  15.492  64.270  1.00  0.00    -0.186 C  
HETATM    2  C   UNL     1     -11.009  15.890  65.661  1.00  0.00    -0.203 C  
ENDROOT
BRANCH   2   3
HETATM    3  O   UNL     1      -9.931  16.795  65.462  1.00  0.00    -0.567 OA 
BRANCH   3   4
HETATM    4  C   UNL     1      -9.758  17.869  66.283  1.00  0.00    -0.269 A  
HETATM    5  C   UNL     1     -10.287  19.138  66.009  1.00  0.00    -0.538 A  
HETATM    6  C   UNL     1     -10.056  20.213  66.872  1.00  0.00    -0.592 A  
HETATM    7  C   UNL     1      -9.294  20.031  68.023  1.00  0.00    -0.401 A  
HETATM    8  C   UNL     1      -8.774  18.770  68.313  1.00  0.00    -0.363 A  
HETATM    9  C   UNL     1      -9.002  17.680  67.458  1.00  0.00    -0.235 A  
BRANCH   9  10
HETATM   10  O   UNL     1      -8.420  16.523  67.922  1.00  0.00    -0.177 OA 
BRANCH  10  11
HETATM   11  C   UNL     1      -8.797  16.052  69.215  1.00  0.00    -0.227 C  
BRANCH  11  12
HETATM   12  C   UNL     1     -10.318  15.864  69.273  1.00  0.00    -0.249 C  
BRANCH  12  13
HETATM   13  N   UNL     1     -10.809  14.989  70.349  1.00  0.00    -0.472 NA 
HETATM   14  H   UNL     1     -10.772  15.480  71.243  1.00  0.00     0.000 HD 
BRANCH  13  15
HETATM   15  C   UNL     1     -12.154  14.418  70.142  1.00  0.00    -0.335 C  
HETATM   16  C   UNL     1     -13.090  15.094  71.156  1.00  0.00    -0.515 C  
BRANCH  15  17
HETATM   17  C   UNL     1     -12.202  12.869  70.277  1.00  0.00    -0.362 C  
BRANCH  17  18
HETATM   18  C   UNL     1     -11.871  12.181  68.971  1.00  0.00    -0.361 A  
HETATM   19  C   UNL     1     -11.380  10.872  68.986  1.00  0.00    -0.348 A  
HETATM   20  C   UNL     1     -10.852  10.303  67.819  1.00  0.00    -0.292 A  
HETATM   21  C   UNL     1     -10.912  10.990  66.600  1.00  0.00    -0.190 A  
HETATM   22  C   UNL     1     -11.947  12.863  67.755  1.00  0.00    -0.336 A  
HETATM   23  C   UNL     1     -11.490  12.263  66.576  1.00  0.00    -0.438 A  
BRANCH  20  24
HETATM   24  S   UNL     1      -9.983   8.754  67.889  1.00  0.00    -0.198 S  
HETATM   25  O   UNL     1     -10.427   8.046  69.067  1.00  0.00    -0.218 OA 
HETATM   26  N   UNL     1     -10.580   7.868  66.592  1.00  0.00    -0.428 N  
HETATM   27  O   UNL     1      -8.595   8.989  67.565  1.00  0.00    -0.119 OA 
HETATM   28  H1  UNL     1     -10.082   6.979  66.632  1.00  0.00     0.000 HD 
HETATM   29  H2  UNL     1     -11.286   8.155  65.914  1.00  0.00     0.000 HD 
ENDBRANCH  20  24
BRANCH  21  30
HETATM   30  O   UNL     1     -10.391  10.363  65.502  1.00  0.00    -0.264 OA 
HETATM   31  C   UNL     1      -9.143  10.821  65.000  1.00  0.00    -0.203 C  
ENDBRANCH  21  30
ENDBRANCH  17  18
ENDBRANCH  15  17
ENDBRANCH  13  15
ENDBRANCH  12  13
ENDBRANCH  11  12
ENDBRANCH  10  11
ENDBRANCH   9  10
ENDBRANCH   3   4
ENDBRANCH   2   3
TORSDOF 11
ENDMDL
MODEL       77
REMARK 921   NORMALIZED FREE ENERGY PREDICTED BY IDOCK:   -5.41 KCAL/MOL
REMARK 922        TOTAL FREE ENERGY PREDICTED BY IDOCK:  -10.14 KCAL/MOL
REMARK 923 INTER-LIGAND FREE ENERGY PREDICTED BY IDOCK:   -8.72 KCAL/MOL
REMARK 924 INTRA-LIGAND FREE ENERGY PREDICTED BY IDOCK:   -1.42 KCAL/MOL
REMARK 927      BINDING AFFINITY PREDICTED BY RF-SCORE:    0.00 PKD
ROOT
HETATM    1  C   UNL     1     -11.875  13.856  69.126  1.00  0.00    -0.401 C  
HETATM    2  C   UNL     1     -12.063  13.953  67.620  1.00  0.00    -0.307 C  
ENDROOT
BRANCH   2   3
HETATM    3  O   UNL     1     -12.069  12.613  67.142  1.00  0.00    -0.466 OA 
BRANCH   3   4
HETATM    4  C   UNL     1     -11.742  12.329  65.851  1.00  0.00    -0.389 A  
HETATM    5  C   UNL     1     -12.470  12.805  64.752  1.00  0.00    -0.539 A  
HETATM    6  C   UNL     1     -12.107  12.461  63.447  1.00  0.00    -0.620 A  
HETATM    7  C   UNL     1     -11.007  11.635  63.225  1.00  0.00    -0.361 A  
HETATM    8  C   UNL     1     -10.268  11.165  64.309  1.00  0.00    -0.399 A  
HETATM    9  C   UNL     1     -10.618  11.508  65.625  1.00  0.00    -0.274 A  
BRANCH   9  10
HETATM   10  O   UNL     1      -9.762  10.959  66.552  1.00  0.00    -0.189 OA 
BRANCH  10  11
HETATM   11  C   UNL     1      -8.566  11.671  66.866  1.00  0.00    -0.174 C  
BRANCH  11  12
HETATM   12  C   UNL     1      -8.715  12.358  68.230  1.00  0.00    -0.175 C  
BRANCH  12  13
HETATM   13  N   UNL     1      -7.456  12.698  68.910  1.00  0.00    -0.284 NA 
HETATM   14  H   UNL     1      -6.771  11.955  68.768  1.00  0.00     0.000 HD 
BRANCH  13  15
HETATM   15  C   UNL     1      -6.869  14.002  68.547  1.00  0.00    -0.104 C  
HETATM   16  C   UNL     1      -5.524  13.715  67.861  1.00  0.00    -0.099 C  
BRANCH  15  17
HETATM   17  C   UNL     1      -6.689  14.964  69.756  1.00  0.00    -0.179 C  
BRANCH  17  18
HETATM   18  C   UNL     1      -7.014  16.394  69.389  1.00  0.00    -0.210 A  
HETATM   19  C   UNL     1      -8.274  16.703  68.865  1.00  0.00    -0.231 A  
HETATM   20  C   UNL     1      -8.517  17.964  68.305  1.00  0.00    -0.278 A  
HETATM   21  C   UNL     1      -7.543  18.970  68.364  1.00  0.00    -0.308 A  
HETATM   22  C   UNL     1      -6.047  17.398  69.463  1.00  0.00    -0.252 A  
HETATM   23  C   UNL     1      -6.318  18.681  68.974  1.00  0.00    -0.261 A  
BRANCH  20  24
HETATM   24  S   UNL     1     -10.014  18.272  67.399  1.00  0.00    -0.351 S  
HETATM   25  O   UNL     1     -10.979  17.265  67.775  1.00  0.00    -0.318 OA 
HETATM   26  N   UNL     1     -10.611  19.710  68.031  1.00  0.00    -0.394 N  
HETATM   27  O   UNL     1      -9.669  18.587  66.032  1.00  0.00    -0.494 OA 
HETATM   28  H1  UNL     1     -11.470  19.887  67.512  1.00  0.00     0.000 HD 
HETATM   29  H2  UNL     1     -10.204  20.281  68.772  1.00  0.00     0.000 HD 
ENDBRANCH  20  24
BRANCH  21  30
HETATM   30  O   UNL     1      -7.859  20.179  67.811  1.00  0.00    -0.292 OA 
HETATM   31  C   UNL     1      -6.798  20.991  67.325  1.00  0.00    -0.369 C  
ENDBRANCH  21  30
ENDBRANCH  17  18
ENDBRANCH  15  17
ENDBRANCH  13  15
ENDBRANCH  12  13
ENDBRANCH  11  12
ENDBRANCH  10  11
ENDBRANCH   9  10
ENDBRANCH   3   4
ENDBRANCH   2   3
TORSDOF 11
ENDMDL
MODEL       78
REMARK 921   NORMALIZED FREE ENERGY PREDICTED BY IDOCK:   -5.41 KCAL/MOL
REMARK 922        TOTAL FREE ENERGY PREDICTED BY IDOCK:  -10.13 KCAL/MOL
REMARK 923 INTER-LIGAND FREE ENERGY PREDICTED BY IDOCK:   -8.87 KCAL/MOL
REMARK 924 INTRA-LIGAND FREE ENERGY PREDICTED BY IDOCK:   -1.26 KCAL/MOL
REMARK 927      BINDING AFFINITY PREDICTED BY RF-SCORE:    0.00 PKD
ROOT
HETATM    1  C   UNL     1     -10.296  17.588  68.580  1.00  0.00    -0.369 C  
HETATM    2  C   UNL     1     -11.209  16.381  68.738  1.00  0.00    -0.313 C  
ENDROOT
BRANCH   2   3
HETATM    3  O   UNL     1     -10.933  15.851  70.029  1.00  0.00    -0.299 OA 
BRANCH   3   4
HETATM    4  C   UNL     1     -11.880  15.156  70.717  1.00  0.00    -0.324 A  
HETATM    5  C   UNL     1     -12.758  15.752  71.633  1.00  0.00    -0.515 A  
HETATM    6  C   UNL     1     -13.694  14.987  72.333  1.00  0.00    -0.585 A  
HETATM    7  C   UNL     1     -13.766  13.611  72.124  1.00  0.00    -0.649 A  
HETATM    8  C   UNL     1     -12.907  13.008  71.206  1.00  0.00    -0.370 A  
HETATM    9  C   UNL     1     -11.965  13.766  70.492  1.00  0.00    -0.296 A  
BRANCH   9  10
HETATM   10  O   UNL     1     -11.222  12.995  69.627  1.00  0.00    -0.148 OA 
BRANCH  10  11
HETATM   11  C   UNL     1     -11.909  12.292  68.593  1.00  0.00    -0.305 C  
BRANCH  11  12
HETATM   12  C   UNL     1     -11.916  13.136  67.312  1.00  0.00    -0.335 C  
BRANCH  12  13
HETATM   13  N   UNL     1     -12.024  12.379  66.054  1.00  0.00    -0.602 NA 
HETATM   14  H   UNL     1     -12.777  12.761  65.481  1.00  0.00     0.000 HD 
BRANCH  13  15
HETATM   15  C   UNL     1     -10.784  12.283  65.260  1.00  0.00    -0.292 C  
HETATM   16  C   UNL     1     -11.018  13.074  63.963  1.00  0.00    -0.422 C  
BRANCH  15  17
HETATM   17  C   UNL     1     -10.348  10.822  64.958  1.00  0.00    -0.357 C  
BRANCH  17  18
HETATM   18  C   UNL     1      -9.697  10.170  66.157  1.00  0.00    -0.275 A  
HETATM   19  C   UNL     1     -10.002   8.842  66.473  1.00  0.00    -0.360 A  
HETATM   20  C   UNL     1      -9.597   8.296  67.698  1.00  0.00    -0.152 A  
HETATM   21  C   UNL     1      -8.786   9.030  68.573  1.00  0.00    -0.133 A  
HETATM   22  C   UNL     1      -8.876  10.900  67.019  1.00  0.00    -0.141 A  
HETATM   23  C   UNL     1      -8.407  10.326  68.206  1.00  0.00    -0.116 A  
BRANCH  20  24
HETATM   24  S   UNL     1     -10.208   6.712  68.220  1.00  0.00    -0.186 S  
HETATM   25  O   UNL     1     -11.059   6.918  69.369  1.00  0.00    -0.244 OA 
HETATM   26  N   UNL     1     -11.244   6.223  66.990  1.00  0.00    -0.621 N  
HETATM   27  O   UNL     1      -9.120   5.762  68.183  1.00  0.00    -0.111 OA 
HETATM   28  H1  UNL     1     -11.595   5.315  67.290  1.00  0.00     0.000 HD 
HETATM   29  H2  UNL     1     -11.471   6.725  66.131  1.00  0.00     0.000 HD 
ENDBRANCH  20  24
BRANCH  21  30
HETATM   30  O   UNL     1      -8.418   8.424  69.741  1.00  0.00    -0.122 OA 
HETATM   31  C   UNL     1      -8.750   9.070  70.963  1.00  0.00    -0.222 C  
ENDBRANCH  21  30
ENDBRANCH  17  18
ENDBRANCH  15  17
ENDBRANCH  13  15
ENDBRANCH  12  13
ENDBRANCH  11  12
ENDBRANCH  10  11
ENDBRANCH   9  10
ENDBRANCH   3   4
ENDBRANCH   2   3
TORSDOF 11
ENDMDL
MODEL       79
REMARK 921   NORMALIZED FREE ENERGY PREDICTED BY IDOCK:   -5.38 KCAL/MOL
REMARK 922        TOTAL FREE ENERGY PREDICTED BY IDOCK:  -10.09 KCAL/MOL
REMARK 923 INTER-LIGAND FREE ENERGY PREDICTED BY IDOCK:   -9.21 KCAL/MOL
REMARK 924 INTRA-LIGAND FREE ENERGY PREDICTED BY IDOCK:   -0.88 KCAL/MOL
REMARK 927      BINDING AFFINITY PREDICTED BY RF-SCORE:    0.00 PKD
ROOT
HETATM    1  C   UNL     1     -10.939  14.380  65.055  1.00  0.00    -0.398 C  
HETATM    2  C   UNL     1     -10.342  15.777  65.135  1.00  0.00    -0.299 C  
ENDROOT
BRANCH   2   3
HETATM    3  O   UNL     1     -10.895  16.369  66.305  1.00  0.00    -0.210 OA 
BRANCH   3   4
HETATM    4  C   UNL     1     -10.481  17.593  66.732  1.00  0.00    -0.289 A  
HETATM    5  C   UNL     1     -10.528  18.743  65.931  1.00  0.00    -0.424 A  
HETATM    6  C   UNL     1     -10.064  19.971  66.409  1.00  0.00    -0.609 A  
HETATM    7  C   UNL     1      -9.547  20.066  67.699  1.00  0.00    -0.516 A  
HETATM    8  C   UNL     1      -9.506  18.932  68.510  1.00  0.00    -0.416 A  
HETATM    9  C   UNL     1      -9.974  17.693  68.044  1.00  0.00    -0.326 A  
BRANCH   9  10
HETATM   10  O   UNL     1      -9.862  16.703  68.993  1.00  0.00    -0.256 OA 
BRANCH  10  11
HETATM   11  C   UNL     1      -8.694  15.884  68.975  1.00  0.00    -0.236 C  
BRANCH  11  12
HETATM   12  C   UNL     1      -9.026  14.522  68.352  1.00  0.00    -0.186 C  
BRANCH  12  13
HETATM   13  N   UNL     1      -9.985  13.697  69.104  1.00  0.00    -0.412 NA 
HETATM   14  H   UNL     1      -9.892  13.879  70.104  1.00  0.00     0.000 HD 
BRANCH  13  15
HETATM   15  C   UNL     1     -11.396  13.829  68.695  1.00  0.00    -0.287 C  
HETATM   16  C   UNL     1     -12.173  14.337  69.920  1.00  0.00    -0.407 C  
BRANCH  15  17
HETATM   17  C   UNL     1     -12.013  12.511  68.146  1.00  0.00    -0.274 C  
BRANCH  17  18
HETATM   18  C   UNL     1     -11.630  11.317  68.991  1.00  0.00    -0.386 A  
HETATM   19  C   UNL     1     -10.935  10.252  68.408  1.00  0.00    -0.308 A  
HETATM   20  C   UNL     1     -10.777   9.047  69.104  1.00  0.00    -0.157 A  
HETATM   21  C   UNL     1     -11.209   8.927  70.432  1.00  0.00    -0.230 A  
HETATM   22  C   UNL     1     -12.049  11.207  70.318  1.00  0.00    -0.462 A  
HETATM   23  C   UNL     1     -11.820  10.029  71.039  1.00  0.00    -0.476 A  
BRANCH  20  24
HETATM   24  S   UNL     1     -10.140   7.609  68.277  1.00  0.00    -0.191 S  
HETATM   25  O   UNL     1      -8.937   7.196  68.960  1.00  0.00    -0.135 OA 
HETATM   26  N   UNL     1     -11.263   6.399  68.594  1.00  0.00    -0.539 N  
HETATM   27  O   UNL     1     -10.224   7.823  66.851  1.00  0.00    -0.260 OA 
HETATM   28  H1  UNL     1     -10.897   5.574  68.120  1.00  0.00     0.000 HD 
HETATM   29  H2  UNL     1     -12.120   6.472  69.141  1.00  0.00     0.000 HD 
ENDBRANCH  20  24
BRANCH  21  30
HETATM   30  O   UNL     1     -11.005   7.725  71.050  1.00  0.00    -0.237 OA 
HETATM   31  C   UNL     1     -11.904   7.343  72.083  1.00  0.00    -0.286 C  
ENDBRANCH  21  30
ENDBRANCH  17  18
ENDBRANCH  15  17
ENDBRANCH  13  15
ENDBRANCH  12  13
ENDBRANCH  11  12
ENDBRANCH  10  11
ENDBRANCH   9  10
ENDBRANCH   3   4
ENDBRANCH   2   3
TORSDOF 11
ENDMDL
MODEL       80
REMARK 921   NORMALIZED FREE ENERGY PREDICTED BY IDOCK:   -5.37 KCAL/MOL
REMARK 922        TOTAL FREE ENERGY PREDICTED BY IDOCK:  -10.07 KCAL/MOL
REMARK 923 INTER-LIGAND FREE ENERGY PREDICTED BY IDOCK:   -8.58 KCAL/MOL
REMARK 924 INTRA-LIGAND FREE ENERGY PREDICTED BY IDOCK:   -1.49 KCAL/MOL
REMARK 927      BINDING AFFINITY PREDICTED BY RF-SCORE:    0.00 PKD
ROOT
HETATM    1  C   UNL     1     -11.006   6.346  66.988  1.00  0.00    -0.463 C  
HETATM    2  C   UNL     1      -9.997   5.380  67.589  1.00  0.00    -0.162 C  
ENDROOT
BRANCH   2   3
HETATM    3  O   UNL     1     -10.108   5.530  69.000  1.00  0.00    -0.170 OA 
BRANCH   3   4
HETATM    4  C   UNL     1      -9.904   4.474  69.834  1.00  0.00    -0.227 A  
HETATM    5  C   UNL     1      -9.503   3.207  69.387  1.00  0.00    -0.189 A  
HETATM    6  C   UNL     1      -9.335   2.149  70.284  1.00  0.00    -0.182 A  
HETATM    7  C   UNL     1      -9.564   2.346  71.644  1.00  0.00    -0.213 A  
HETATM    8  C   UNL     1      -9.951   3.604  72.103  1.00  0.00    -0.238 A  
HETATM    9  C   UNL     1     -10.119   4.677  71.213  1.00  0.00    -0.175 A  
BRANCH   9  10
HETATM   10  O   UNL     1     -10.489   5.836  71.857  1.00  0.00    -0.207 OA 
BRANCH  10  11
HETATM   11  C   UNL     1     -11.863   6.003  72.204  1.00  0.00    -0.247 C  
BRANCH  11  12
HETATM   12  C   UNL     1     -12.406   7.286  71.563  1.00  0.00    -0.362 C  
BRANCH  12  13
HETATM   13  N   UNL     1     -11.679   7.757  70.372  1.00  0.00    -0.472 NA 
HETATM   14  H   UNL     1     -12.243   7.601  69.536  1.00  0.00     0.000 HD 
BRANCH  13  15
HETATM   15  C   UNL     1     -11.222   9.158  70.419  1.00  0.00    -0.240 C  
HETATM   16  C   UNL     1      -9.802   9.149  71.008  1.00  0.00    -0.366 C  
BRANCH  15  17
HETATM   17  C   UNL     1     -12.161  10.095  71.230  1.00  0.00    -0.496 C  
BRANCH  17  18
HETATM   18  C   UNL     1     -12.299  11.453  70.578  1.00  0.00    -0.439 A  
HETATM   19  C   UNL     1     -12.142  11.574  69.193  1.00  0.00    -0.329 A  
HETATM   20  C   UNL     1     -12.034  12.839  68.602  1.00  0.00    -0.233 A  
HETATM   21  C   UNL     1     -12.195  14.001  69.368  1.00  0.00    -0.292 A  
HETATM   22  C   UNL     1     -12.474  12.608  71.343  1.00  0.00    -0.209 A  
HETATM   23  C   UNL     1     -12.444  13.870  70.739  1.00  0.00    -0.445 A  
BRANCH  20  24
HETATM   24  S   UNL     1     -11.566  12.995  66.895  1.00  0.00    -0.385 S  
HETATM   25  O   UNL     1     -11.839  11.738  66.240  1.00  0.00    -0.501 OA 
HETATM   26  N   UNL     1     -12.673  14.079  66.244  1.00  0.00    -0.485 N  
HETATM   27  O   UNL     1     -10.297  13.682  66.826  1.00  0.00    -0.263 OA 
HETATM   28  H1  UNL     1     -12.405  14.169  65.264  1.00  0.00     0.000 HD 
HETATM   29  H2  UNL     1     -13.445  14.545  66.722  1.00  0.00     0.000 HD 
ENDBRANCH  20  24
BRANCH  21  30
HETATM   30  O   UNL     1     -12.092  15.199  68.717  1.00  0.00    -0.265 OA 
HETATM   31  C   UNL     1     -11.116  16.126  69.174  1.00  0.00    -0.329 C  
ENDBRANCH  21  30
ENDBRANCH  17  18
ENDBRANCH  15  17
ENDBRANCH  13  15
ENDBRANCH  12  13
ENDBRANCH  11  12
ENDBRANCH  10  11
ENDBRANCH   9  10
ENDBRANCH   3   4
ENDBRANCH   2   3
TORSDOF 11
ENDMDL
MODEL       81
REMARK 921   NORMALIZED FREE ENERGY PREDICTED BY IDOCK:   -5.37 KCAL/MOL
REMARK 922        TOTAL FREE ENERGY PREDICTED BY IDOCK:  -10.07 KCAL/MOL
REMARK 923 INTER-LIGAND FREE ENERGY PREDICTED BY IDOCK:   -8.07 KCAL/MOL
REMARK 924 INTRA-LIGAND FREE ENERGY PREDICTED BY IDOCK:   -2.00 KCAL/MOL
REMARK 927      BINDING AFFINITY PREDICTED BY RF-SCORE:    0.00 PKD
ROOT
HETATM    1  C   UNL     1     -10.760   6.090  71.038  1.00  0.00    -0.325 C  
HETATM    2  C   UNL     1     -11.777   6.833  71.890  1.00  0.00    -0.310 C  
ENDROOT
BRANCH   2   3
HETATM    3  O   UNL     1     -11.193   8.098  72.178  1.00  0.00    -0.280 OA 
BRANCH   3   4
HETATM    4  C   UNL     1     -11.390   9.164  71.353  1.00  0.00    -0.344 A  
HETATM    5  C   UNL     1     -12.627   9.809  71.214  1.00  0.00    -0.460 A  
HETATM    6  C   UNL     1     -12.781  10.882  70.332  1.00  0.00    -0.326 A  
HETATM    7  C   UNL     1     -11.697  11.326  69.577  1.00  0.00    -0.415 A  
HETATM    8  C   UNL     1     -10.459  10.700  69.717  1.00  0.00    -0.189 A  
HETATM    9  C   UNL     1     -10.288   9.624  70.602  1.00  0.00    -0.297 A  
BRANCH   9  10
HETATM   10  O   UNL     1      -8.995   9.153  70.607  1.00  0.00    -0.205 OA 
BRANCH  10  11
HETATM   11  C   UNL     1      -8.219   9.306  69.420  1.00  0.00    -0.114 C  
BRANCH  11  12
HETATM   12  C   UNL     1      -7.814   7.926  68.885  1.00  0.00    -0.117 C  
BRANCH  12  13
HETATM   13  N   UNL     1      -8.210   7.643  67.497  1.00  0.00    -0.120 NA 
HETATM   14  H   UNL     1      -8.522   6.675  67.414  1.00  0.00     0.000 HD 
BRANCH  13  15
HETATM   15  C   UNL     1      -9.223   8.551  66.926  1.00  0.00    -0.158 C  
HETATM   16  C   UNL     1     -10.592   7.880  67.126  1.00  0.00    -0.383 C  
BRANCH  15  17
HETATM   17  C   UNL     1      -8.980   8.895  65.429  1.00  0.00    -0.232 C  
BRANCH  17  18
HETATM   18  C   UNL     1      -9.375  10.320  65.110  1.00  0.00    -0.279 A  
HETATM   19  C   UNL     1      -9.112  11.334  66.038  1.00  0.00    -0.221 A  
HETATM   20  C   UNL     1      -9.671  12.607  65.870  1.00  0.00    -0.207 A  
HETATM   21  C   UNL     1     -10.404  12.919  64.717  1.00  0.00    -0.323 A  
HETATM   22  C   UNL     1     -10.091  10.631  63.953  1.00  0.00    -0.356 A  
HETATM   23  C   UNL     1     -10.583  11.925  63.749  1.00  0.00    -0.475 A  
BRANCH  20  24
HETATM   24  S   UNL     1      -9.569  13.812  67.172  1.00  0.00    -0.252 S  
HETATM   25  O   UNL     1      -8.588  13.355  68.128  1.00  0.00    -0.162 OA 
HETATM   26  N   UNL     1      -8.882  15.166  66.452  1.00  0.00    -0.421 N  
HETATM   27  O   UNL     1     -10.908  14.223  67.526  1.00  0.00    -0.273 OA 
HETATM   28  H1  UNL     1      -8.823  15.857  67.199  1.00  0.00     0.000 HD 
HETATM   29  H2  UNL     1      -8.588  15.274  65.481  1.00  0.00     0.000 HD 
ENDBRANCH  20  24
BRANCH  21  30
HETATM   30  O   UNL     1     -10.903  14.187  64.617  1.00  0.00    -0.403 OA 
HETATM   31  C   UNL     1     -12.260  14.342  64.223  1.00  0.00    -0.423 C  
ENDBRANCH  21  30
ENDBRANCH  17  18
ENDBRANCH  15  17
ENDBRANCH  13  15
ENDBRANCH  12  13
ENDBRANCH  11  12
ENDBRANCH  10  11
ENDBRANCH   9  10
ENDBRANCH   3   4
ENDBRANCH   2   3
TORSDOF 11
ENDMDL
MODEL       82
REMARK 921   NORMALIZED FREE ENERGY PREDICTED BY IDOCK:   -5.36 KCAL/MOL
REMARK 922        TOTAL FREE ENERGY PREDICTED BY IDOCK:  -10.05 KCAL/MOL
REMARK 923 INTER-LIGAND FREE ENERGY PREDICTED BY IDOCK:   -8.82 KCAL/MOL
REMARK 924 INTRA-LIGAND FREE ENERGY PREDICTED BY IDOCK:   -1.24 KCAL/MOL
REMARK 927      BINDING AFFINITY PREDICTED BY RF-SCORE:    0.00 PKD
ROOT
HETATM    1  C   UNL     1     -11.006   6.190  68.582  1.00  0.00    -0.415 C  
HETATM    2  C   UNL     1     -10.702   6.598  67.149  1.00  0.00    -0.370 C  
ENDROOT
BRANCH   2   3
HETATM    3  O   UNL     1     -11.134   7.948  67.029  1.00  0.00    -0.078 OA 
BRANCH   3   4
HETATM    4  C   UNL     1     -10.235   8.958  66.868  1.00  0.00    -0.276 A  
HETATM    5  C   UNL     1      -9.107   8.858  66.042  1.00  0.00    -0.265 A  
HETATM    6  C   UNL     1      -8.200   9.916  65.934  1.00  0.00    -0.124 A  
HETATM    7  C   UNL     1      -8.412  11.092  66.651  1.00  0.00    -0.153 A  
HETATM    8  C   UNL     1      -9.538  11.208  67.466  1.00  0.00    -0.181 A  
HETATM    9  C   UNL     1     -10.459  10.155  67.580  1.00  0.00    -0.245 A  
BRANCH   9  10
HETATM   10  O   UNL     1     -11.506  10.466  68.418  1.00  0.00    -0.259 OA 
BRANCH  10  11
HETATM   11  C   UNL     1     -11.299  10.348  69.825  1.00  0.00    -0.289 C  
BRANCH  11  12
HETATM   12  C   UNL     1     -12.074  11.452  70.556  1.00  0.00    -0.394 C  
BRANCH  12  13
HETATM   13  N   UNL     1     -11.663  12.829  70.242  1.00  0.00    -0.548 NA 
HETATM   14  H   UNL     1     -11.856  13.036  69.261  1.00  0.00     0.000 HD 
BRANCH  13  15
HETATM   15  C   UNL     1     -12.244  13.878  71.102  1.00  0.00    -0.308 C  
HETATM   16  C   UNL     1     -13.280  13.195  72.008  1.00  0.00    -0.543 C  
BRANCH  15  17
HETATM   17  C   UNL     1     -12.879  15.055  70.309  1.00  0.00    -0.270 C  
BRANCH  17  18
HETATM   18  C   UNL     1     -12.003  15.492  69.156  1.00  0.00    -0.331 A  
HETATM   19  C   UNL     1     -12.285  15.037  67.863  1.00  0.00     0.150 A  
HETATM   20  C   UNL     1     -11.363  15.237  66.828  1.00  0.00    -0.183 A  
HETATM   21  C   UNL     1     -10.202  15.991  67.041  1.00  0.00    -0.282 A  
HETATM   22  C   UNL     1     -10.855  16.257  69.369  1.00  0.00    -0.331 A  
HETATM   23  C   UNL     1      -9.973  16.522  68.315  1.00  0.00    -0.250 A  
BRANCH  20  24
HETATM   24  S   UNL     1     -11.586  14.431  65.260  1.00  0.00    -0.365 S  
HETATM   25  O   UNL     1     -12.908  13.850  65.239  1.00  0.00    -0.689 OA 
HETATM   26  N   UNL     1     -11.639  15.682  64.138  1.00  0.00    -0.859 N  
HETATM   27  O   UNL     1     -10.380  13.702  64.940  1.00  0.00    -0.377 OA 
HETATM   28  H1  UNL     1     -11.767  15.220  63.238  1.00  0.00     0.000 HD 
HETATM   29  H2  UNL     1     -11.560  16.683  64.317  1.00  0.00     0.000 HD 
ENDBRANCH  20  24
BRANCH  21  30
HETATM   30  O   UNL     1      -9.358  16.155  65.978  1.00  0.00    -0.309 OA 
HETATM   31  C   UNL     1      -8.022  16.561  66.241  1.00  0.00    -0.272 C  
ENDBRANCH  21  30
ENDBRANCH  17  18
ENDBRANCH  15  17
ENDBRANCH  13  15
ENDBRANCH  12  13
ENDBRANCH  11  12
ENDBRANCH  10  11
ENDBRANCH   9  10
ENDBRANCH   3   4
ENDBRANCH   2   3
TORSDOF 11
ENDMDL
MODEL       83
REMARK 921   NORMALIZED FREE ENERGY PREDICTED BY IDOCK:   -5.35 KCAL/MOL
REMARK 922        TOTAL FREE ENERGY PREDICTED BY IDOCK:  -10.04 KCAL/MOL
REMARK 923 INTER-LIGAND FREE ENERGY PREDICTED BY IDOCK:   -8.90 KCAL/MOL
REMARK 924 INTRA-LIGAND FREE ENERGY PREDICTED BY IDOCK:   -1.14 KCAL/MOL
REMARK 927      BINDING AFFINITY PREDICTED BY RF-SCORE:    0.00 PKD
ROOT
HETATM    1  C   UNL     1     -12.199  14.947  64.364  1.00  0.00    -0.399 C  
HETATM    2  C   UNL     1     -13.024  14.112  65.331  1.00  0.00    -0.270 C  
ENDROOT
BRANCH   2   3
HETATM    3  O   UNL     1     -12.953  12.776  64.848  1.00  0.00    -0.805 OA 
BRANCH   3   4
HETATM    4  C   UNL     1     -11.759  12.129  64.753  1.00  0.00    -0.327 A  
HETATM    5  C   UNL     1     -11.208  11.708  63.535  1.00  0.00    -0.462 A  
HETATM    6  C   UNL     1      -9.990  11.023  63.497  1.00  0.00    -0.421 A  
HETATM    7  C   UNL     1      -9.306  10.752  64.679  1.00  0.00    -0.271 A  
HETATM    8  C   UNL     1      -9.837  11.177  65.896  1.00  0.00    -0.275 A  
HETATM    9  C   UNL     1     -11.056  11.871  65.949  1.00  0.00    -0.316 A  
BRANCH   9  10
HETATM   10  O   UNL     1     -11.405  12.216  67.235  1.00  0.00    -0.291 OA 
BRANCH  10  11
HETATM   11  C   UNL     1     -11.566  11.170  68.191  1.00  0.00    -0.280 C  
BRANCH  11  12
HETATM   12  C   UNL     1     -11.374  11.729  69.607  1.00  0.00    -0.215 C  
BRANCH  12  13
HETATM   13  N   UNL     1     -12.382  11.314  70.595  1.00  0.00    -0.373 NA 
HETATM   14  H   UNL     1     -13.313  11.593  70.283  1.00  0.00     0.000 HD 
BRANCH  13  15
HETATM   15  C   UNL     1     -12.377   9.881  70.946  1.00  0.00    -0.310 C  
HETATM   16  C   UNL     1     -13.474   9.672  72.002  1.00  0.00    -0.514 C  
BRANCH  15  17
HETATM   17  C   UNL     1     -11.000   9.369  71.457  1.00  0.00    -0.429 C  
BRANCH  17  18
HETATM   18  C   UNL     1     -10.628   8.042  70.832  1.00  0.00    -0.233 A  
HETATM   19  C   UNL     1     -10.255   7.994  69.484  1.00  0.00    -0.209 A  
HETATM   20  C   UNL     1     -10.134   6.761  68.829  1.00  0.00    -0.160 A  
HETATM   21  C   UNL     1     -10.270   5.560  69.538  1.00  0.00    -0.261 A  
HETATM   22  C   UNL     1     -10.750   6.848  71.544  1.00  0.00    -0.248 A  
HETATM   23  C   UNL     1     -10.551   5.618  70.907  1.00  0.00    -0.328 A  
BRANCH  20  24
HETATM   24  S   UNL     1      -9.931   6.698  67.065  1.00  0.00    -0.185 S  
HETATM   25  O   UNL     1      -8.700   5.998  66.782  1.00  0.00    -0.116 OA 
HETATM   26  N   UNL     1     -11.152   5.676  66.528  1.00  0.00    -0.707 N  
HETATM   27  O   UNL     1     -10.267   7.992  66.516  1.00  0.00    -0.264 OA 
HETATM   28  H1  UNL     1     -11.035   5.640  65.516  1.00  0.00     0.000 HD 
HETATM   29  H2  UNL     1     -11.855   5.197  67.091  1.00  0.00     0.000 HD 
ENDBRANCH  20  24
BRANCH  21  30
HETATM   30  O   UNL     1     -10.122   4.398  68.833  1.00  0.00    -0.086 OA 
HETATM   31  C   UNL     1      -9.270   3.395  69.370  1.00  0.00    -0.151 C  
ENDBRANCH  21  30
ENDBRANCH  17  18
ENDBRANCH  15  17
ENDBRANCH  13  15
ENDBRANCH  12  13
ENDBRANCH  11  12
ENDBRANCH  10  11
ENDBRANCH   9  10
ENDBRANCH   3   4
ENDBRANCH   2   3
TORSDOF 11
ENDMDL
MODEL       84
REMARK 921   NORMALIZED FREE ENERGY PREDICTED BY IDOCK:   -5.35 KCAL/MOL
REMARK 922        TOTAL FREE ENERGY PREDICTED BY IDOCK:  -10.04 KCAL/MOL
REMARK 923 INTER-LIGAND FREE ENERGY PREDICTED BY IDOCK:   -9.09 KCAL/MOL
REMARK 924 INTRA-LIGAND FREE ENERGY PREDICTED BY IDOCK:   -0.95 KCAL/MOL
REMARK 927      BINDING AFFINITY PREDICTED BY RF-SCORE:    0.00 PKD
ROOT
HETATM    1  C   UNL     1      -9.474   1.956  71.888  1.00  0.00    -0.177 C  
HETATM    2  C   UNL     1      -9.841   3.231  72.631  1.00  0.00    -0.143 C  
ENDROOT
BRANCH   2   3
HETATM    3  O   UNL     1     -10.406   4.100  71.656  1.00  0.00    -0.113 OA 
BRANCH   3   4
HETATM    4  C   UNL     1     -10.603   5.420  71.926  1.00  0.00    -0.226 A  
HETATM    5  C   UNL     1     -10.391   5.986  73.191  1.00  0.00    -0.230 A  
HETATM    6  C   UNL     1     -10.635   7.343  73.420  1.00  0.00    -0.427 A  
HETATM    7  C   UNL     1     -11.094   8.153  72.384  1.00  0.00    -0.437 A  
HETATM    8  C   UNL     1     -11.296   7.605  71.119  1.00  0.00    -0.286 A  
HETATM    9  C   UNL     1     -11.050   6.245  70.872  1.00  0.00    -0.306 A  
BRANCH   9  10
HETATM   10  O   UNL     1     -11.296   5.898  69.563  1.00  0.00    -0.361 OA 
BRANCH  10  11
HETATM   11  C   UNL     1     -10.242   5.285  68.822  1.00  0.00    -0.161 C  
BRANCH  11  12
HETATM   12  C   UNL     1     -10.458   5.526  67.322  1.00  0.00    -0.236 C  
BRANCH  12  13
HETATM   13  N   UNL     1     -11.219   6.737  66.977  1.00  0.00    -0.741 NA 
HETATM   14  H   UNL     1     -11.892   6.948  67.715  1.00  0.00     0.000 HD 
BRANCH  13  15
HETATM   15  C   UNL     1     -10.409   7.933  66.676  1.00  0.00    -0.200 C  
HETATM   16  C   UNL     1      -9.043   7.438  66.176  1.00  0.00    -0.167 C  
BRANCH  15  17
HETATM   17  C   UNL     1     -10.249   8.899  67.884  1.00  0.00    -0.274 C  
BRANCH  17  18
HETATM   18  C   UNL     1     -10.913  10.234  67.628  1.00  0.00    -0.356 A  
HETATM   19  C   UNL     1     -11.087  10.677  66.312  1.00  0.00     0.084 A  
HETATM   20  C   UNL     1     -11.482  11.997  66.058  1.00  0.00    -0.338 A  
HETATM   21  C   UNL     1     -11.819  12.857  67.113  1.00  0.00    -0.362 A  
HETATM   22  C   UNL     1     -11.262  11.082  68.680  1.00  0.00    -0.322 A  
HETATM   23  C   UNL     1     -11.731  12.375  68.423  1.00  0.00    -0.386 A  
BRANCH  20  24
HETATM   24  S   UNL     1     -11.442  12.644  64.404  1.00  0.00    -0.376 S  
HETATM   25  O   UNL     1     -10.330  13.560  64.309  1.00  0.00    -0.406 OA 
HETATM   26  N   UNL     1     -11.015  11.334  63.441  1.00  0.00    -0.759 N  
HETATM   27  O   UNL     1     -12.791  12.969  64.003  1.00  0.00    -0.657 OA 
HETATM   28  H1  UNL     1     -10.992  11.705  62.492  1.00  0.00     0.000 HD 
HETATM   29  H2  UNL     1     -10.822  10.378  63.740  1.00  0.00     0.000 HD 
ENDBRANCH  20  24
BRANCH  21  30
HETATM   30  O   UNL     1     -12.211  14.124  66.785  1.00  0.00    -0.447 OA 
HETATM   31  C   UNL     1     -11.527  15.214  67.389  1.00  0.00    -0.277 C  
ENDBRANCH  21  30
ENDBRANCH  17  18
ENDBRANCH  15  17
ENDBRANCH  13  15
ENDBRANCH  12  13
ENDBRANCH  11  12
ENDBRANCH  10  11
ENDBRANCH   9  10
ENDBRANCH   3   4
ENDBRANCH   2   3
TORSDOF 11
ENDMDL
MODEL       85
REMARK 921   NORMALIZED FREE ENERGY PREDICTED BY IDOCK:   -5.34 KCAL/MOL
REMARK 922        TOTAL FREE ENERGY PREDICTED BY IDOCK:  -10.03 KCAL/MOL
REMARK 923 INTER-LIGAND FREE ENERGY PREDICTED BY IDOCK:   -9.00 KCAL/MOL
REMARK 924 INTRA-LIGAND FREE ENERGY PREDICTED BY IDOCK:   -1.03 KCAL/MOL
REMARK 927      BINDING AFFINITY PREDICTED BY RF-SCORE:    0.00 PKD
ROOT
HETATM    1  C   UNL     1      -9.162   5.324  71.707  1.00  0.00    -0.160 C  
HETATM    2  C   UNL     1     -10.653   5.255  72.002  1.00  0.00    -0.216 C  
ENDROOT
BRANCH   2   3
HETATM    3  O   UNL     1     -11.283   6.047  71.002  1.00  0.00    -0.297 OA 
BRANCH   3   4
HETATM    4  C   UNL     1     -12.117   7.068  71.343  1.00  0.00    -0.355 A  
HETATM    5  C   UNL     1     -13.506   6.919  71.460  1.00  0.00    -0.290 A  
HETATM    6  C   UNL     1     -14.320   8.008  71.786  1.00  0.00    -0.583 A  
HETATM    7  C   UNL     1     -13.753   9.262  72.000  1.00  0.00    -0.493 A  
HETATM    8  C   UNL     1     -12.372   9.420  71.898  1.00  0.00    -0.450 A  
HETATM    9  C   UNL     1     -11.541   8.334  71.577  1.00  0.00    -0.279 A  
BRANCH   9  10
HETATM   10  O   UNL     1     -10.212   8.687  71.538  1.00  0.00    -0.224 OA 
BRANCH  10  11
HETATM   11  C   UNL     1      -9.790   9.604  70.529  1.00  0.00    -0.231 C  
BRANCH  11  12
HETATM   12  C   UNL     1      -9.684   8.878  69.182  1.00  0.00    -0.168 C  
BRANCH  12  13
HETATM   13  N   UNL     1     -10.899   8.900  68.352  1.00  0.00    -0.451 NA 
HETATM   14  H   UNL     1     -11.320   9.829  68.375  1.00  0.00     0.000 HD 
BRANCH  13  15
HETATM   15  C   UNL     1     -10.724   8.459  66.955  1.00  0.00    -0.134 C  
HETATM   16  C   UNL     1     -10.696   6.922  66.969  1.00  0.00    -0.432 C  
BRANCH  15  17
HETATM   17  C   UNL     1      -9.453   9.039  66.272  1.00  0.00    -0.306 C  
BRANCH  17  18
HETATM   18  C   UNL     1      -9.689  10.435  65.740  1.00  0.00    -0.285 A  
HETATM   19  C   UNL     1      -9.432  11.539  66.559  1.00  0.00    -0.220 A  
HETATM   20  C   UNL     1      -9.859  12.817  66.177  1.00  0.00    -0.267 A  
HETATM   21  C   UNL     1     -10.446  13.027  64.922  1.00  0.00    -0.339 A  
HETATM   22  C   UNL     1     -10.260  10.642  64.483  1.00  0.00    -0.399 A  
HETATM   23  C   UNL     1     -10.615  11.931  64.069  1.00  0.00    -0.422 A  
BRANCH  20  24
HETATM   24  S   UNL     1      -9.780  14.171  67.325  1.00  0.00    -0.241 S  
HETATM   25  O   UNL     1     -11.132  14.544  67.670  1.00  0.00    -0.285 OA 
HETATM   26  N   UNL     1      -9.136  13.507  68.728  1.00  0.00    -0.389 N  
HETATM   27  O   UNL     1      -8.778  15.106  66.867  1.00  0.00    -0.225 OA 
HETATM   28  H1  UNL     1      -9.091  14.284  69.387  1.00  0.00     0.000 HD 
HETATM   29  H2  UNL     1      -8.853  12.541  68.887  1.00  0.00     0.000 HD 
ENDBRANCH  20  24
BRANCH  21  30
HETATM   30  O   UNL     1     -10.821  14.305  64.613  1.00  0.00    -0.401 OA 
HETATM   31  C   UNL     1     -12.203  14.565  64.407  1.00  0.00    -0.458 C  
ENDBRANCH  21  30
ENDBRANCH  17  18
ENDBRANCH  15  17
ENDBRANCH  13  15
ENDBRANCH  12  13
ENDBRANCH  11  12
ENDBRANCH  10  11
ENDBRANCH   9  10
ENDBRANCH   3   4
ENDBRANCH   2   3
TORSDOF 11
ENDMDL
MODEL       86
REMARK 921   NORMALIZED FREE ENERGY PREDICTED BY IDOCK:   -5.34 KCAL/MOL
REMARK 922        TOTAL FREE ENERGY PREDICTED BY IDOCK:  -10.02 KCAL/MOL
REMARK 923 INTER-LIGAND FREE ENERGY PREDICTED BY IDOCK:   -8.50 KCAL/MOL
REMARK 924 INTRA-LIGAND FREE ENERGY PREDICTED BY IDOCK:   -1.52 KCAL/MOL
REMARK 927      BINDING AFFINITY PREDICTED BY RF-SCORE:    0.00 PKD
ROOT
HETATM    1  C   UNL     1     -10.848   6.037  68.301  1.00  0.00    -0.366 C  
HETATM    2  C   UNL     1     -10.948   6.825  67.004  1.00  0.00    -0.368 C  
ENDROOT
BRANCH   2   3
HETATM    3  O   UNL     1     -10.728   8.185  67.358  1.00  0.00    -0.269 OA 
BRANCH   3   4
HETATM    4  C   UNL     1      -9.725   8.904  66.781  1.00  0.00    -0.219 A  
HETATM    5  C   UNL     1      -9.924   9.763  65.691  1.00  0.00    -0.352 A  
HETATM    6  C   UNL     1      -8.855  10.457  65.120  1.00  0.00    -0.207 A  
HETATM    7  C   UNL     1      -7.569  10.303  65.634  1.00  0.00    -0.148 A  
HETATM    8  C   UNL     1      -7.361   9.462  66.726  1.00  0.00    -0.086 A  
HETATM    9  C   UNL     1      -8.427   8.762  67.314  1.00  0.00    -0.111 A  
BRANCH   9  10
HETATM   10  O   UNL     1      -8.023   7.997  68.384  1.00  0.00    -0.116 OA 
BRANCH  10  11
HETATM   11  C   UNL     1      -7.558   8.670  69.553  1.00  0.00    -0.088 C  
BRANCH  11  12
HETATM   12  C   UNL     1      -8.731   9.382  70.240  1.00  0.00    -0.230 C  
BRANCH  12  13
HETATM   13  N   UNL     1      -9.294   8.690  71.411  1.00  0.00    -0.212 NA 
HETATM   14  H   UNL     1      -8.692   8.829  72.222  1.00  0.00     0.000 HD 
BRANCH  13  15
HETATM   15  C   UNL     1     -10.686   9.044  71.749  1.00  0.00    -0.367 C  
HETATM   16  C   UNL     1     -11.314   7.811  72.418  1.00  0.00    -0.400 C  
BRANCH  15  17
HETATM   17  C   UNL     1     -11.527   9.510  70.527  1.00  0.00    -0.337 C  
BRANCH  17  18
HETATM   18  C   UNL     1     -12.096  10.896  70.732  1.00  0.00    -0.469 A  
HETATM   19  C   UNL     1     -11.621  11.959  69.956  1.00  0.00    -0.301 A  
HETATM   20  C   UNL     1     -11.959  13.279  70.283  1.00  0.00    -0.300 A  
HETATM   21  C   UNL     1     -12.865  13.548  71.318  1.00  0.00    -0.338 A  
HETATM   22  C   UNL     1     -13.010  11.159  71.753  1.00  0.00    -0.526 A  
HETATM   23  C   UNL     1     -13.407  12.472  72.029  1.00  0.00    -0.528 A  
BRANCH  20  24
HETATM   24  S   UNL     1     -11.149  14.639  69.477  1.00  0.00    -0.254 S  
HETATM   25  O   UNL     1     -10.505  14.135  68.287  1.00  0.00    -0.237 OA 
HETATM   26  N   UNL     1     -12.399  15.615  68.921  1.00  0.00    -0.559 N  
HETATM   27  O   UNL     1     -10.479  15.436  70.479  1.00  0.00    -0.280 OA 
HETATM   28  H1  UNL     1     -11.934  16.396  68.458  1.00  0.00     0.000 HD 
HETATM   29  H2  UNL     1     -13.402  15.461  69.023  1.00  0.00     0.000 HD 
ENDBRANCH  20  24
BRANCH  21  30
HETATM   30  O   UNL     1     -13.157  14.860  71.567  1.00  0.00    -0.312 OA 
HETATM   31  C   UNL     1     -13.308  15.266  72.921  1.00  0.00    -0.514 C  
ENDBRANCH  21  30
ENDBRANCH  17  18
ENDBRANCH  15  17
ENDBRANCH  13  15
ENDBRANCH  12  13
ENDBRANCH  11  12
ENDBRANCH  10  11
ENDBRANCH   9  10
ENDBRANCH   3   4
ENDBRANCH   2   3
TORSDOF 11
ENDMDL
MODEL       87
REMARK 921   NORMALIZED FREE ENERGY PREDICTED BY IDOCK:   -5.32 KCAL/MOL
REMARK 922        TOTAL FREE ENERGY PREDICTED BY IDOCK:   -9.98 KCAL/MOL
REMARK 923 INTER-LIGAND FREE ENERGY PREDICTED BY IDOCK:   -8.62 KCAL/MOL
REMARK 924 INTRA-LIGAND FREE ENERGY PREDICTED BY IDOCK:   -1.36 KCAL/MOL
REMARK 927      BINDING AFFINITY PREDICTED BY RF-SCORE:    0.00 PKD
ROOT
HETATM    1  C   UNL     1     -10.650  15.964  65.035  1.00  0.00    -0.372 C  
HETATM    2  C   UNL     1     -10.393  14.616  65.692  1.00  0.00    -0.351 C  
ENDROOT
BRANCH   2   3
HETATM    3  O   UNL     1     -11.634  14.220  66.265  1.00  0.00    -0.349 OA 
BRANCH   3   4
HETATM    4  C   UNL     1     -11.767  14.071  67.611  1.00  0.00    -0.377 A  
HETATM    5  C   UNL     1     -11.807  15.151  68.504  1.00  0.00    -0.307 A  
HETATM    6  C   UNL     1     -11.917  14.941  69.881  1.00  0.00    -0.376 A  
HETATM    7  C   UNL     1     -11.991  13.643  70.384  1.00  0.00    -0.372 A  
HETATM    8  C   UNL     1     -11.966  12.562  69.506  1.00  0.00    -0.329 A  
HETATM    9  C   UNL     1     -11.860  12.758  68.119  1.00  0.00    -0.324 A  
BRANCH   9  10
HETATM   10  O   UNL     1     -11.865  11.572  67.422  1.00  0.00    -0.607 OA 
BRANCH  10  11
HETATM   11  C   UNL     1     -10.680  10.777  67.442  1.00  0.00    -0.268 C  
BRANCH  11  12
HETATM   12  C   UNL     1     -10.187  10.549  66.007  1.00  0.00    -0.245 C  
BRANCH  12  13
HETATM   13  N   UNL     1     -10.023   9.142  65.608  1.00  0.00    -0.425 NA 
HETATM   14  H   UNL     1      -9.434   9.081  64.777  1.00  0.00     0.000 HD 
BRANCH  13  15
HETATM   15  C   UNL     1      -9.513   8.238  66.657  1.00  0.00    -0.209 C  
HETATM   16  C   UNL     1      -8.054   7.913  66.299  1.00  0.00    -0.110 C  
BRANCH  15  17
HETATM   17  C   UNL     1     -10.353   6.940  66.826  1.00  0.00    -0.287 C  
BRANCH  17  18
HETATM   18  C   UNL     1     -10.421   6.501  68.271  1.00  0.00    -0.263 A  
HETATM   19  C   UNL     1     -10.712   7.440  69.266  1.00  0.00    -0.197 A  
HETATM   20  C   UNL     1     -10.553   7.110  70.618  1.00  0.00    -0.225 A  
HETATM   21  C   UNL     1     -10.213   5.805  70.998  1.00  0.00    -0.217 A  
HETATM   22  C   UNL     1     -10.097   5.196  68.646  1.00  0.00    -0.220 A  
HETATM   23  C   UNL     1     -10.014   4.846  69.999  1.00  0.00    -0.323 A  
BRANCH  20  24
HETATM   24  S   UNL     1     -10.656   8.368  71.868  1.00  0.00    -0.327 S  
HETATM   25  O   UNL     1     -11.249   9.543  71.272  1.00  0.00    -0.330 OA 
HETATM   26  N   UNL     1     -11.805   7.800  72.956  1.00  0.00    -0.601 N  
HETATM   27  O   UNL     1      -9.419   8.380  72.613  1.00  0.00    -0.269 OA 
HETATM   28  H1  UNL     1     -11.864   8.522  73.673  1.00  0.00     0.000 HD 
HETATM   29  H2  UNL     1     -12.328   6.926  72.909  1.00  0.00     0.000 HD 
ENDBRANCH  20  24
BRANCH  21  30
HETATM   30  O   UNL     1     -10.092   5.555  72.337  1.00  0.00    -0.172 OA 
HETATM   31  C   UNL     1     -10.267   4.218  72.786  1.00  0.00    -0.167 C  
ENDBRANCH  21  30
ENDBRANCH  17  18
ENDBRANCH  15  17
ENDBRANCH  13  15
ENDBRANCH  12  13
ENDBRANCH  11  12
ENDBRANCH  10  11
ENDBRANCH   9  10
ENDBRANCH   3   4
ENDBRANCH   2   3
TORSDOF 11
ENDMDL
MODEL       88
REMARK 921   NORMALIZED FREE ENERGY PREDICTED BY IDOCK:   -5.31 KCAL/MOL
REMARK 922        TOTAL FREE ENERGY PREDICTED BY IDOCK:   -9.96 KCAL/MOL
REMARK 923 INTER-LIGAND FREE ENERGY PREDICTED BY IDOCK:   -8.53 KCAL/MOL
REMARK 924 INTRA-LIGAND FREE ENERGY PREDICTED BY IDOCK:   -1.44 KCAL/MOL
REMARK 927      BINDING AFFINITY PREDICTED BY RF-SCORE:    0.00 PKD
ROOT
HETATM    1  C   UNL     1     -10.953  15.048  69.523  1.00  0.00    -0.281 C  
HETATM    2  C   UNL     1      -9.525  15.561  69.630  1.00  0.00    -0.243 C  
ENDROOT
BRANCH   2   3
HETATM    3  O   UNL     1      -9.109  15.829  68.296  1.00  0.00    -0.182 OA 
BRANCH   3   4
HETATM    4  C   UNL     1      -9.215  17.080  67.768  1.00  0.00    -0.236 A  
HETATM    5  C   UNL     1      -8.425  18.160  68.185  1.00  0.00    -0.282 A  
HETATM    6  C   UNL     1      -8.594  19.431  67.628  1.00  0.00    -0.343 A  
HETATM    7  C   UNL     1      -9.558  19.637  66.643  1.00  0.00    -0.479 A  
HETATM    8  C   UNL     1     -10.341  18.568  66.211  1.00  0.00    -0.459 A  
HETATM    9  C   UNL     1     -10.178  17.285  66.758  1.00  0.00    -0.318 A  
BRANCH   9  10
HETATM   10  O   UNL     1     -11.031  16.365  66.193  1.00  0.00    -0.126 OA 
BRANCH  10  11
HETATM   11  C   UNL     1     -10.493  15.438  65.252  1.00  0.00    -0.415 C  
BRANCH  11  12
HETATM   12  C   UNL     1     -10.634  14.009  65.794  1.00  0.00    -0.299 C  
BRANCH  12  13
HETATM   13  N   UNL     1      -9.379  13.358  66.201  1.00  0.00    -0.470 NA 
HETATM   14  H   UNL     1      -8.646  14.058  66.320  1.00  0.00     0.000 HD 
BRANCH  13  15
HETATM   15  C   UNL     1      -9.464  12.508  67.404  1.00  0.00    -0.184 C  
HETATM   16  C   UNL     1      -8.060  11.935  67.651  1.00  0.00    -0.148 C  
BRANCH  15  17
HETATM   17  C   UNL     1     -10.523  11.374  67.293  1.00  0.00    -0.241 C  
BRANCH  17  18
HETATM   18  C   UNL     1     -10.940  10.861  68.653  1.00  0.00    -0.274 A  
HETATM   19  C   UNL     1     -10.537   9.586  69.064  1.00  0.00    -0.238 A  
HETATM   20  C   UNL     1     -11.098   9.002  70.207  1.00  0.00    -0.235 A  
HETATM   21  C   UNL     1     -11.982   9.726  71.018  1.00  0.00    -0.352 A  
HETATM   22  C   UNL     1     -11.809  11.591  69.466  1.00  0.00    -0.419 A  
HETATM   23  C   UNL     1     -12.308  11.035  70.650  1.00  0.00    -0.480 A  
BRANCH  20  24
HETATM   24  S   UNL     1     -10.798   7.291  70.581  1.00  0.00    -0.248 S  
HETATM   25  O   UNL     1     -11.992   6.546  70.258  1.00  0.00    -0.394 OA 
HETATM   26  N   UNL     1      -9.655   6.799  69.450  1.00  0.00    -0.147 N  
HETATM   27  O   UNL     1     -10.115   7.209  71.851  1.00  0.00    -0.182 OA 
HETATM   28  H1  UNL     1      -9.483   5.817  69.664  1.00  0.00     0.000 HD 
HETATM   29  H2  UNL     1      -9.228   7.358  68.712  1.00  0.00     0.000 HD 
ENDBRANCH  20  24
BRANCH  21  30
HETATM   30  O   UNL     1     -12.475   9.094  72.126  1.00  0.00    -0.368 OA 
HETATM   31  C   UNL     1     -13.885   9.044  72.295  1.00  0.00    -0.484 C  
ENDBRANCH  21  30
ENDBRANCH  17  18
ENDBRANCH  15  17
ENDBRANCH  13  15
ENDBRANCH  12  13
ENDBRANCH  11  12
ENDBRANCH  10  11
ENDBRANCH   9  10
ENDBRANCH   3   4
ENDBRANCH   2   3
TORSDOF 11
ENDMDL
MODEL       89
REMARK 921   NORMALIZED FREE ENERGY PREDICTED BY IDOCK:   -5.30 KCAL/MOL
REMARK 922        TOTAL FREE ENERGY PREDICTED BY IDOCK:   -9.95 KCAL/MOL
REMARK 923 INTER-LIGAND FREE ENERGY PREDICTED BY IDOCK:   -8.92 KCAL/MOL
REMARK 924 INTRA-LIGAND FREE ENERGY PREDICTED BY IDOCK:   -1.03 KCAL/MOL
REMARK 927      BINDING AFFINITY PREDICTED BY RF-SCORE:    0.00 PKD
ROOT
HETATM    1  C   UNL     1      -9.418   7.674  66.792  1.00  0.00    -0.244 C  
HETATM    2  C   UNL     1      -8.600   7.385  68.041  1.00  0.00    -0.122 C  
ENDROOT
BRANCH   2   3
HETATM    3  O   UNL     1      -9.542   7.034  69.048  1.00  0.00    -0.142 OA 
BRANCH   3   4
HETATM    4  C   UNL     1      -9.468   5.834  69.687  1.00  0.00    -0.140 A  
HETATM    5  C   UNL     1      -9.721   4.609  69.054  1.00  0.00    -0.242 A  
HETATM    6  C   UNL     1      -9.658   3.407  69.764  1.00  0.00    -0.180 A  
HETATM    7  C   UNL     1      -9.338   3.415  71.120  1.00  0.00    -0.208 A  
HETATM    8  C   UNL     1      -9.072   4.625  71.758  1.00  0.00    -0.169 A  
HETATM    9  C   UNL     1      -9.126   5.840  71.056  1.00  0.00    -0.146 A  
BRANCH   9  10
HETATM   10  O   UNL     1      -8.820   6.918  71.854  1.00  0.00    -0.127 OA 
BRANCH  10  11
HETATM   11  C   UNL     1      -9.751   7.289  72.869  1.00  0.00    -0.169 C  
BRANCH  11  12
HETATM   12  C   UNL     1     -10.703   8.365  72.329  1.00  0.00    -0.347 C  
BRANCH  12  13
HETATM   13  N   UNL     1     -12.071   8.330  72.869  1.00  0.00    -0.582 NA 
HETATM   14  H   UNL     1     -12.067   8.612  73.849  1.00  0.00     0.000 HD 
BRANCH  13  15
HETATM   15  C   UNL     1     -13.071   9.117  72.121  1.00  0.00    -0.446 C  
HETATM   16  C   UNL     1     -14.190   8.147  71.709  1.00  0.00    -0.548 C  
BRANCH  15  17
HETATM   17  C   UNL     1     -12.484   9.857  70.885  1.00  0.00    -0.401 C  
BRANCH  17  18
HETATM   18  C   UNL     1     -12.722  11.349  70.960  1.00  0.00    -0.447 A  
HETATM   19  C   UNL     1     -12.095  12.196  70.039  1.00  0.00    -0.352 A  
HETATM   20  C   UNL     1     -12.113  13.583  70.230  1.00  0.00    -0.355 A  
HETATM   21  C   UNL     1     -12.851  14.151  71.277  1.00  0.00    -0.359 A  
HETATM   22  C   UNL     1     -13.470  11.911  71.996  1.00  0.00    -0.336 A  
HETATM   23  C   UNL     1     -13.551  13.301  72.140  1.00  0.00    -0.655 A  
BRANCH  20  24
HETATM   24  S   UNL     1     -11.098  14.640  69.225  1.00  0.00    -0.277 S  
HETATM   25  O   UNL     1     -10.750  13.916  68.025  1.00  0.00    -0.239 OA 
HETATM   26  N   UNL     1     -12.128  15.866  68.715  1.00  0.00    -0.486 N  
HETATM   27  O   UNL     1     -10.135  15.301  70.076  1.00  0.00    -0.256 OA 
HETATM   28  H1  UNL     1     -11.546  16.473  68.138  1.00  0.00     0.000 HD 
HETATM   29  H2  UNL     1     -13.118  15.979  68.933  1.00  0.00     0.000 HD 
ENDBRANCH  20  24
BRANCH  21  30
HETATM   30  O   UNL     1     -12.832  15.513  71.388  1.00  0.00    -0.403 OA 
HETATM   31  C   UNL     1     -12.129  16.085  72.483  1.00  0.00    -0.537 C  
ENDBRANCH  21  30
ENDBRANCH  17  18
ENDBRANCH  15  17
ENDBRANCH  13  15
ENDBRANCH  12  13
ENDBRANCH  11  12
ENDBRANCH  10  11
ENDBRANCH   9  10
ENDBRANCH   3   4
ENDBRANCH   2   3
TORSDOF 11
ENDMDL
MODEL       90
REMARK 921   NORMALIZED FREE ENERGY PREDICTED BY IDOCK:   -5.29 KCAL/MOL
REMARK 922        TOTAL FREE ENERGY PREDICTED BY IDOCK:   -9.94 KCAL/MOL
REMARK 923 INTER-LIGAND FREE ENERGY PREDICTED BY IDOCK:   -9.27 KCAL/MOL
REMARK 924 INTRA-LIGAND FREE ENERGY PREDICTED BY IDOCK:   -0.67 KCAL/MOL
REMARK 927      BINDING AFFINITY PREDICTED BY RF-SCORE:    0.00 PKD
ROOT
HETATM    1  C   UNL     1      -9.676  14.936  68.293  1.00  0.00    -0.215 C  
HETATM    2  C   UNL     1     -11.143  14.583  68.098  1.00  0.00    -0.266 C  
ENDROOT
BRANCH   2   3
HETATM    3  O   UNL     1     -11.457  13.650  69.124  1.00  0.00    -0.261 OA 
BRANCH   3   4
HETATM    4  C   UNL     1     -12.217  14.016  70.193  1.00  0.00    -0.359 A  
HETATM    5  C   UNL     1     -12.513  15.350  70.505  1.00  0.00    -0.468 A  
HETATM    6  C   UNL     1     -13.275  15.672  71.631  1.00  0.00    -0.554 A  
HETATM    7  C   UNL     1     -13.754  14.661  72.461  1.00  0.00    -0.572 A  
HETATM    8  C   UNL     1     -13.477  13.330  72.155  1.00  0.00    -0.655 A  
HETATM    9  C   UNL     1     -12.717  12.991  71.024  1.00  0.00    -0.262 A  
BRANCH   9  10
HETATM   10  O   UNL     1     -12.564  11.630  70.886  1.00  0.00    -0.358 OA 
BRANCH  10  11
HETATM   11  C   UNL     1     -13.025  10.792  71.944  1.00  0.00    -0.419 C  
BRANCH  11  12
HETATM   12  C   UNL     1     -13.476   9.441  71.374  1.00  0.00    -0.332 C  
BRANCH  12  13
HETATM   13  N   UNL     1     -12.423   8.642  70.727  1.00  0.00    -0.488 NA 
HETATM   14  H   UNL     1     -11.646   9.244  70.454  1.00  0.00     0.000 HD 
BRANCH  13  15
HETATM   15  C   UNL     1     -11.922   7.496  71.511  1.00  0.00    -0.307 C  
HETATM   16  C   UNL     1     -11.017   8.067  72.614  1.00  0.00    -0.448 C  
BRANCH  15  17
HETATM   17  C   UNL     1     -11.167   6.438  70.656  1.00  0.00    -0.400 C  
BRANCH  17  18
HETATM   18  C   UNL     1     -10.705   7.010  69.335  1.00  0.00    -0.259 A  
HETATM   19  C   UNL     1     -10.135   8.287  69.296  1.00  0.00    -0.199 A  
HETATM   20  C   UNL     1      -9.916   8.926  68.069  1.00  0.00    -0.178 A  
HETATM   21  C   UNL     1     -10.156   8.255  66.862  1.00  0.00    -0.296 A  
HETATM   22  C   UNL     1     -10.932   6.333  68.135  1.00  0.00    -0.412 A  
HETATM   23  C   UNL     1     -10.639   6.943  66.910  1.00  0.00    -0.372 A  
BRANCH  20  24
HETATM   24  S   UNL     1      -9.450  10.640  68.019  1.00  0.00    -0.161 S  
HETATM   25  O   UNL     1     -10.315  11.311  67.077  1.00  0.00    -0.211 OA 
HETATM   26  N   UNL     1      -9.886  11.246  69.525  1.00  0.00    -0.370 N  
HETATM   27  O   UNL     1      -8.008  10.725  67.993  1.00  0.00    -0.104 OA 
HETATM   28  H1  UNL     1      -9.619  12.230  69.497  1.00  0.00     0.000 HD 
HETATM   29  H2  UNL     1     -10.322  10.743  70.297  1.00  0.00     0.000 HD 
ENDBRANCH  20  24
BRANCH  21  30
HETATM   30  O   UNL     1      -9.903   8.939  65.706  1.00  0.00    -0.226 OA 
HETATM   31  C   UNL     1      -8.664   8.705  65.048  1.00  0.00    -0.118 C  
ENDBRANCH  21  30
ENDBRANCH  17  18
ENDBRANCH  15  17
ENDBRANCH  13  15
ENDBRANCH  12  13
ENDBRANCH  11  12
ENDBRANCH  10  11
ENDBRANCH   9  10
ENDBRANCH   3   4
ENDBRANCH   2   3
TORSDOF 11
ENDMDL
MODEL       91
REMARK 921   NORMALIZED FREE ENERGY PREDICTED BY IDOCK:   -5.29 KCAL/MOL
REMARK 922        TOTAL FREE ENERGY PREDICTED BY IDOCK:   -9.94 KCAL/MOL
REMARK 923 INTER-LIGAND FREE ENERGY PREDICTED BY IDOCK:   -9.05 KCAL/MOL
REMARK 924 INTRA-LIGAND FREE ENERGY PREDICTED BY IDOCK:   -0.89 KCAL/MOL
REMARK 927      BINDING AFFINITY PREDICTED BY RF-SCORE:    0.00 PKD
ROOT
HETATM    1  C   UNL     1     -10.557  19.473  65.868  1.00  0.00    -0.572 C  
HETATM    2  C   UNL     1     -10.057  18.218  66.565  1.00  0.00    -0.385 C  
ENDROOT
BRANCH   2   3
HETATM    3  O   UNL     1      -9.841  17.261  65.535  1.00  0.00    -0.541 OA 
BRANCH   3   4
HETATM    4  C   UNL     1     -10.610  16.141  65.449  1.00  0.00    -0.380 A  
HETATM    5  C   UNL     1     -11.493  15.894  64.389  1.00  0.00    -0.268 A  
HETATM    6  C   UNL     1     -12.280  14.739  64.364  1.00  0.00    -0.447 A  
HETATM    7  C   UNL     1     -12.191  13.813  65.400  1.00  0.00    -0.465 A  
HETATM    8  C   UNL     1     -11.307  14.041  66.454  1.00  0.00    -0.338 A  
HETATM    9  C   UNL     1     -10.507  15.194  66.490  1.00  0.00    -0.291 A  
BRANCH   9  10
HETATM   10  O   UNL     1      -9.693  15.230  67.599  1.00  0.00    -0.208 OA 
BRANCH  10  11
HETATM   11  C   UNL     1      -8.287  15.086  67.406  1.00  0.00    -0.190 C  
BRANCH  11  12
HETATM   12  C   UNL     1      -7.913  13.598  67.420  1.00  0.00    -0.166 C  
BRANCH  12  13
HETATM   13  N   UNL     1      -8.064  12.919  68.717  1.00  0.00    -0.346 NA 
HETATM   14  H   UNL     1      -8.762  13.401  69.284  1.00  0.00     0.000 HD 
BRANCH  13  15
HETATM   15  C   UNL     1      -8.377  11.479  68.648  1.00  0.00    -0.123 C  
HETATM   16  C   UNL     1      -7.442  10.865  67.594  1.00  0.00    -0.095 C  
BRANCH  15  17
HETATM   17  C   UNL     1      -9.867  11.179  68.321  1.00  0.00    -0.195 C  
BRANCH  17  18
HETATM   18  C   UNL     1     -10.616  10.667  69.531  1.00  0.00    -0.265 A  
HETATM   19  C   UNL     1     -10.209   9.477  70.143  1.00  0.00    -0.291 A  
HETATM   20  C   UNL     1     -11.018   8.867  71.110  1.00  0.00    -0.286 A  
HETATM   21  C   UNL     1     -12.187   9.494  71.561  1.00  0.00    -0.386 A  
HETATM   22  C   UNL     1     -11.772  11.303  69.989  1.00  0.00    -0.428 A  
HETATM   23  C   UNL     1     -12.538  10.731  71.011  1.00  0.00    -0.520 A  
BRANCH  20  24
HETATM   24  S   UNL     1     -10.645   7.229  71.690  1.00  0.00    -0.205 S  
HETATM   25  O   UNL     1      -9.328   6.876  71.216  1.00  0.00    -0.164 OA 
HETATM   26  N   UNL     1     -10.484   7.390  73.355  1.00  0.00    -0.363 N  
HETATM   27  O   UNL     1     -11.815   6.400  71.513  1.00  0.00    -0.315 OA 
HETATM   28  H1  UNL     1     -10.270   6.450  73.688  1.00  0.00     0.000 HD 
HETATM   29  H2  UNL     1     -10.579   8.239  73.911  1.00  0.00     0.000 HD 
ENDBRANCH  20  24
BRANCH  21  30
HETATM   30  O   UNL     1     -12.916   8.845  72.519  1.00  0.00    -0.418 OA 
HETATM   31  C   UNL     1     -14.299   8.629  72.275  1.00  0.00    -0.396 C  
ENDBRANCH  21  30
ENDBRANCH  17  18
ENDBRANCH  15  17
ENDBRANCH  13  15
ENDBRANCH  12  13
ENDBRANCH  11  12
ENDBRANCH  10  11
ENDBRANCH   9  10
ENDBRANCH   3   4
ENDBRANCH   2   3
TORSDOF 11
ENDMDL
MODEL       92
REMARK 921   NORMALIZED FREE ENERGY PREDICTED BY IDOCK:   -5.27 KCAL/MOL
REMARK 922        TOTAL FREE ENERGY PREDICTED BY IDOCK:   -9.90 KCAL/MOL
REMARK 923 INTER-LIGAND FREE ENERGY PREDICTED BY IDOCK:   -9.33 KCAL/MOL
REMARK 924 INTRA-LIGAND FREE ENERGY PREDICTED BY IDOCK:   -0.57 KCAL/MOL
REMARK 927      BINDING AFFINITY PREDICTED BY RF-SCORE:    0.00 PKD
ROOT
HETATM    1  C   UNL     1     -12.869   8.844  72.274  1.00  0.00    -0.475 C  
HETATM    2  C   UNL     1     -11.988   9.718  71.395  1.00  0.00    -0.411 C  
ENDROOT
BRANCH   2   3
HETATM    3  O   UNL     1     -10.848   8.928  71.080  1.00  0.00    -0.240 OA 
BRANCH   3   4
HETATM    4  C   UNL     1     -10.822   8.151  69.962  1.00  0.00    -0.233 A  
HETATM    5  C   UNL     1     -11.094   6.776  69.976  1.00  0.00    -0.366 A  
HETATM    6  C   UNL     1     -11.027   6.019  68.803  1.00  0.00    -0.384 A  
HETATM    7  C   UNL     1     -10.687   6.630  67.598  1.00  0.00    -0.373 A  
HETATM    8  C   UNL     1     -10.427   7.999  67.570  1.00  0.00    -0.331 A  
HETATM    9  C   UNL     1     -10.496   8.773  68.739  1.00  0.00    -0.191 A  
BRANCH   9  10
HETATM   10  O   UNL     1     -10.219  10.100  68.504  1.00  0.00    -0.161 OA 
BRANCH  10  11
HETATM   11  C   UNL     1     -10.168  10.547  67.150  1.00  0.00    -0.223 C  
BRANCH  11  12
HETATM   12  C   UNL     1     -11.381  11.438  66.853  1.00  0.00    -0.210 C  
BRANCH  12  13
HETATM   13  N   UNL     1     -11.115  12.886  66.838  1.00  0.00    -0.270 NA 
HETATM   14  H   UNL     1     -10.109  13.056  66.840  1.00  0.00     0.000 HD 
BRANCH  13  15
HETATM   15  C   UNL     1     -11.752  13.638  65.741  1.00  0.00    -0.348 C  
HETATM   16  C   UNL     1     -12.411  12.607  64.811  1.00  0.00    -0.556 C  
BRANCH  15  17
HETATM   17  C   UNL     1     -10.769  14.554  64.958  1.00  0.00    -0.444 C  
BRANCH  17  18
HETATM   18  C   UNL     1     -10.071  15.538  65.871  1.00  0.00    -0.374 A  
HETATM   19  C   UNL     1     -10.516  16.864  65.926  1.00  0.00    -0.294 A  
HETATM   20  C   UNL     1      -9.751  17.839  66.578  1.00  0.00    -0.320 A  
HETATM   21  C   UNL     1      -8.591  17.485  67.280  1.00  0.00    -0.225 A  
HETATM   22  C   UNL     1      -8.926  15.179  66.582  1.00  0.00    -0.319 A  
HETATM   23  C   UNL     1      -8.204  16.141  67.299  1.00  0.00    -0.203 A  
BRANCH  20  24
HETATM   24  S   UNL     1     -10.166  19.560  66.420  1.00  0.00    -0.519 S  
HETATM   25  O   UNL     1     -10.381  20.091  67.745  1.00  0.00    -0.399 OA 
HETATM   26  N   UNL     1      -8.754  20.294  65.876  1.00  0.00    -0.552 N  
HETATM   27  O   UNL     1     -11.101  19.710  65.329  1.00  0.00    -0.409 OA 
HETATM   28  H1  UNL     1      -8.992  21.281  65.786  1.00  0.00     0.000 HD 
HETATM   29  H2  UNL     1      -7.857  19.850  65.680  1.00  0.00     0.000 HD 
ENDBRANCH  20  24
BRANCH  21  30
HETATM   30  O   UNL     1      -7.907  18.490  67.905  1.00  0.00    -0.244 OA 
HETATM   31  C   UNL     1      -6.873  18.131  68.812  1.00  0.00    -0.260 C  
ENDBRANCH  21  30
ENDBRANCH  17  18
ENDBRANCH  15  17
ENDBRANCH  13  15
ENDBRANCH  12  13
ENDBRANCH  11  12
ENDBRANCH  10  11
ENDBRANCH   9  10
ENDBRANCH   3   4
ENDBRANCH   2   3
TORSDOF 11
ENDMDL
MODEL       93
REMARK 921   NORMALIZED FREE ENERGY PREDICTED BY IDOCK:   -5.26 KCAL/MOL
REMARK 922        TOTAL FREE ENERGY PREDICTED BY IDOCK:   -9.88 KCAL/MOL
REMARK 923 INTER-LIGAND FREE ENERGY PREDICTED BY IDOCK:   -8.76 KCAL/MOL
REMARK 924 INTRA-LIGAND FREE ENERGY PREDICTED BY IDOCK:   -1.12 KCAL/MOL
REMARK 927      BINDING AFFINITY PREDICTED BY RF-SCORE:    0.00 PKD
ROOT
HETATM    1  C   UNL     1     -12.185  13.452  65.194  1.00  0.00    -0.473 C  
HETATM    2  C   UNL     1     -12.099  14.254  66.484  1.00  0.00    -0.429 C  
ENDROOT
BRANCH   2   3
HETATM    3  O   UNL     1     -10.796  14.826  66.499  1.00  0.00    -0.307 OA 
BRANCH   3   4
HETATM    4  C   UNL     1     -10.618  16.152  66.749  1.00  0.00    -0.277 A  
HETATM    5  C   UNL     1     -10.690  17.138  65.755  1.00  0.00    -0.140 A  
HETATM    6  C   UNL     1     -10.471  18.484  66.062  1.00  0.00    -0.433 A  
HETATM    7  C   UNL     1     -10.180  18.862  67.371  1.00  0.00    -0.456 A  
HETATM    8  C   UNL     1     -10.119  17.892  68.370  1.00  0.00    -0.385 A  
HETATM    9  C   UNL     1     -10.341  16.537  68.078  1.00  0.00    -0.294 A  
BRANCH   9  10
HETATM   10  O   UNL     1     -10.251  15.740  69.196  1.00  0.00    -0.203 OA 
BRANCH  10  11
HETATM   11  C   UNL     1     -11.061  16.070  70.323  1.00  0.00    -0.374 C  
BRANCH  11  12
HETATM   12  C   UNL     1     -12.175  15.026  70.481  1.00  0.00    -0.337 C  
BRANCH  12  13
HETATM   13  N   UNL     1     -11.732  13.680  70.878  1.00  0.00    -0.450 NA 
HETATM   14  H   UNL     1     -11.118  13.741  71.691  1.00  0.00     0.000 HD 
BRANCH  13  15
HETATM   15  C   UNL     1     -12.809  12.705  71.131  1.00  0.00    -0.220 C  
HETATM   16  C   UNL     1     -13.612  13.222  72.335  1.00  0.00    -0.694 C  
BRANCH  15  17
HETATM   17  C   UNL     1     -12.295  11.258  71.378  1.00  0.00    -0.308 C  
BRANCH  17  18
HETATM   18  C   UNL     1     -11.816  10.606  70.099  1.00  0.00    -0.421 A  
HETATM   19  C   UNL     1     -11.171   9.366  70.156  1.00  0.00    -0.253 A  
HETATM   20  C   UNL     1     -10.518   8.858  69.025  1.00  0.00    -0.214 A  
HETATM   21  C   UNL     1     -10.597   9.525  67.795  1.00  0.00    -0.261 A  
HETATM   22  C   UNL     1     -11.910  11.266  68.873  1.00  0.00    -0.413 A  
HETATM   23  C   UNL     1     -11.323  10.718  67.726  1.00  0.00    -0.354 A  
BRANCH  20  24
HETATM   24  S   UNL     1      -9.473   7.427  69.160  1.00  0.00    -0.149 S  
HETATM   25  O   UNL     1      -9.985   6.414  68.267  1.00  0.00    -0.132 OA 
HETATM   26  N   UNL     1      -8.006   7.902  68.490  1.00  0.00    -0.119 N  
HETATM   27  O   UNL     1      -9.182   7.199  70.556  1.00  0.00    -0.158 OA 
HETATM   28  H1  UNL     1      -7.407   7.081  68.567  1.00  0.00     0.000 HD 
HETATM   29  H2  UNL     1      -7.768   8.811  68.093  1.00  0.00     0.000 HD 
ENDBRANCH  20  24
BRANCH  21  30
HETATM   30  O   UNL     1      -9.947   8.959  66.734  1.00  0.00    -0.219 OA 
HETATM   31  C   UNL     1      -9.673   9.776  65.604  1.00  0.00    -0.288 C  
ENDBRANCH  21  30
ENDBRANCH  17  18
ENDBRANCH  15  17
ENDBRANCH  13  15
ENDBRANCH  12  13
ENDBRANCH  11  12
ENDBRANCH  10  11
ENDBRANCH   9  10
ENDBRANCH   3   4
ENDBRANCH   2   3
TORSDOF 11
ENDMDL
MODEL       94
REMARK 921   NORMALIZED FREE ENERGY PREDICTED BY IDOCK:   -5.25 KCAL/MOL
REMARK 922        TOTAL FREE ENERGY PREDICTED BY IDOCK:   -9.86 KCAL/MOL
REMARK 923 INTER-LIGAND FREE ENERGY PREDICTED BY IDOCK:   -9.36 KCAL/MOL
REMARK 924 INTRA-LIGAND FREE ENERGY PREDICTED BY IDOCK:   -0.50 KCAL/MOL
REMARK 927      BINDING AFFINITY PREDICTED BY RF-SCORE:    0.00 PKD
ROOT
HETATM    1  C   UNL     1     -10.356   6.504  66.774  1.00  0.00    -0.279 C  
HETATM    2  C   UNL     1     -10.697   6.103  68.201  1.00  0.00    -0.294 C  
ENDROOT
BRANCH   2   3
HETATM    3  O   UNL     1     -10.951   7.318  68.896  1.00  0.00    -0.139 OA 
BRANCH   3   4
HETATM    4  C   UNL     1     -11.048   7.340  70.254  1.00  0.00    -0.266 A  
HETATM    5  C   UNL     1     -11.227   6.187  71.031  1.00  0.00    -0.361 A  
HETATM    6  C   UNL     1     -11.348   6.269  72.420  1.00  0.00    -0.333 A  
HETATM    7  C   UNL     1     -11.289   7.509  73.053  1.00  0.00    -0.313 A  
HETATM    8  C   UNL     1     -11.099   8.662  72.293  1.00  0.00    -0.395 A  
HETATM    9  C   UNL     1     -10.971   8.594  70.896  1.00  0.00    -0.253 A  
BRANCH   9  10
HETATM   10  O   UNL     1     -10.777   9.833  70.329  1.00  0.00    -0.257 OA 
BRANCH  10  11
HETATM   11  C   UNL     1     -11.920  10.538  69.848  1.00  0.00    -0.264 C  
BRANCH  11  12
HETATM   12  C   UNL     1     -12.018  11.900  70.547  1.00  0.00    -0.267 C  
BRANCH  12  13
HETATM   13  N   UNL     1     -12.388  13.032  69.681  1.00  0.00    -0.127 NA 
HETATM   14  H   UNL     1     -13.403  13.122  69.640  1.00  0.00     0.000 HD 
BRANCH  13  15
HETATM   15  C   UNL     1     -11.780  14.329  70.036  1.00  0.00    -0.298 C  
HETATM   16  C   UNL     1     -12.872  15.165  70.722  1.00  0.00    -0.473 C  
BRANCH  15  17
HETATM   17  C   UNL     1     -11.173  15.086  68.821  1.00  0.00    -0.288 C  
BRANCH  17  18
HETATM   18  C   UNL     1     -10.651  14.133  67.769  1.00  0.00    -0.243 A  
HETATM   19  C   UNL     1     -11.260  14.092  66.510  1.00  0.00    -0.333 A  
HETATM   20  C   UNL     1     -10.950  13.066  65.608  1.00  0.00    -0.273 A  
HETATM   21  C   UNL     1      -9.946  12.135  65.905  1.00  0.00    -0.245 A  
HETATM   22  C   UNL     1      -9.640  13.216  68.062  1.00  0.00    -0.220 A  
HETATM   23  C   UNL     1      -9.276  12.239  67.128  1.00  0.00    -0.196 A  
BRANCH  20  24
HETATM   24  S   UNL     1     -11.909  12.851  64.128  1.00  0.00    -0.450 S  
HETATM   25  O   UNL     1     -13.157  12.223  64.492  1.00  0.00    -0.791 OA 
HETATM   26  N   UNL     1     -12.324  14.410  63.655  1.00  0.00    -1.106 N  
HETATM   27  O   UNL     1     -11.039  12.370  63.080  1.00  0.00    -0.379 OA 
HETATM   28  H1  UNL     1     -12.875  14.287  62.806  1.00  0.00     0.000 HD 
HETATM   29  H2  UNL     1     -12.080  15.287  64.116  1.00  0.00     0.000 HD 
ENDBRANCH  20  24
BRANCH  21  30
HETATM   30  O   UNL     1      -9.689  11.173  64.968  1.00  0.00    -0.228 OA 
HETATM   31  C   UNL     1      -9.810   9.811  65.356  1.00  0.00    -0.295 C  
ENDBRANCH  21  30
ENDBRANCH  17  18
ENDBRANCH  15  17
ENDBRANCH  13  15
ENDBRANCH  12  13
ENDBRANCH  11  12
ENDBRANCH  10  11
ENDBRANCH   9  10
ENDBRANCH   3   4
ENDBRANCH   2   3
TORSDOF 11
ENDMDL
MODEL       95
REMARK 921   NORMALIZED FREE ENERGY PREDICTED BY IDOCK:   -5.24 KCAL/MOL
REMARK 922        TOTAL FREE ENERGY PREDICTED BY IDOCK:   -9.86 KCAL/MOL
REMARK 923 INTER-LIGAND FREE ENERGY PREDICTED BY IDOCK:   -8.60 KCAL/MOL
REMARK 924 INTRA-LIGAND FREE ENERGY PREDICTED BY IDOCK:   -1.26 KCAL/MOL
REMARK 927      BINDING AFFINITY PREDICTED BY RF-SCORE:    0.00 PKD
ROOT
HETATM    1  C   UNL     1      -6.321   9.560  63.753  1.00  0.00    -0.099 C  
HETATM    2  C   UNL     1      -7.360   8.457  63.625  1.00  0.00    -0.103 C  
ENDROOT
BRANCH   2   3
HETATM    3  O   UNL     1      -8.236   8.618  64.734  1.00  0.00    -0.145 OA 
BRANCH   3   4
HETATM    4  C   UNL     1      -8.975   9.751  64.884  1.00  0.00    -0.216 A  
HETATM    5  C   UNL     1      -9.739  10.312  63.851  1.00  0.00    -0.325 A  
HETATM    6  C   UNL     1     -10.459  11.493  64.050  1.00  0.00    -0.424 A  
HETATM    7  C   UNL     1     -10.425  12.129  65.289  1.00  0.00    -0.311 A  
HETATM    8  C   UNL     1      -9.679  11.574  66.328  1.00  0.00    -0.240 A  
HETATM    9  C   UNL     1      -8.956  10.385  66.144  1.00  0.00    -0.157 A  
BRANCH   9  10
HETATM   10  O   UNL     1      -8.297   9.992  67.286  1.00  0.00    -0.121 OA 
BRANCH  10  11
HETATM   11  C   UNL     1      -8.993   9.153  68.207  1.00  0.00    -0.129 C  
BRANCH  11  12
HETATM   12  C   UNL     1      -8.998   9.805  69.597  1.00  0.00    -0.215 C  
BRANCH  12  13
HETATM   13  N   UNL     1      -9.373   8.919  70.711  1.00  0.00    -0.208 NA 
HETATM   14  H   UNL     1      -8.587   8.815  71.353  1.00  0.00     0.000 HD 
BRANCH  13  15
HETATM   15  C   UNL     1     -10.585   9.311  71.455  1.00  0.00    -0.335 C  
HETATM   16  C   UNL     1     -10.913   8.160  72.419  1.00  0.00    -0.414 C  
BRANCH  15  17
HETATM   17  C   UNL     1     -11.799   9.642  70.541  1.00  0.00    -0.284 C  
BRANCH  17  18
HETATM   18  C   UNL     1     -12.287  11.059  70.748  1.00  0.00    -0.496 A  
HETATM   19  C   UNL     1     -11.811  12.081  69.921  1.00  0.00    -0.405 A  
HETATM   20  C   UNL     1     -12.065  13.422  70.237  1.00  0.00    -0.349 A  
HETATM   21  C   UNL     1     -12.893  13.756  71.318  1.00  0.00    -0.357 A  
HETATM   22  C   UNL     1     -13.124  11.386  71.816  1.00  0.00    -0.523 A  
HETATM   23  C   UNL     1     -13.441  12.723  72.085  1.00  0.00    -0.591 A  
BRANCH  20  24
HETATM   24  S   UNL     1     -11.243  14.725  69.353  1.00  0.00    -0.298 S  
HETATM   25  O   UNL     1     -10.794  14.193  68.088  1.00  0.00    -0.239 OA 
HETATM   26  N   UNL     1     -12.461  15.816  68.964  1.00  0.00    -0.459 N  
HETATM   27  O   UNL     1     -10.390  15.441  70.274  1.00  0.00    -0.289 OA 
HETATM   28  H1  UNL     1     -11.989  16.563  68.456  1.00  0.00     0.000 HD 
HETATM   29  H2  UNL     1     -13.454  15.746  69.186  1.00  0.00     0.000 HD 
ENDBRANCH  20  24
BRANCH  21  30
HETATM   30  O   UNL     1     -13.107  15.085  71.554  1.00  0.00    -0.320 OA 
HETATM   31  C   UNL     1     -14.319  15.464  72.194  1.00  0.00    -0.544 C  
ENDBRANCH  21  30
ENDBRANCH  17  18
ENDBRANCH  15  17
ENDBRANCH  13  15
ENDBRANCH  12  13
ENDBRANCH  11  12
ENDBRANCH  10  11
ENDBRANCH   9  10
ENDBRANCH   3   4
ENDBRANCH   2   3
TORSDOF 11
ENDMDL
MODEL       96
REMARK 921   NORMALIZED FREE ENERGY PREDICTED BY IDOCK:   -5.23 KCAL/MOL
REMARK 922        TOTAL FREE ENERGY PREDICTED BY IDOCK:   -9.84 KCAL/MOL
REMARK 923 INTER-LIGAND FREE ENERGY PREDICTED BY IDOCK:   -8.68 KCAL/MOL
REMARK 924 INTRA-LIGAND FREE ENERGY PREDICTED BY IDOCK:   -1.17 KCAL/MOL
REMARK 927      BINDING AFFINITY PREDICTED BY RF-SCORE:    0.00 PKD
ROOT
HETATM    1  C   UNL     1      -9.004   9.506  67.273  1.00  0.00    -0.143 C  
HETATM    2  C   UNL     1      -9.806   8.833  66.169  1.00  0.00    -0.227 C  
ENDROOT
BRANCH   2   3
HETATM    3  O   UNL     1     -10.499   7.759  66.793  1.00  0.00    -0.321 OA 
BRANCH   3   4
HETATM    4  C   UNL     1      -9.927   6.529  66.907  1.00  0.00    -0.173 A  
HETATM    5  C   UNL     1      -8.955   6.048  66.018  1.00  0.00    -0.157 A  
HETATM    6  C   UNL     1      -8.419   4.766  66.165  1.00  0.00    -0.114 A  
HETATM    7  C   UNL     1      -8.849   3.946  67.207  1.00  0.00    -0.135 A  
HETATM    8  C   UNL     1      -9.805   4.418  68.104  1.00  0.00    -0.132 A  
HETATM    9  C   UNL     1     -10.348   5.706  67.972  1.00  0.00    -0.202 A  
BRANCH   9  10
HETATM   10  O   UNL     1     -11.264   5.990  68.959  1.00  0.00    -0.367 OA 
BRANCH  10  11
HETATM   11  C   UNL     1     -10.924   5.663  70.306  1.00  0.00    -0.217 C  
BRANCH  11  12
HETATM   12  C   UNL     1     -11.560   6.680  71.262  1.00  0.00    -0.323 C  
BRANCH  12  13
HETATM   13  N   UNL     1     -12.325   7.761  70.620  1.00  0.00    -0.508 NA 
HETATM   14  H   UNL     1     -13.323   7.630  70.789  1.00  0.00     0.000 HD 
BRANCH  13  15
HETATM   15  C   UNL     1     -11.925   9.132  70.992  1.00  0.00    -0.282 C  
HETATM   16  C   UNL     1     -10.639   9.014  71.825  1.00  0.00    -0.426 C  
BRANCH  15  17
HETATM   17  C   UNL     1     -13.026   9.915  71.764  1.00  0.00    -0.549 C  
BRANCH  17  18
HETATM   18  C   UNL     1     -12.991  11.393  71.445  1.00  0.00    -0.468 A  
HETATM   19  C   UNL     1     -12.326  11.836  70.296  1.00  0.00    -0.320 A  
HETATM   20  C   UNL     1     -12.081  13.202  70.104  1.00  0.00    -0.321 A  
HETATM   21  C   UNL     1     -12.597  14.151  70.997  1.00  0.00    -0.369 A  
HETATM   22  C   UNL     1     -13.519  12.336  72.328  1.00  0.00    -0.365 A  
HETATM   23  C   UNL     1     -13.342  13.704  72.093  1.00  0.00    -0.587 A  
BRANCH  20  24
HETATM   24  S   UNL     1     -11.008  13.747  68.798  1.00  0.00    -0.269 S  
HETATM   25  O   UNL     1     -11.749  14.665  67.964  1.00  0.00    -0.330 OA 
HETATM   26  N   UNL     1      -9.845  14.689  69.562  1.00  0.00    -0.428 N  
HETATM   27  O   UNL     1     -10.281  12.606  68.292  1.00  0.00    -0.229 OA 
HETATM   28  H1  UNL     1      -9.229  15.002  68.813  1.00  0.00     0.000 HD 
HETATM   29  H2  UNL     1      -9.771  14.902  70.557  1.00  0.00     0.000 HD 
ENDBRANCH  20  24
BRANCH  21  30
HETATM   30  O   UNL     1     -12.331  15.466  70.734  1.00  0.00    -0.334 OA 
HETATM   31  C   UNL     1     -12.090  16.333  71.834  1.00  0.00    -0.379 C  
ENDBRANCH  21  30
ENDBRANCH  17  18
ENDBRANCH  15  17
ENDBRANCH  13  15
ENDBRANCH  12  13
ENDBRANCH  11  12
ENDBRANCH  10  11
ENDBRANCH   9  10
ENDBRANCH   3   4
ENDBRANCH   2   3
TORSDOF 11
ENDMDL
MODEL       97
REMARK 921   NORMALIZED FREE ENERGY PREDICTED BY IDOCK:   -5.23 KCAL/MOL
REMARK 922        TOTAL FREE ENERGY PREDICTED BY IDOCK:   -9.84 KCAL/MOL
REMARK 923 INTER-LIGAND FREE ENERGY PREDICTED BY IDOCK:   -8.13 KCAL/MOL
REMARK 924 INTRA-LIGAND FREE ENERGY PREDICTED BY IDOCK:   -1.71 KCAL/MOL
REMARK 927      BINDING AFFINITY PREDICTED BY RF-SCORE:    0.00 PKD
ROOT
HETATM    1  C   UNL     1     -10.716  19.380  67.107  1.00  0.00    -0.593 C  
HETATM    2  C   UNL     1     -10.357  18.263  68.074  1.00  0.00    -0.391 C  
ENDROOT
BRANCH   2   3
HETATM    3  O   UNL     1     -10.680  17.051  67.404  1.00  0.00    -0.318 OA 
BRANCH   3   4
HETATM    4  C   UNL     1     -11.094  15.956  68.099  1.00  0.00    -0.338 A  
HETATM    5  C   UNL     1     -11.095  15.890  69.499  1.00  0.00    -0.315 A  
HETATM    6  C   UNL     1     -11.505  14.730  70.163  1.00  0.00    -0.313 A  
HETATM    7  C   UNL     1     -11.922  13.620  69.433  1.00  0.00    -0.394 A  
HETATM    8  C   UNL     1     -11.938  13.677  68.040  1.00  0.00    -0.385 A  
HETATM    9  C   UNL     1     -11.534  14.837  67.360  1.00  0.00    -0.363 A  
BRANCH   9  10
HETATM   10  O   UNL     1     -11.633  14.703  65.994  1.00  0.00    -0.356 OA 
BRANCH  10  11
HETATM   11  C   UNL     1     -12.714  13.932  65.472  1.00  0.00    -0.499 C  
BRANCH  11  12
HETATM   12  C   UNL     1     -12.206  13.033  64.337  1.00  0.00    -0.406 C  
BRANCH  12  13
HETATM   13  N   UNL     1     -10.768  13.135  64.043  1.00  0.00    -0.516 NA 
HETATM   14  H   UNL     1     -10.374  13.955  64.504  1.00  0.00     0.000 HD 
BRANCH  13  15
HETATM   15  C   UNL     1      -9.966  11.940  64.368  1.00  0.00    -0.234 C  
HETATM   16  C   UNL     1      -9.971  11.041  63.121  1.00  0.00    -0.382 C  
BRANCH  15  17
HETATM   17  C   UNL     1     -10.474  11.168  65.619  1.00  0.00    -0.308 C  
BRANCH  17  18
HETATM   18  C   UNL     1      -9.547  11.344  66.801  1.00  0.00    -0.207 A  
HETATM   19  C   UNL     1      -8.914  12.575  67.006  1.00  0.00    -0.211 A  
HETATM   20  C   UNL     1      -7.883  12.691  67.947  1.00  0.00    -0.154 A  
HETATM   21  C   UNL     1      -7.548  11.611  68.775  1.00  0.00    -0.119 A  
HETATM   22  C   UNL     1      -9.227  10.271  67.635  1.00  0.00    -0.154 A  
HETATM   23  C   UNL     1      -8.251  10.411  68.628  1.00  0.00    -0.121 A  
BRANCH  20  24
HETATM   24  S   UNL     1      -6.897  14.167  68.021  1.00  0.00    -0.163 S  
HETATM   25  O   UNL     1      -5.636  13.895  67.372  1.00  0.00    -0.351 OA 
HETATM   26  N   UNL     1      -7.683  15.259  67.014  1.00  0.00    -0.232 N  
HETATM   27  O   UNL     1      -7.016  14.735  69.343  1.00  0.00    -0.144 OA 
HETATM   28  H1  UNL     1      -7.117  16.106  67.056  1.00  0.00     0.000 HD 
HETATM   29  H2  UNL     1      -8.537  15.109  66.478  1.00  0.00     0.000 HD 
ENDBRANCH  20  24
BRANCH  21  30
HETATM   30  O   UNL     1      -6.543  11.806  69.681  1.00  0.00    -0.122 OA 
HETATM   31  C   UNL     1      -5.408  10.952  69.614  1.00  0.00    -0.039 C  
ENDBRANCH  21  30
ENDBRANCH  17  18
ENDBRANCH  15  17
ENDBRANCH  13  15
ENDBRANCH  12  13
ENDBRANCH  11  12
ENDBRANCH  10  11
ENDBRANCH   9  10
ENDBRANCH   3   4
ENDBRANCH   2   3
TORSDOF 11
ENDMDL
MODEL       98
REMARK 921   NORMALIZED FREE ENERGY PREDICTED BY IDOCK:   -5.23 KCAL/MOL
REMARK 922        TOTAL FREE ENERGY PREDICTED BY IDOCK:   -9.83 KCAL/MOL
REMARK 923 INTER-LIGAND FREE ENERGY PREDICTED BY IDOCK:   -8.71 KCAL/MOL
REMARK 924 INTRA-LIGAND FREE ENERGY PREDICTED BY IDOCK:   -1.12 KCAL/MOL
REMARK 927      BINDING AFFINITY PREDICTED BY RF-SCORE:    0.00 PKD
ROOT
HETATM    1  C   UNL     1     -11.682   7.995  72.477  1.00  0.00    -0.446 C  
HETATM    2  C   UNL     1     -11.862   9.215  71.586  1.00  0.00    -0.372 C  
ENDROOT
BRANCH   2   3
HETATM    3  O   UNL     1     -11.245   8.885  70.347  1.00  0.00    -0.252 OA 
BRANCH   3   4
HETATM    4  C   UNL     1     -10.087   9.488  69.960  1.00  0.00    -0.242 A  
HETATM    5  C   UNL     1      -8.834   9.160  70.495  1.00  0.00    -0.263 A  
HETATM    6  C   UNL     1      -7.679   9.830  70.081  1.00  0.00    -0.188 A  
HETATM    7  C   UNL     1      -7.764  10.838  69.124  1.00  0.00    -0.138 A  
HETATM    8  C   UNL     1      -9.003  11.165  68.575  1.00  0.00    -0.168 A  
HETATM    9  C   UNL     1     -10.170  10.496  68.977  1.00  0.00    -0.216 A  
BRANCH   9  10
HETATM   10  O   UNL     1     -11.287  10.950  68.314  1.00  0.00    -0.267 OA 
BRANCH  10  11
HETATM   11  C   UNL     1     -11.505  12.359  68.251  1.00  0.00    -0.310 C  
BRANCH  11  12
HETATM   12  C   UNL     1     -11.882  12.761  66.819  1.00  0.00    -0.382 C  
BRANCH  12  13
HETATM   13  N   UNL     1     -12.246  14.174  66.632  1.00  0.00    -0.483 NA 
HETATM   14  H   UNL     1     -12.063  14.698  67.488  1.00  0.00     0.000 HD 
BRANCH  13  15
HETATM   15  C   UNL     1     -11.611  14.848  65.483  1.00  0.00    -0.263 C  
HETATM   16  C   UNL     1     -12.243  14.261  64.211  1.00  0.00    -0.451 C  
BRANCH  15  17
HETATM   17  C   UNL     1     -10.062  14.710  65.457  1.00  0.00    -0.405 C  
BRANCH  17  18
HETATM   18  C   UNL     1      -9.393  15.721  66.361  1.00  0.00    -0.333 A  
HETATM   19  C   UNL     1      -9.996  16.967  66.569  1.00  0.00    -0.309 A  
HETATM   20  C   UNL     1      -9.290  17.995  67.207  1.00  0.00    -0.256 A  
HETATM   21  C   UNL     1      -8.018  17.760  67.746  1.00  0.00    -0.225 A  
HETATM   22  C   UNL     1      -8.132  15.479  66.909  1.00  0.00    -0.284 A  
HETATM   23  C   UNL     1      -7.460  16.484  67.614  1.00  0.00    -0.163 A  
BRANCH  20  24
HETATM   24  S   UNL     1      -9.940  19.648  67.233  1.00  0.00    -0.427 S  
HETATM   25  O   UNL     1     -10.124  20.034  68.613  1.00  0.00    -0.425 OA 
HETATM   26  N   UNL     1      -8.684  20.613  66.671  1.00  0.00    -0.552 N  
HETATM   27  O   UNL     1     -10.966  19.756  66.223  1.00  0.00    -0.365 OA 
HETATM   28  H1  UNL     1      -9.057  21.561  66.686  1.00  0.00     0.000 HD 
HETATM   29  H2  UNL     1      -7.753  20.316  66.379  1.00  0.00     0.000 HD 
ENDBRANCH  20  24
BRANCH  21  30
HETATM   30  O   UNL     1      -7.399  18.808  68.368  1.00  0.00    -0.270 OA 
HETATM   31  C   UNL     1      -6.371  18.517  69.306  1.00  0.00    -0.259 C  
ENDBRANCH  21  30
ENDBRANCH  17  18
ENDBRANCH  15  17
ENDBRANCH  13  15
ENDBRANCH  12  13
ENDBRANCH  11  12
ENDBRANCH  10  11
ENDBRANCH   9  10
ENDBRANCH   3   4
ENDBRANCH   2   3
TORSDOF 11
ENDMDL
MODEL       99
REMARK 921   NORMALIZED FREE ENERGY PREDICTED BY IDOCK:   -5.23 KCAL/MOL
REMARK 922        TOTAL FREE ENERGY PREDICTED BY IDOCK:   -9.83 KCAL/MOL
REMARK 923 INTER-LIGAND FREE ENERGY PREDICTED BY IDOCK:   -8.79 KCAL/MOL
REMARK 924 INTRA-LIGAND FREE ENERGY PREDICTED BY IDOCK:   -1.04 KCAL/MOL
REMARK 927      BINDING AFFINITY PREDICTED BY RF-SCORE:    0.00 PKD
ROOT
HETATM    1  C   UNL     1      -9.573  13.476  67.375  1.00  0.00    -0.227 C  
HETATM    2  C   UNL     1     -10.736  14.028  68.186  1.00  0.00    -0.246 C  
ENDROOT
BRANCH   2   3
HETATM    3  O   UNL     1     -11.219  12.938  68.962  1.00  0.00    -0.257 OA 
BRANCH   3   4
HETATM    4  C   UNL     1     -11.973  13.152  70.075  1.00  0.00    -0.321 A  
HETATM    5  C   UNL     1     -12.280  14.431  70.561  1.00  0.00    -0.411 A  
HETATM    6  C   UNL     1     -13.036  14.594  71.725  1.00  0.00    -0.420 A  
HETATM    7  C   UNL     1     -13.497  13.477  72.419  1.00  0.00    -0.685 A  
HETATM    8  C   UNL     1     -13.209  12.201  71.939  1.00  0.00    -0.474 A  
HETATM    9  C   UNL     1     -12.455  12.022  70.768  1.00  0.00    -0.279 A  
BRANCH   9  10
HETATM   10  O   UNL     1     -12.290  10.693  70.452  1.00  0.00    -0.302 OA 
BRANCH  10  11
HETATM   11  C   UNL     1     -10.964  10.166  70.433  1.00  0.00    -0.319 C  
BRANCH  11  12
HETATM   12  C   UNL     1     -10.728   9.315  71.687  1.00  0.00    -0.323 C  
BRANCH  12  13
HETATM   13  N   UNL     1     -11.907   8.595  72.196  1.00  0.00    -0.367 NA 
HETATM   14  H   UNL     1     -12.706   9.227  72.247  1.00  0.00     0.000 HD 
BRANCH  13  15
HETATM   15  C   UNL     1     -12.275   7.374  71.455  1.00  0.00    -0.342 C  
HETATM   16  C   UNL     1     -13.802   7.228  71.559  1.00  0.00    -0.463 C  
BRANCH  15  17
HETATM   17  C   UNL     1     -11.552   6.094  71.962  1.00  0.00    -0.364 C  
BRANCH  17  18
HETATM   18  C   UNL     1     -10.718   5.453  70.875  1.00  0.00    -0.243 A  
HETATM   19  C   UNL     1     -10.618   6.073  69.625  1.00  0.00    -0.367 A  
HETATM   20  C   UNL     1     -10.050   5.390  68.542  1.00  0.00    -0.177 A  
HETATM   21  C   UNL     1      -9.472   4.125  68.719  1.00  0.00    -0.163 A  
HETATM   22  C   UNL     1     -10.131   4.200  71.059  1.00  0.00    -0.130 A  
HETATM   23  C   UNL     1      -9.494   3.552  69.994  1.00  0.00    -0.253 A  
BRANCH  20  24
HETATM   24  S   UNL     1     -10.164   6.058  66.900  1.00  0.00    -0.233 S  
HETATM   25  O   UNL     1      -8.826   6.182  66.373  1.00  0.00    -0.132 OA 
HETATM   26  N   UNL     1     -10.884   4.842  65.990  1.00  0.00    -0.696 N  
HETATM   27  O   UNL     1     -11.130   7.132  66.905  1.00  0.00    -0.327 OA 
HETATM   28  H1  UNL     1     -10.949   5.225  65.047  1.00  0.00     0.000 HD 
HETATM   29  H2  UNL     1     -11.188   3.922  66.309  1.00  0.00     0.000 HD 
ENDBRANCH  20  24
BRANCH  21  30
HETATM   30  O   UNL     1      -8.924   3.529  67.618  1.00  0.00    -0.115 OA 
HETATM   31  C   UNL     1      -9.048   2.119  67.488  1.00  0.00    -0.157 C  
ENDBRANCH  21  30
ENDBRANCH  17  18
ENDBRANCH  15  17
ENDBRANCH  13  15
ENDBRANCH  12  13
ENDBRANCH  11  12
ENDBRANCH  10  11
ENDBRANCH   9  10
ENDBRANCH   3   4
ENDBRANCH   2   3
TORSDOF 11
ENDMDL
MODEL      100
REMARK 921   NORMALIZED FREE ENERGY PREDICTED BY IDOCK:   -5.22 KCAL/MOL
REMARK 922        TOTAL FREE ENERGY PREDICTED BY IDOCK:   -9.83 KCAL/MOL
REMARK 923 INTER-LIGAND FREE ENERGY PREDICTED BY IDOCK:   -8.81 KCAL/MOL
REMARK 924 INTRA-LIGAND FREE ENERGY PREDICTED BY IDOCK:   -1.02 KCAL/MOL
REMARK 927      BINDING AFFINITY PREDICTED BY RF-SCORE:    0.00 PKD
ROOT
HETATM    1  C   UNL     1      -7.190   9.178  67.353  1.00  0.00    -0.080 C  
HETATM    2  C   UNL     1      -7.282   8.203  68.517  1.00  0.00    -0.088 C  
ENDROOT
BRANCH   2   3
HETATM    3  O   UNL     1      -8.636   7.769  68.554  1.00  0.00    -0.128 OA 
BRANCH   3   4
HETATM    4  C   UNL     1      -8.951   6.486  68.883  1.00  0.00    -0.128 A  
HETATM    5  C   UNL     1      -8.588   5.381  68.101  1.00  0.00    -0.096 A  
HETATM    6  C   UNL     1      -8.961   4.086  68.471  1.00  0.00    -0.162 A  
HETATM    7  C   UNL     1      -9.701   3.879  69.633  1.00  0.00    -0.208 A  
HETATM    8  C   UNL     1     -10.056   4.968  70.426  1.00  0.00    -0.330 A  
HETATM    9  C   UNL     1      -9.685   6.274  70.069  1.00  0.00    -0.168 A  
BRANCH   9  10
HETATM   10  O   UNL     1     -10.116   7.208  70.983  1.00  0.00    -0.192 OA 
BRANCH  10  11
HETATM   11  C   UNL     1     -11.447   7.706  70.858  1.00  0.00    -0.282 C  
BRANCH  11  12
HETATM   12  C   UNL     1     -11.452   9.226  71.067  1.00  0.00    -0.319 C  
BRANCH  12  13
HETATM   13  N   UNL     1     -12.373   9.982  70.204  1.00  0.00    -0.504 NA 
HETATM   14  H   UNL     1     -13.113  10.403  70.767  1.00  0.00     0.000 HD 
BRANCH  13  15
HETATM   15  C   UNL     1     -11.746  11.007  69.347  1.00  0.00    -0.323 C  
HETATM   16  C   UNL     1     -10.244  10.688  69.291  1.00  0.00    -0.235 C  
BRANCH  15  17
HETATM   17  C   UNL     1     -11.994  12.463  69.832  1.00  0.00    -0.369 C  
BRANCH  17  18
HETATM   18  C   UNL     1     -11.751  13.471  68.730  1.00  0.00    -0.373 A  
HETATM   19  C   UNL     1     -12.075  13.141  67.409  1.00  0.00    -0.316 A  
HETATM   20  C   UNL     1     -11.648  13.957  66.353  1.00  0.00    -0.367 A  
HETATM   21  C   UNL     1     -10.993  15.169  66.608  1.00  0.00    -0.318 A  
HETATM   22  C   UNL     1     -11.112  14.685  68.988  1.00  0.00    -0.273 A  
HETATM   23  C   UNL     1     -10.756  15.537  67.936  1.00  0.00    -0.294 A  
BRANCH  20  24
HETATM   24  S   UNL     1     -11.817  13.410  64.671  1.00  0.00    -0.413 S  
HETATM   25  O   UNL     1     -12.933  12.496  64.608  1.00  0.00    -0.803 OA 
HETATM   26  N   UNL     1     -12.316  14.773  63.824  1.00  0.00    -1.082 N  
HETATM   27  O   UNL     1     -10.503  13.114  64.149  1.00  0.00    -0.421 OA 
HETATM   28  H1  UNL     1     -12.413  14.458  62.859  1.00  0.00     0.000 HD 
HETATM   29  H2  UNL     1     -12.486  15.708  64.193  1.00  0.00     0.000 HD 
ENDBRANCH  20  24
BRANCH  21  30
HETATM   30  O   UNL     1     -10.622  15.919  65.526  1.00  0.00    -0.363 OA 
HETATM   31  C   UNL     1     -10.059  17.202  65.763  1.00  0.00    -0.172 C  
ENDBRANCH  21  30
ENDBRANCH  17  18
ENDBRANCH  15  17
ENDBRANCH  13  15
ENDBRANCH  12  13
ENDBRANCH  11  12
ENDBRANCH  10  11
ENDBRANCH   9  10
ENDBRANCH   3   4
ENDBRANCH   2   3
TORSDOF 11
ENDMDL
MODEL      101
REMARK 921   NORMALIZED FREE ENERGY PREDICTED BY IDOCK:   -5.22 KCAL/MOL
REMARK 922        TOTAL FREE ENERGY PREDICTED BY IDOCK:   -9.82 KCAL/MOL
REMARK 923 INTER-LIGAND FREE ENERGY PREDICTED BY IDOCK:   -8.30 KCAL/MOL
REMARK 924 INTRA-LIGAND FREE ENERGY PREDICTED BY IDOCK:   -1.53 KCAL/MOL
REMARK 927      BINDING AFFINITY PREDICTED BY RF-SCORE:    0.00 PKD
ROOT
HETATM    1  C   UNL     1     -12.553  14.515  64.949  1.00  0.00    -0.246 C  
HETATM    2  C   UNL     1     -11.445  13.791  65.698  1.00  0.00    -0.310 C  
ENDROOT
BRANCH   2   3
HETATM    3  O   UNL     1     -12.023  12.580  66.170  1.00  0.00    -0.495 OA 
BRANCH   3   4
HETATM    4  C   UNL     1     -11.257  11.472  66.374  1.00  0.00    -0.243 A  
HETATM    5  C   UNL     1     -10.398  10.943  65.401  1.00  0.00    -0.326 A  
HETATM    6  C   UNL     1      -9.654   9.787  65.652  1.00  0.00    -0.329 A  
HETATM    7  C   UNL     1      -9.759   9.145  66.884  1.00  0.00    -0.254 A  
HETATM    8  C   UNL     1     -10.600   9.669  67.864  1.00  0.00    -0.308 A  
HETATM    9  C   UNL     1     -11.349  10.832  67.627  1.00  0.00    -0.252 A  
BRANCH   9  10
HETATM   10  O   UNL     1     -12.106  11.197  68.717  1.00  0.00    -0.522 OA 
BRANCH  10  11
HETATM   11  C   UNL     1     -11.548  11.006  70.017  1.00  0.00    -0.344 C  
BRANCH  11  12
HETATM   12  C   UNL     1     -12.368  11.788  71.051  1.00  0.00    -0.282 C  
BRANCH  12  13
HETATM   13  N   UNL     1     -13.030  13.003  70.549  1.00  0.00     0.098 NA 
HETATM   14  H   UNL     1     -13.895  13.167  71.065  1.00  0.00     0.000 HD 
BRANCH  13  15
HETATM   15  C   UNL     1     -12.202  14.224  70.549  1.00  0.00    -0.356 C  
HETATM   16  C   UNL     1     -12.882  15.229  71.493  1.00  0.00    -0.469 C  
BRANCH  15  17
HETATM   17  C   UNL     1     -11.992  14.836  69.135  1.00  0.00    -0.317 C  
BRANCH  17  18
HETATM   18  C   UNL     1     -10.696  15.611  69.046  1.00  0.00    -0.236 A  
HETATM   19  C   UNL     1     -10.661  16.818  68.339  1.00  0.00    -0.362 A  
HETATM   20  C   UNL     1      -9.435  17.430  68.047  1.00  0.00    -0.281 A  
HETATM   21  C   UNL     1      -8.238  16.908  68.554  1.00  0.00    -0.249 A  
HETATM   22  C   UNL     1      -9.508  15.096  69.565  1.00  0.00    -0.151 A  
HETATM   23  C   UNL     1      -8.292  15.751  69.339  1.00  0.00    -0.215 A  
BRANCH  20  24
HETATM   24  S   UNL     1      -9.363  18.806  66.925  1.00  0.00    -0.310 S  
HETATM   25  O   UNL     1     -10.703  19.320  66.762  1.00  0.00    -0.442 OA 
HETATM   26  N   UNL     1      -8.534  20.002  67.765  1.00  0.00    -0.306 N  
HETATM   27  O   UNL     1      -8.493  18.460  65.826  1.00  0.00    -0.468 OA 
HETATM   28  H1  UNL     1      -8.492  20.792  67.122  1.00  0.00     0.000 HD 
HETATM   29  H2  UNL     1      -8.155  19.951  68.711  1.00  0.00     0.000 HD 
ENDBRANCH  20  24
BRANCH  21  30
HETATM   30  O   UNL     1      -7.084  17.570  68.240  1.00  0.00    -0.195 OA 
HETATM   31  C   UNL     1      -5.960  16.800  67.837  1.00  0.00    -0.127 C  
ENDBRANCH  21  30
ENDBRANCH  17  18
ENDBRANCH  15  17
ENDBRANCH  13  15
ENDBRANCH  12  13
ENDBRANCH  11  12
ENDBRANCH  10  11
ENDBRANCH   9  10
ENDBRANCH   3   4
ENDBRANCH   2   3
TORSDOF 11
ENDMDL
MODEL      102
REMARK 921   NORMALIZED FREE ENERGY PREDICTED BY IDOCK:   -5.22 KCAL/MOL
REMARK 922        TOTAL FREE ENERGY PREDICTED BY IDOCK:   -9.82 KCAL/MOL
REMARK 923 INTER-LIGAND FREE ENERGY PREDICTED BY IDOCK:   -8.31 KCAL/MOL
REMARK 924 INTRA-LIGAND FREE ENERGY PREDICTED BY IDOCK:   -1.50 KCAL/MOL
REMARK 927      BINDING AFFINITY PREDICTED BY RF-SCORE:    0.00 PKD
ROOT
HETATM    1  C   UNL     1     -11.638  12.334  63.101  1.00  0.00    -0.283 C  
HETATM    2  C   UNL     1     -12.872  11.976  63.916  1.00  0.00    -0.284 C  
ENDROOT
BRANCH   2   3
HETATM    3  O   UNL     1     -13.048  13.042  64.842  1.00  0.00    -0.745 OA 
BRANCH   3   4
HETATM    4  C   UNL     1     -12.046  13.932  65.082  1.00  0.00    -0.403 A  
HETATM    5  C   UNL     1     -12.017  15.223  64.535  1.00  0.00    -0.276 A  
HETATM    6  C   UNL     1     -10.950  16.088  64.792  1.00  0.00    -0.373 A  
HETATM    7  C   UNL     1      -9.896  15.673  65.603  1.00  0.00    -0.369 A  
HETATM    8  C   UNL     1      -9.920  14.397  66.163  1.00  0.00    -0.328 A  
HETATM    9  C   UNL     1     -10.987  13.519  65.918  1.00  0.00    -0.278 A  
BRANCH   9  10
HETATM   10  O   UNL     1     -10.834  12.316  66.568  1.00  0.00    -0.244 OA 
BRANCH  10  11
HETATM   11  C   UNL     1     -10.492  12.339  67.953  1.00  0.00    -0.213 C  
BRANCH  11  12
HETATM   12  C   UNL     1     -11.766  12.474  68.798  1.00  0.00    -0.327 C  
BRANCH  12  13
HETATM   13  N   UNL     1     -12.236  13.850  69.023  1.00  0.00    -0.452 NA 
HETATM   14  H   UNL     1     -13.254  13.866  69.080  1.00  0.00     0.000 HD 
BRANCH  13  15
HETATM   15  C   UNL     1     -11.653  14.538  70.190  1.00  0.00    -0.276 C  
HETATM   16  C   UNL     1     -12.472  14.111  71.419  1.00  0.00    -0.438 C  
BRANCH  15  17
HETATM   17  C   UNL     1     -11.617  16.086  70.049  1.00  0.00    -0.316 C  
BRANCH  17  18
HETATM   18  C   UNL     1     -10.373  16.555  69.328  1.00  0.00    -0.318 A  
HETATM   19  C   UNL     1      -9.209  15.780  69.383  1.00  0.00    -0.263 A  
HETATM   20  C   UNL     1      -7.992  16.301  68.925  1.00  0.00    -0.230 A  
HETATM   21  C   UNL     1      -7.941  17.555  68.303  1.00  0.00    -0.259 A  
HETATM   22  C   UNL     1     -10.329  17.799  68.696  1.00  0.00    -0.351 A  
HETATM   23  C   UNL     1      -9.127  18.285  68.169  1.00  0.00    -0.310 A  
BRANCH  20  24
HETATM   24  S   UNL     1      -6.472  15.436  69.238  1.00  0.00    -0.148 S  
HETATM   25  O   UNL     1      -5.824  15.197  67.970  1.00  0.00    -0.124 OA 
HETATM   26  N   UNL     1      -5.495  16.555  70.026  1.00  0.00    -0.185 N  
HETATM   27  O   UNL     1      -6.720  14.409  70.223  1.00  0.00    -0.128 OA 
HETATM   28  H1  UNL     1      -4.623  16.059  70.205  1.00  0.00     0.000 HD 
HETATM   29  H2  UNL     1      -5.724  17.518  70.270  1.00  0.00     0.000 HD 
ENDBRANCH  20  24
BRANCH  21  30
HETATM   30  O   UNL     1      -6.719  17.988  67.868  1.00  0.00    -0.186 OA 
HETATM   31  C   UNL     1      -6.592  19.349  67.476  1.00  0.00    -0.208 C  
ENDBRANCH  21  30
ENDBRANCH  17  18
ENDBRANCH  15  17
ENDBRANCH  13  15
ENDBRANCH  12  13
ENDBRANCH  11  12
ENDBRANCH  10  11
ENDBRANCH   9  10
ENDBRANCH   3   4
ENDBRANCH   2   3
TORSDOF 11
ENDMDL
MODEL      103
REMARK 921   NORMALIZED FREE ENERGY PREDICTED BY IDOCK:   -5.21 KCAL/MOL
REMARK 922        TOTAL FREE ENERGY PREDICTED BY IDOCK:   -9.80 KCAL/MOL
REMARK 923 INTER-LIGAND FREE ENERGY PREDICTED BY IDOCK:   -8.63 KCAL/MOL
REMARK 924 INTRA-LIGAND FREE ENERGY PREDICTED BY IDOCK:   -1.18 KCAL/MOL
REMARK 927      BINDING AFFINITY PREDICTED BY RF-SCORE:    0.00 PKD
ROOT
HETATM    1  C   UNL     1      -7.867   8.384  74.336  1.00  0.00    -0.258 C  
HETATM    2  C   UNL     1      -7.727   8.138  72.842  1.00  0.00    -0.140 C  
ENDROOT
BRANCH   2   3
HETATM    3  O   UNL     1      -8.785   8.864  72.228  1.00  0.00    -0.395 OA 
BRANCH   3   4
HETATM    4  C   UNL     1      -9.900   8.226  71.776  1.00  0.00    -0.218 A  
HETATM    5  C   UNL     1     -11.015   7.961  72.584  1.00  0.00    -0.440 A  
HETATM    6  C   UNL     1     -12.123   7.278  72.076  1.00  0.00    -0.327 A  
HETATM    7  C   UNL     1     -12.132   6.852  70.750  1.00  0.00    -0.400 A  
HETATM    8  C   UNL     1     -11.035   7.120  69.933  1.00  0.00    -0.278 A  
HETATM    9  C   UNL     1      -9.917   7.810  70.428  1.00  0.00    -0.188 A  
BRANCH   9  10
HETATM   10  O   UNL     1      -8.947   7.989  69.469  1.00  0.00    -0.146 OA 
BRANCH  10  11
HETATM   11  C   UNL     1      -8.972   7.142  68.321  1.00  0.00    -0.125 C  
BRANCH  11  12
HETATM   12  C   UNL     1      -8.911   7.995  67.047  1.00  0.00    -0.133 C  
BRANCH  12  13
HETATM   13  N   UNL     1     -10.169   8.656  66.665  1.00  0.00    -0.289 NA 
HETATM   14  H   UNL     1     -10.957   8.197  67.123  1.00  0.00     0.000 HD 
BRANCH  13  15
HETATM   15  C   UNL     1     -10.223  10.110  66.906  1.00  0.00    -0.236 C  
HETATM   16  C   UNL     1      -8.820  10.544  67.360  1.00  0.00    -0.132 C  
BRANCH  15  17
HETATM   17  C   UNL     1     -11.305  10.532  67.941  1.00  0.00    -0.297 C  
BRANCH  17  18
HETATM   18  C   UNL     1     -11.309  12.027  68.171  1.00  0.00    -0.349 A  
HETATM   19  C   UNL     1     -11.574  12.528  69.450  1.00  0.00    -0.368 A  
HETATM   20  C   UNL     1     -11.812  13.896  69.637  1.00  0.00    -0.327 A  
HETATM   21  C   UNL     1     -11.675  14.797  68.572  1.00  0.00    -0.317 A  
HETATM   22  C   UNL     1     -11.157  12.922  67.110  1.00  0.00    -0.309 A  
HETATM   23  C   UNL     1     -11.318  14.297  67.315  1.00  0.00    -0.350 A  
BRANCH  20  24
HETATM   24  S   UNL     1     -12.413  14.498  71.197  1.00  0.00    -0.367 S  
HETATM   25  O   UNL     1     -11.364  15.278  71.810  1.00  0.00    -0.408 OA 
HETATM   26  N   UNL     1     -13.609  15.609  70.796  1.00  0.00    -0.809 N  
HETATM   27  O   UNL     1     -13.116  13.427  71.864  1.00  0.00    -0.373 OA 
HETATM   28  H1  UNL     1     -13.954  15.954  71.691  1.00  0.00     0.000 HD 
HETATM   29  H2  UNL     1     -13.921  15.879  69.864  1.00  0.00     0.000 HD 
ENDBRANCH  20  24
BRANCH  21  30
HETATM   30  O   UNL     1     -11.908  16.117  68.836  1.00  0.00    -0.338 OA 
HETATM   31  C   UNL     1     -10.885  17.053  68.520  1.00  0.00    -0.310 C  
ENDBRANCH  21  30
ENDBRANCH  17  18
ENDBRANCH  15  17
ENDBRANCH  13  15
ENDBRANCH  12  13
ENDBRANCH  11  12
ENDBRANCH  10  11
ENDBRANCH   9  10
ENDBRANCH   3   4
ENDBRANCH   2   3
TORSDOF 11
ENDMDL
MODEL      104
REMARK 921   NORMALIZED FREE ENERGY PREDICTED BY IDOCK:   -5.21 KCAL/MOL
REMARK 922        TOTAL FREE ENERGY PREDICTED BY IDOCK:   -9.80 KCAL/MOL
REMARK 923 INTER-LIGAND FREE ENERGY PREDICTED BY IDOCK:   -9.43 KCAL/MOL
REMARK 924 INTRA-LIGAND FREE ENERGY PREDICTED BY IDOCK:   -0.37 KCAL/MOL
REMARK 927      BINDING AFFINITY PREDICTED BY RF-SCORE:    0.00 PKD
ROOT
HETATM    1  C   UNL     1     -11.851  15.409  64.368  1.00  0.00    -0.260 C  
HETATM    2  C   UNL     1     -10.652  16.137  64.956  1.00  0.00    -0.276 C  
ENDROOT
BRANCH   2   3
HETATM    3  O   UNL     1     -11.032  17.506  65.039  1.00  0.00    -0.754 OA 
BRANCH   3   4
HETATM    4  C   UNL     1     -10.619  18.285  66.077  1.00  0.00    -0.296 A  
HETATM    5  C   UNL     1     -10.197  19.612  65.920  1.00  0.00    -0.536 A  
HETATM    6  C   UNL     1      -9.757  20.359  67.017  1.00  0.00    -0.588 A  
HETATM    7  C   UNL     1      -9.735  19.787  68.286  1.00  0.00    -0.499 A  
HETATM    8  C   UNL     1     -10.164  18.471  68.456  1.00  0.00    -0.389 A  
HETATM    9  C   UNL     1     -10.614  17.711  67.365  1.00  0.00    -0.318 A  
BRANCH   9  10
HETATM   10  O   UNL     1     -11.006  16.445  67.737  1.00  0.00    -0.325 OA 
BRANCH  10  11
HETATM   11  C   UNL     1     -10.240  15.770  68.733  1.00  0.00    -0.217 C  
BRANCH  11  12
HETATM   12  C   UNL     1      -9.739  14.430  68.180  1.00  0.00    -0.223 C  
BRANCH  12  13
HETATM   13  N   UNL     1     -10.131  13.239  68.951  1.00  0.00    -0.430 NA 
HETATM   14  H   UNL     1      -9.903  13.371  69.937  1.00  0.00     0.000 HD 
BRANCH  13  15
HETATM   15  C   UNL     1     -11.540  12.824  68.809  1.00  0.00    -0.312 C  
HETATM   16  C   UNL     1     -11.787  11.711  69.839  1.00  0.00    -0.434 C  
BRANCH  15  17
HETATM   17  C   UNL     1     -11.911  12.354  67.374  1.00  0.00    -0.360 C  
BRANCH  17  18
HETATM   18  C   UNL     1     -10.963  11.289  66.869  1.00  0.00    -0.348 A  
HETATM   19  C   UNL     1     -10.249  11.504  65.686  1.00  0.00    -0.292 A  
HETATM   20  C   UNL     1      -9.550  10.451  65.081  1.00  0.00    -0.271 A  
HETATM   21  C   UNL     1      -9.461   9.201  65.707  1.00  0.00    -0.254 A  
HETATM   22  C   UNL     1     -10.864  10.050  67.504  1.00  0.00    -0.326 A  
HETATM   23  C   UNL     1     -10.101   9.022  66.938  1.00  0.00    -0.338 A  
BRANCH  20  24
HETATM   24  S   UNL     1      -8.872  10.644  63.450  1.00  0.00    -0.181 S  
HETATM   25  O   UNL     1      -7.444  10.446  63.533  1.00  0.00    -0.126 OA 
HETATM   26  N   UNL     1      -9.449   9.322  62.586  1.00  0.00    -0.490 N  
HETATM   27  O   UNL     1      -9.492  11.789  62.825  1.00  0.00    -0.347 OA 
HETATM   28  H1  UNL     1      -9.060   9.432  61.650  1.00  0.00     0.000 HD 
HETATM   29  H2  UNL     1     -10.055   8.574  62.923  1.00  0.00     0.000 HD 
ENDBRANCH  20  24
BRANCH  21  30
HETATM   30  O   UNL     1      -8.748   8.229  65.063  1.00  0.00    -0.128 OA 
HETATM   31  C   UNL     1      -8.647   6.953  65.682  1.00  0.00    -0.110 C  
ENDBRANCH  21  30
ENDBRANCH  17  18
ENDBRANCH  15  17
ENDBRANCH  13  15
ENDBRANCH  12  13
ENDBRANCH  11  12
ENDBRANCH  10  11
ENDBRANCH   9  10
ENDBRANCH   3   4
ENDBRANCH   2   3
TORSDOF 11
ENDMDL
MODEL      105
REMARK 921   NORMALIZED FREE ENERGY PREDICTED BY IDOCK:   -5.20 KCAL/MOL
REMARK 922        TOTAL FREE ENERGY PREDICTED BY IDOCK:   -9.79 KCAL/MOL
REMARK 923 INTER-LIGAND FREE ENERGY PREDICTED BY IDOCK:   -7.65 KCAL/MOL
REMARK 924 INTRA-LIGAND FREE ENERGY PREDICTED BY IDOCK:   -2.15 KCAL/MOL
REMARK 927      BINDING AFFINITY PREDICTED BY RF-SCORE:    0.00 PKD
ROOT
HETATM    1  C   UNL     1     -11.592  14.109  66.664  1.00  0.00    -0.399 C  
HETATM    2  C   UNL     1     -11.886  12.773  67.329  1.00  0.00    -0.350 C  
ENDROOT
BRANCH   2   3
HETATM    3  O   UNL     1     -11.200  12.800  68.575  1.00  0.00    -0.243 OA 
BRANCH   3   4
HETATM    4  C   UNL     1     -11.879  12.684  69.749  1.00  0.00    -0.309 A  
HETATM    5  C   UNL     1     -12.130  11.454  70.373  1.00  0.00    -0.473 A  
HETATM    6  C   UNL     1     -12.856  11.388  71.565  1.00  0.00    -0.508 A  
HETATM    7  C   UNL     1     -13.341  12.556  72.151  1.00  0.00    -0.540 A  
HETATM    8  C   UNL     1     -13.087  13.786  71.547  1.00  0.00    -0.435 A  
HETATM    9  C   UNL     1     -12.354  13.867  70.352  1.00  0.00    -0.363 A  
BRANCH   9  10
HETATM   10  O   UNL     1     -12.199  15.165  69.922  1.00  0.00    -0.319 OA 
BRANCH  10  11
HETATM   11  C   UNL     1     -11.102  15.917  70.439  1.00  0.00    -0.370 C  
BRANCH  11  12
HETATM   12  C   UNL     1      -9.968  15.955  69.407  1.00  0.00    -0.274 C  
BRANCH  12  13
HETATM   13  N   UNL     1      -9.115  14.757  69.358  1.00  0.00    -0.412 NA 
HETATM   14  H   UNL     1      -9.609  13.996  68.891  1.00  0.00     0.000 HD 
BRANCH  13  15
HETATM   15  C   UNL     1      -7.786  14.947  68.745  1.00  0.00    -0.149 C  
HETATM   16  C   UNL     1      -7.562  16.462  68.618  1.00  0.00    -0.197 C  
BRANCH  15  17
HETATM   17  C   UNL     1      -7.626  14.238  67.371  1.00  0.00    -0.185 C  
BRANCH  17  18
HETATM   18  C   UNL     1      -7.626  12.732  67.513  1.00  0.00    -0.162 A  
HETATM   19  C   UNL     1      -8.392  11.956  66.637  1.00  0.00    -0.117 A  
HETATM   20  C   UNL     1      -8.592  10.593  66.891  1.00  0.00    -0.126 A  
HETATM   21  C   UNL     1      -7.938   9.962  67.958  1.00  0.00    -0.100 A  
HETATM   22  C   UNL     1      -6.961  12.105  68.567  1.00  0.00    -0.091 A  
HETATM   23  C   UNL     1      -7.098  10.728  68.774  1.00  0.00    -0.079 A  
BRANCH  20  24
HETATM   24  S   UNL     1      -9.776   9.667  65.944  1.00  0.00    -0.286 S  
HETATM   25  O   UNL     1     -10.104  10.434  64.765  1.00  0.00    -0.339 OA 
HETATM   26  N   UNL     1      -8.924   8.333  65.377  1.00  0.00    -0.384 N  
HETATM   27  O   UNL     1     -10.760   9.116  66.847  1.00  0.00    -0.203 OA 
HETATM   28  H1  UNL     1      -9.604   7.802  64.833  1.00  0.00     0.000 HD 
HETATM   29  H2  UNL     1      -7.944   8.105  65.540  1.00  0.00     0.000 HD 
ENDBRANCH  20  24
BRANCH  21  30
HETATM   30  O   UNL     1      -8.170   8.627  68.132  1.00  0.00    -0.114 OA 
HETATM   31  C   UNL     1      -8.134   8.109  69.455  1.00  0.00    -0.119 C  
ENDBRANCH  21  30
ENDBRANCH  17  18
ENDBRANCH  15  17
ENDBRANCH  13  15
ENDBRANCH  12  13
ENDBRANCH  11  12
ENDBRANCH  10  11
ENDBRANCH   9  10
ENDBRANCH   3   4
ENDBRANCH   2   3
TORSDOF 11
ENDMDL
MODEL      106
REMARK 921   NORMALIZED FREE ENERGY PREDICTED BY IDOCK:   -5.20 KCAL/MOL
REMARK 922        TOTAL FREE ENERGY PREDICTED BY IDOCK:   -9.79 KCAL/MOL
REMARK 923 INTER-LIGAND FREE ENERGY PREDICTED BY IDOCK:   -8.33 KCAL/MOL
REMARK 924 INTRA-LIGAND FREE ENERGY PREDICTED BY IDOCK:   -1.46 KCAL/MOL
REMARK 927      BINDING AFFINITY PREDICTED BY RF-SCORE:    0.00 PKD
ROOT
HETATM    1  C   UNL     1     -10.993   6.099  68.510  1.00  0.00    -0.404 C  
HETATM    2  C   UNL     1     -10.057   7.181  67.995  1.00  0.00    -0.169 C  
ENDROOT
BRANCH   2   3
HETATM    3  O   UNL     1      -9.689   7.951  69.133  1.00  0.00    -0.159 OA 
BRANCH   3   4
HETATM    4  C   UNL     1      -8.426   7.894  69.637  1.00  0.00    -0.132 A  
HETATM    5  C   UNL     1      -7.342   8.583  69.075  1.00  0.00    -0.081 A  
HETATM    6  C   UNL     1      -6.059   8.468  69.616  1.00  0.00    -0.032 A  
HETATM    7  C   UNL     1      -5.843   7.662  70.732  1.00  0.00    -0.030 A  
HETATM    8  C   UNL     1      -6.915   6.982  71.308  1.00  0.00    -0.061 A  
HETATM    9  C   UNL     1      -8.210   7.092  70.777  1.00  0.00    -0.120 A  
BRANCH   9  10
HETATM   10  O   UNL     1      -9.131   6.359  71.491  1.00  0.00    -0.145 OA 
BRANCH  10  11
HETATM   11  C   UNL     1      -9.442   6.780  72.818  1.00  0.00    -0.141 C  
BRANCH  11  12
HETATM   12  C   UNL     1     -10.362   8.007  72.770  1.00  0.00    -0.339 C  
BRANCH  12  13
HETATM   13  N   UNL     1     -11.788   7.740  73.018  1.00  0.00    -0.631 NA 
HETATM   14  H   UNL     1     -12.008   7.907  74.001  1.00  0.00     0.000 HD 
BRANCH  13  15
HETATM   15  C   UNL     1     -12.732   8.478  72.157  1.00  0.00    -0.373 C  
HETATM   16  C   UNL     1     -13.711   7.445  71.576  1.00  0.00    -0.467 C  
BRANCH  15  17
HETATM   17  C   UNL     1     -12.041   9.294  71.029  1.00  0.00    -0.349 C  
BRANCH  17  18
HETATM   18  C   UNL     1     -12.447  10.751  71.061  1.00  0.00    -0.522 A  
HETATM   19  C   UNL     1     -11.912  11.638  70.121  1.00  0.00    -0.441 A  
HETATM   20  C   UNL     1     -12.088  13.020  70.273  1.00  0.00    -0.314 A  
HETATM   21  C   UNL     1     -12.897  13.527  71.298  1.00  0.00    -0.338 A  
HETATM   22  C   UNL     1     -13.265  11.252  72.075  1.00  0.00    -0.437 A  
HETATM   23  C   UNL     1     -13.505  12.626  72.179  1.00  0.00    -0.561 A  
BRANCH  20  24
HETATM   24  S   UNL     1     -11.190  14.158  69.246  1.00  0.00    -0.262 S  
HETATM   25  O   UNL     1     -12.149  14.982  68.547  1.00  0.00    -0.257 OA 
HETATM   26  N   UNL     1     -10.423  15.195  70.323  1.00  0.00    -0.503 N  
HETATM   27  O   UNL     1     -10.116  13.444  68.596  1.00  0.00    -0.225 OA 
HETATM   28  H1  UNL     1      -9.907  15.848  69.734  1.00  0.00     0.000 HD 
HETATM   29  H2  UNL     1     -10.463  15.175  71.342  1.00  0.00     0.000 HD 
ENDBRANCH  20  24
BRANCH  21  30
HETATM   30  O   UNL     1     -13.035  14.885  71.372  1.00  0.00    -0.309 OA 
HETATM   31  C   UNL     1     -14.308  15.410  71.723  1.00  0.00    -0.531 C  
ENDBRANCH  21  30
ENDBRANCH  17  18
ENDBRANCH  15  17
ENDBRANCH  13  15
ENDBRANCH  12  13
ENDBRANCH  11  12
ENDBRANCH  10  11
ENDBRANCH   9  10
ENDBRANCH   3   4
ENDBRANCH   2   3
TORSDOF 11
ENDMDL
MODEL      107
REMARK 921   NORMALIZED FREE ENERGY PREDICTED BY IDOCK:   -5.19 KCAL/MOL
REMARK 922        TOTAL FREE ENERGY PREDICTED BY IDOCK:   -9.77 KCAL/MOL
REMARK 923 INTER-LIGAND FREE ENERGY PREDICTED BY IDOCK:   -8.40 KCAL/MOL
REMARK 924 INTRA-LIGAND FREE ENERGY PREDICTED BY IDOCK:   -1.37 KCAL/MOL
REMARK 927      BINDING AFFINITY PREDICTED BY RF-SCORE:    0.00 PKD
ROOT
HETATM    1  C   UNL     1     -10.629   5.293  72.401  1.00  0.00    -0.280 C  
HETATM    2  C   UNL     1     -11.166   6.641  72.857  1.00  0.00    -0.191 C  
ENDROOT
BRANCH   2   3
HETATM    3  O   UNL     1     -12.022   7.091  71.814  1.00  0.00    -0.294 OA 
BRANCH   3   4
HETATM    4  C   UNL     1     -12.079   8.408  71.474  1.00  0.00    -0.301 A  
HETATM    5  C   UNL     1     -13.060   9.285  71.957  1.00  0.00    -0.512 A  
HETATM    6  C   UNL     1     -13.088  10.623  71.555  1.00  0.00    -0.527 A  
HETATM    7  C   UNL     1     -12.132  11.103  70.664  1.00  0.00    -0.477 A  
HETATM    8  C   UNL     1     -11.143  10.244  70.186  1.00  0.00    -0.385 A  
HETATM    9  C   UNL     1     -11.099   8.899  70.586  1.00  0.00    -0.262 A  
BRANCH   9  10
HETATM   10  O   UNL     1     -10.045   8.220  70.019  1.00  0.00    -0.190 OA 
BRANCH  10  11
HETATM   11  C   UNL     1      -8.749   8.392  70.591  1.00  0.00    -0.146 C  
BRANCH  11  12
HETATM   12  C   UNL     1      -7.676   8.174  69.516  1.00  0.00    -0.102 C  
BRANCH  12  13
HETATM   13  N   UNL     1      -8.096   8.459  68.135  1.00  0.00    -0.119 NA 
HETATM   14  H   UNL     1      -9.114   8.505  68.081  1.00  0.00     0.000 HD 
BRANCH  13  15
HETATM   15  C   UNL     1      -7.503   9.666  67.527  1.00  0.00    -0.091 C  
HETATM   16  C   UNL     1      -6.061   9.771  68.048  1.00  0.00    -0.054 C  
BRANCH  15  17
HETATM   17  C   UNL     1      -8.303  10.968  67.818  1.00  0.00    -0.118 C  
BRANCH  17  18
HETATM   18  C   UNL     1      -9.044  11.457  66.594  1.00  0.00    -0.187 A  
HETATM   19  C   UNL     1      -9.742  12.669  66.647  1.00  0.00    -0.249 A  
HETATM   20  C   UNL     1     -10.619  13.025  65.614  1.00  0.00    -0.282 A  
HETATM   21  C   UNL     1     -10.724  12.233  64.463  1.00  0.00    -0.319 A  
HETATM   22  C   UNL     1      -9.135  10.674  65.442  1.00  0.00    -0.214 A  
HETATM   23  C   UNL     1      -9.952  11.070  64.377  1.00  0.00    -0.368 A  
BRANCH  20  24
HETATM   24  S   UNL     1     -11.706  14.418  65.800  1.00  0.00    -0.351 S  
HETATM   25  O   UNL     1     -11.213  15.227  66.889  1.00  0.00    -0.322 OA 
HETATM   26  N   UNL     1     -11.458  15.343  64.418  1.00  0.00    -0.697 N  
HETATM   27  O   UNL     1     -13.070  13.956  65.691  1.00  0.00    -0.625 OA 
HETATM   28  H1  UNL     1     -12.081  16.143  64.525  1.00  0.00     0.000 HD 
HETATM   29  H2  UNL     1     -10.823  15.149  63.644  1.00  0.00     0.000 HD 
ENDBRANCH  20  24
BRANCH  21  30
HETATM   30  O   UNL     1     -11.588  12.655  63.491  1.00  0.00    -0.465 OA 
HETATM   31  C   UNL     1     -12.766  11.891  63.267  1.00  0.00    -0.271 C  
ENDBRANCH  21  30
ENDBRANCH  17  18
ENDBRANCH  15  17
ENDBRANCH  13  15
ENDBRANCH  12  13
ENDBRANCH  11  12
ENDBRANCH  10  11
ENDBRANCH   9  10
ENDBRANCH   3   4
ENDBRANCH   2   3
TORSDOF 11
ENDMDL
MODEL      108
REMARK 921   NORMALIZED FREE ENERGY PREDICTED BY IDOCK:   -5.19 KCAL/MOL
REMARK 922        TOTAL FREE ENERGY PREDICTED BY IDOCK:   -9.77 KCAL/MOL
REMARK 923 INTER-LIGAND FREE ENERGY PREDICTED BY IDOCK:   -8.76 KCAL/MOL
REMARK 924 INTRA-LIGAND FREE ENERGY PREDICTED BY IDOCK:   -1.01 KCAL/MOL
REMARK 927      BINDING AFFINITY PREDICTED BY RF-SCORE:    0.00 PKD
ROOT
HETATM    1  C   UNL     1     -13.160  13.825  71.684  1.00  0.00    -0.456 C  
HETATM    2  C   UNL     1     -13.587  12.432  72.120  1.00  0.00    -0.306 C  
ENDROOT
BRANCH   2   3
HETATM    3  O   UNL     1     -12.653  11.537  71.531  1.00  0.00    -0.329 OA 
BRANCH   3   4
HETATM    4  C   UNL     1     -12.877  10.193  71.528  1.00  0.00    -0.443 A  
HETATM    5  C   UNL     1     -14.010   9.602  72.103  1.00  0.00    -0.220 A  
HETATM    6  C   UNL     1     -14.178   8.215  72.097  1.00  0.00    -0.427 A  
HETATM    7  C   UNL     1     -13.212   7.399  71.513  1.00  0.00    -0.426 A  
HETATM    8  C   UNL     1     -12.086   7.976  70.926  1.00  0.00    -0.164 A  
HETATM    9  C   UNL     1     -11.907   9.368  70.920  1.00  0.00    -0.294 A  
BRANCH   9  10
HETATM   10  O   UNL     1     -10.746   9.743  70.285  1.00  0.00    -0.257 OA 
BRANCH  10  11
HETATM   11  C   UNL     1     -10.223   8.879  69.277  1.00  0.00    -0.209 C  
BRANCH  11  12
HETATM   12  C   UNL     1     -10.457   9.498  67.893  1.00  0.00    -0.241 C  
BRANCH  12  13
HETATM   13  N   UNL     1     -11.562  10.467  67.810  1.00  0.00    -0.667 NA 
HETATM   14  H   UNL     1     -12.154  10.393  68.638  1.00  0.00     0.000 HD 
BRANCH  13  15
HETATM   15  C   UNL     1     -11.162  11.872  67.600  1.00  0.00    -0.276 C  
HETATM   16  C   UNL     1     -12.152  12.744  68.389  1.00  0.00    -0.145 C  
BRANCH  15  17
HETATM   17  C   UNL     1     -11.113  12.290  66.103  1.00  0.00    -0.349 C  
BRANCH  17  18
HETATM   18  C   UNL     1     -10.615  13.708  65.932  1.00  0.00    -0.289 A  
HETATM   19  C   UNL     1      -9.638  14.206  66.800  1.00  0.00    -0.290 A  
HETATM   20  C   UNL     1      -9.333  15.573  66.810  1.00  0.00    -0.245 A  
HETATM   21  C   UNL     1      -9.915  16.441  65.878  1.00  0.00    -0.332 A  
HETATM   22  C   UNL     1     -11.187  14.567  64.992  1.00  0.00    -0.384 A  
HETATM   23  C   UNL     1     -10.823  15.917  64.951  1.00  0.00    -0.420 A  
BRANCH  20  24
HETATM   24  S   UNL     1      -8.299  16.253  68.086  1.00  0.00    -0.177 S  
HETATM   25  O   UNL     1      -7.600  15.162  68.723  1.00  0.00    -0.119 OA 
HETATM   26  N   UNL     1      -7.113  17.114  67.264  1.00  0.00    -0.156 N  
HETATM   27  O   UNL     1      -9.051  17.256  68.803  1.00  0.00    -0.270 OA 
HETATM   28  H1  UNL     1      -6.520  17.504  67.996  1.00  0.00     0.000 HD 
HETATM   29  H2  UNL     1      -7.009  17.223  66.255  1.00  0.00     0.000 HD 
ENDBRANCH  20  24
BRANCH  21  30
HETATM   30  O   UNL     1      -9.556  17.758  65.940  1.00  0.00    -0.517 OA 
HETATM   31  C   UNL     1     -10.586  18.736  65.895  1.00  0.00    -0.352 C  
ENDBRANCH  21  30
ENDBRANCH  17  18
ENDBRANCH  15  17
ENDBRANCH  13  15
ENDBRANCH  12  13
ENDBRANCH  11  12
ENDBRANCH  10  11
ENDBRANCH   9  10
ENDBRANCH   3   4
ENDBRANCH   2   3
TORSDOF 11
ENDMDL
MODEL      109
REMARK 921   NORMALIZED FREE ENERGY PREDICTED BY IDOCK:   -5.18 KCAL/MOL
REMARK 922        TOTAL FREE ENERGY PREDICTED BY IDOCK:   -9.75 KCAL/MOL
REMARK 923 INTER-LIGAND FREE ENERGY PREDICTED BY IDOCK:   -8.18 KCAL/MOL
REMARK 924 INTRA-LIGAND FREE ENERGY PREDICTED BY IDOCK:   -1.58 KCAL/MOL
REMARK 927      BINDING AFFINITY PREDICTED BY RF-SCORE:    0.00 PKD
ROOT
HETATM    1  C   UNL     1      -8.543   9.147  67.552  1.00  0.00    -0.116 C  
HETATM    2  C   UNL     1      -9.117  10.005  68.670  1.00  0.00    -0.139 C  
ENDROOT
BRANCH   2   3
HETATM    3  O   UNL     1     -10.414   9.483  68.932  1.00  0.00    -0.206 OA 
BRANCH   3   4
HETATM    4  C   UNL     1     -10.735   8.992  70.161  1.00  0.00    -0.233 A  
HETATM    5  C   UNL     1      -9.988   8.000  70.811  1.00  0.00    -0.202 A  
HETATM    6  C   UNL     1     -10.378   7.512  72.061  1.00  0.00    -0.236 A  
HETATM    7  C   UNL     1     -11.522   8.012  72.679  1.00  0.00    -0.465 A  
HETATM    8  C   UNL     1     -12.265   9.009  72.048  1.00  0.00    -0.446 A  
HETATM    9  C   UNL     1     -11.883   9.512  70.795  1.00  0.00    -0.277 A  
BRANCH   9  10
HETATM   10  O   UNL     1     -12.734  10.496  70.346  1.00  0.00    -0.331 OA 
BRANCH  10  11
HETATM   11  C   UNL     1     -12.488  11.838  70.762  1.00  0.00    -0.312 C  
BRANCH  11  12
HETATM   12  C   UNL     1     -11.851  12.628  69.611  1.00  0.00    -0.311 C  
BRANCH  12  13
HETATM   13  N   UNL     1     -12.024  12.046  68.270  1.00  0.00    -0.463 NA 
HETATM   14  H   UNL     1     -13.017  11.978  68.045  1.00  0.00     0.000 HD 
BRANCH  13  15
HETATM   15  C   UNL     1     -11.306  12.734  67.181  1.00  0.00    -0.314 C  
HETATM   16  C   UNL     1     -11.154  11.723  66.033  1.00  0.00    -0.363 C  
BRANCH  15  17
HETATM   17  C   UNL     1      -9.926  13.311  67.609  1.00  0.00    -0.229 C  
BRANCH  17  18
HETATM   18  C   UNL     1      -9.708  14.706  67.066  1.00  0.00    -0.247 A  
HETATM   19  C   UNL     1      -8.761  15.540  67.668  1.00  0.00    -0.183 A  
HETATM   20  C   UNL     1      -8.706  16.901  67.337  1.00  0.00    -0.203 A  
HETATM   21  C   UNL     1      -9.517  17.421  66.319  1.00  0.00    -0.226 A  
HETATM   22  C   UNL     1     -10.508  15.217  66.042  1.00  0.00    -0.330 A  
HETATM   23  C   UNL     1     -10.397  16.558  65.658  1.00  0.00    -0.342 A  
BRANCH  20  24
HETATM   24  S   UNL     1      -7.699  18.016  68.285  1.00  0.00    -0.290 S  
HETATM   25  O   UNL     1      -6.736  17.232  69.022  1.00  0.00    -0.216 OA 
HETATM   26  N   UNL     1      -6.798  18.858  67.143  1.00  0.00    -0.202 N  
HETATM   27  O   UNL     1      -8.555  19.013  68.885  1.00  0.00    -0.333 OA 
HETATM   28  H1  UNL     1      -6.220  19.497  67.687  1.00  0.00     0.000 HD 
HETATM   29  H2  UNL     1      -6.823  18.752  66.129  1.00  0.00     0.000 HD 
ENDBRANCH  20  24
BRANCH  21  30
HETATM   30  O   UNL     1      -9.395  18.754  66.042  1.00  0.00    -0.478 OA 
HETATM   31  C   UNL     1     -10.545  19.576  66.191  1.00  0.00    -0.487 C  
ENDBRANCH  21  30
ENDBRANCH  17  18
ENDBRANCH  15  17
ENDBRANCH  13  15
ENDBRANCH  12  13
ENDBRANCH  11  12
ENDBRANCH  10  11
ENDBRANCH   9  10
ENDBRANCH   3   4
ENDBRANCH   2   3
TORSDOF 11
ENDMDL
MODEL      110
REMARK 921   NORMALIZED FREE ENERGY PREDICTED BY IDOCK:   -5.18 KCAL/MOL
REMARK 922        TOTAL FREE ENERGY PREDICTED BY IDOCK:   -9.75 KCAL/MOL
REMARK 923 INTER-LIGAND FREE ENERGY PREDICTED BY IDOCK:   -8.85 KCAL/MOL
REMARK 924 INTRA-LIGAND FREE ENERGY PREDICTED BY IDOCK:   -0.90 KCAL/MOL
REMARK 927      BINDING AFFINITY PREDICTED BY RF-SCORE:    0.00 PKD
ROOT
HETATM    1  C   UNL     1      -9.165   7.867  68.436  1.00  0.00    -0.134 C  
HETATM    2  C   UNL     1      -9.129   8.206  69.918  1.00  0.00    -0.151 C  
ENDROOT
BRANCH   2   3
HETATM    3  O   UNL     1      -9.769   9.470  70.043  1.00  0.00    -0.204 OA 
BRANCH   3   4
HETATM    4  C   UNL     1     -10.933   9.599  70.738  1.00  0.00    -0.327 A  
HETATM    5  C   UNL     1     -11.369   8.665  71.687  1.00  0.00    -0.377 A  
HETATM    6  C   UNL     1     -12.587   8.832  72.352  1.00  0.00    -0.430 A  
HETATM    7  C   UNL     1     -13.385   9.940  72.076  1.00  0.00    -0.532 A  
HETATM    8  C   UNL     1     -12.956  10.883  71.143  1.00  0.00    -0.449 A  
HETATM    9  C   UNL     1     -11.733  10.730  70.472  1.00  0.00    -0.351 A  
BRANCH   9  10
HETATM   10  O   UNL     1     -11.481  11.768  69.604  1.00  0.00    -0.276 OA 
BRANCH  10  11
HETATM   11  C   UNL     1     -12.068  13.037  69.886  1.00  0.00    -0.277 C  
BRANCH  11  12
HETATM   12  C   UNL     1     -12.019  13.920  68.631  1.00  0.00    -0.366 C  
BRANCH  12  13
HETATM   13  N   UNL     1     -11.600  13.241  67.395  1.00  0.00    -0.331 NA 
HETATM   14  H   UNL     1     -12.115  12.368  67.284  1.00  0.00     0.000 HD 
BRANCH  13  15
HETATM   15  C   UNL     1     -11.700  14.046  66.162  1.00  0.00    -0.384 C  
HETATM   16  C   UNL     1     -12.636  13.290  65.206  1.00  0.00    -0.528 C  
BRANCH  15  17
HETATM   17  C   UNL     1     -10.326  14.335  65.492  1.00  0.00    -0.374 C  
BRANCH  17  18
HETATM   18  C   UNL     1      -9.466  15.243  66.342  1.00  0.00    -0.326 A  
HETATM   19  C   UNL     1      -9.774  16.605  66.427  1.00  0.00    -0.306 A  
HETATM   20  C   UNL     1      -8.868  17.499  67.012  1.00  0.00    -0.240 A  
HETATM   21  C   UNL     1      -7.697  17.030  67.622  1.00  0.00    -0.170 A  
HETATM   22  C   UNL     1      -8.308  14.771  66.962  1.00  0.00    -0.228 A  
HETATM   23  C   UNL     1      -7.442  15.655  67.615  1.00  0.00    -0.186 A  
BRANCH  20  24
HETATM   24  S   UNL     1      -9.124  19.252  66.881  1.00  0.00    -0.331 S  
HETATM   25  O   UNL     1      -8.175  19.772  65.925  1.00  0.00    -0.347 OA 
HETATM   26  N   UNL     1     -10.625  19.412  66.142  1.00  0.00    -0.480 N  
HETATM   27  O   UNL     1      -9.310  19.791  68.208  1.00  0.00    -0.345 OA 
HETATM   28  H1  UNL     1     -10.772  20.418  66.066  1.00  0.00     0.000 HD 
HETATM   29  H2  UNL     1     -11.251  18.668  65.836  1.00  0.00     0.000 HD 
ENDBRANCH  20  24
BRANCH  21  30
HETATM   30  O   UNL     1      -6.870  17.961  68.187  1.00  0.00    -0.198 OA 
HETATM   31  C   UNL     1      -5.894  17.513  69.118  1.00  0.00    -0.202 C  
ENDBRANCH  21  30
ENDBRANCH  17  18
ENDBRANCH  15  17
ENDBRANCH  13  15
ENDBRANCH  12  13
ENDBRANCH  11  12
ENDBRANCH  10  11
ENDBRANCH   9  10
ENDBRANCH   3   4
ENDBRANCH   2   3
TORSDOF 11
ENDMDL
MODEL      111
REMARK 921   NORMALIZED FREE ENERGY PREDICTED BY IDOCK:   -5.17 KCAL/MOL
REMARK 922        TOTAL FREE ENERGY PREDICTED BY IDOCK:   -9.73 KCAL/MOL
REMARK 923 INTER-LIGAND FREE ENERGY PREDICTED BY IDOCK:   -8.53 KCAL/MOL
REMARK 924 INTRA-LIGAND FREE ENERGY PREDICTED BY IDOCK:   -1.20 KCAL/MOL
REMARK 927      BINDING AFFINITY PREDICTED BY RF-SCORE:    0.00 PKD
ROOT
HETATM    1  C   UNL     1     -13.315  12.209  72.054  1.00  0.00    -0.470 C  
HETATM    2  C   UNL     1     -13.188  10.752  71.635  1.00  0.00    -0.383 C  
ENDROOT
BRANCH   2   3
HETATM    3  O   UNL     1     -12.346  10.749  70.489  1.00  0.00    -0.312 OA 
BRANCH   3   4
HETATM    4  C   UNL     1     -11.133  10.132  70.513  1.00  0.00    -0.327 A  
HETATM    5  C   UNL     1     -10.741   9.248  71.528  1.00  0.00    -0.425 A  
HETATM    6  C   UNL     1      -9.472   8.663  71.520  1.00  0.00    -0.320 A  
HETATM    7  C   UNL     1      -8.577   8.953  70.492  1.00  0.00    -0.208 A  
HETATM    8  C   UNL     1      -8.960   9.821  69.470  1.00  0.00    -0.215 A  
HETATM    9  C   UNL     1     -10.233  10.412  69.463  1.00  0.00    -0.231 A  
BRANCH   9  10
HETATM   10  O   UNL     1     -10.426  11.223  68.369  1.00  0.00    -0.181 OA 
BRANCH  10  11
HETATM   11  C   UNL     1      -9.437  11.211  67.341  1.00  0.00    -0.164 C  
BRANCH  11  12
HETATM   12  C   UNL     1     -10.118  11.108  65.970  1.00  0.00    -0.244 C  
BRANCH  12  13
HETATM   13  N   UNL     1     -11.529  11.524  65.929  1.00  0.00    -0.240 NA 
HETATM   14  H   UNL     1     -11.748  12.095  66.746  1.00  0.00     0.000 HD 
BRANCH  13  15
HETATM   15  C   UNL     1     -11.952  12.219  64.698  1.00  0.00    -0.366 C  
HETATM   16  C   UNL     1     -10.704  12.368  63.814  1.00  0.00    -0.492 C  
BRANCH  15  17
HETATM   17  C   UNL     1     -12.623  13.597  64.960  1.00  0.00    -0.434 C  
BRANCH  17  18
HETATM   18  C   UNL     1     -11.673  14.567  65.627  1.00  0.00    -0.335 A  
HETATM   19  C   UNL     1     -11.330  14.384  66.971  1.00  0.00    -0.357 A  
HETATM   20  C   UNL     1     -10.646  15.388  67.668  1.00  0.00    -0.280 A  
HETATM   21  C   UNL     1     -10.195  16.537  67.005  1.00  0.00    -0.288 A  
HETATM   22  C   UNL     1     -11.213  15.703  64.959  1.00  0.00    -0.335 A  
HETATM   23  C   UNL     1     -10.462  16.669  65.638  1.00  0.00    -0.313 A  
BRANCH  20  24
HETATM   24  S   UNL     1     -10.448  15.282  69.430  1.00  0.00    -0.264 S  
HETATM   25  O   UNL     1      -9.033  15.279  69.722  1.00  0.00    -0.201 OA 
HETATM   26  N   UNL     1     -11.013  16.752  70.016  1.00  0.00    -0.388 N  
HETATM   27  O   UNL     1     -11.378  14.302  69.941  1.00  0.00    -0.253 OA 
HETATM   28  H1  UNL     1     -10.899  16.692  71.027  1.00  0.00     0.000 HD 
HETATM   29  H2  UNL     1     -11.388  17.534  69.478  1.00  0.00     0.000 HD 
ENDBRANCH  20  24
BRANCH  21  30
HETATM   30  O   UNL     1      -9.520  17.464  67.749  1.00  0.00    -0.254 OA 
HETATM   31  C   UNL     1      -8.616  18.331  67.077  1.00  0.00    -0.254 C  
ENDBRANCH  21  30
ENDBRANCH  17  18
ENDBRANCH  15  17
ENDBRANCH  13  15
ENDBRANCH  12  13
ENDBRANCH  11  12
ENDBRANCH  10  11
ENDBRANCH   9  10
ENDBRANCH   3   4
ENDBRANCH   2   3
TORSDOF 11
ENDMDL
MODEL      112
REMARK 921   NORMALIZED FREE ENERGY PREDICTED BY IDOCK:   -5.15 KCAL/MOL
REMARK 922        TOTAL FREE ENERGY PREDICTED BY IDOCK:   -9.70 KCAL/MOL
REMARK 923 INTER-LIGAND FREE ENERGY PREDICTED BY IDOCK:   -8.51 KCAL/MOL
REMARK 924 INTRA-LIGAND FREE ENERGY PREDICTED BY IDOCK:   -1.20 KCAL/MOL
REMARK 927      BINDING AFFINITY PREDICTED BY RF-SCORE:    0.00 PKD
ROOT
HETATM    1  C   UNL     1      -8.905  16.909  66.214  1.00  0.00    -0.314 C  
HETATM    2  C   UNL     1     -10.392  16.896  65.897  1.00  0.00    -0.315 C  
ENDROOT
BRANCH   2   3
HETATM    3  O   UNL     1     -10.919  15.748  66.552  1.00  0.00    -0.278 OA 
BRANCH   3   4
HETATM    4  C   UNL     1     -11.325  14.661  65.840  1.00  0.00    -0.338 A  
HETATM    5  C   UNL     1     -11.741  14.730  64.502  1.00  0.00    -0.398 A  
HETATM    6  C   UNL     1     -12.175  13.587  63.826  1.00  0.00    -0.449 A  
HETATM    7  C   UNL     1     -12.197  12.357  64.479  1.00  0.00    -0.509 A  
HETATM    8  C   UNL     1     -11.774  12.273  65.805  1.00  0.00    -0.445 A  
HETATM    9  C   UNL     1     -11.331  13.412  66.495  1.00  0.00    -0.320 A  
BRANCH   9  10
HETATM   10  O   UNL     1     -10.944  13.124  67.784  1.00  0.00    -0.240 OA 
BRANCH  10  11
HETATM   11  C   UNL     1     -10.998  11.764  68.213  1.00  0.00    -0.229 C  
BRANCH  11  12
HETATM   12  C   UNL     1     -11.798  11.666  69.519  1.00  0.00    -0.348 C  
BRANCH  12  13
HETATM   13  N   UNL     1     -12.632  10.462  69.662  1.00  0.00    -0.620 NA 
HETATM   14  H   UNL     1     -12.295   9.728  69.038  1.00  0.00     0.000 HD 
BRANCH  13  15
HETATM   15  C   UNL     1     -12.760   9.937  71.035  1.00  0.00    -0.334 C  
HETATM   16  C   UNL     1     -13.234  11.101  71.919  1.00  0.00    -0.488 C  
BRANCH  15  17
HETATM   17  C   UNL     1     -11.450   9.307  71.588  1.00  0.00    -0.468 C  
BRANCH  17  18
HETATM   18  C   UNL     1     -10.901   8.247  70.660  1.00  0.00    -0.254 A  
HETATM   19  C   UNL     1      -9.761   8.520  69.896  1.00  0.00    -0.179 A  
HETATM   20  C   UNL     1      -9.375   7.651  68.868  1.00  0.00    -0.145 A  
HETATM   21  C   UNL     1     -10.052   6.441  68.664  1.00  0.00    -0.158 A  
HETATM   22  C   UNL     1     -11.569   7.036  70.469  1.00  0.00    -0.364 A  
HETATM   23  C   UNL     1     -11.135   6.132  69.494  1.00  0.00    -0.490 A  
BRANCH  20  24
HETATM   24  S   UNL     1      -8.099   8.123  67.724  1.00  0.00    -0.129 S  
HETATM   25  O   UNL     1      -7.333   9.189  68.325  1.00  0.00    -0.078 OA 
HETATM   26  N   UNL     1      -7.056   6.806  67.676  1.00  0.00    -0.082 N  
HETATM   27  O   UNL     1      -8.670   8.188  66.399  1.00  0.00    -0.133 OA 
HETATM   28  H1  UNL     1      -6.325   7.077  67.020  1.00  0.00     0.000 HD 
HETATM   29  H2  UNL     1      -7.137   5.928  68.190  1.00  0.00     0.000 HD 
ENDBRANCH  20  24
BRANCH  21  30
HETATM   30  O   UNL     1      -9.606   5.638  67.652  1.00  0.00    -0.113 OA 
HETATM   31  C   UNL     1     -10.508   5.326  66.598  1.00  0.00    -0.290 C  
ENDBRANCH  21  30
ENDBRANCH  17  18
ENDBRANCH  15  17
ENDBRANCH  13  15
ENDBRANCH  12  13
ENDBRANCH  11  12
ENDBRANCH  10  11
ENDBRANCH   9  10
ENDBRANCH   3   4
ENDBRANCH   2   3
TORSDOF 11
ENDMDL
MODEL      113
REMARK 921   NORMALIZED FREE ENERGY PREDICTED BY IDOCK:   -5.13 KCAL/MOL
REMARK 922        TOTAL FREE ENERGY PREDICTED BY IDOCK:   -9.68 KCAL/MOL
REMARK 923 INTER-LIGAND FREE ENERGY PREDICTED BY IDOCK:   -8.06 KCAL/MOL
REMARK 924 INTRA-LIGAND FREE ENERGY PREDICTED BY IDOCK:   -1.62 KCAL/MOL
REMARK 927      BINDING AFFINITY PREDICTED BY RF-SCORE:    0.00 PKD
ROOT
HETATM    1  C   UNL     1     -11.985  12.930  64.295  1.00  0.00    -0.463 C  
HETATM    2  C   UNL     1     -12.061  14.407  64.648  1.00  0.00    -0.471 C  
ENDROOT
BRANCH   2   3
HETATM    3  O   UNL     1     -11.514  14.522  65.957  1.00  0.00    -0.341 OA 
BRANCH   3   4
HETATM    4  C   UNL     1     -10.454  15.340  66.202  1.00  0.00    -0.309 A  
HETATM    5  C   UNL     1     -10.507  16.733  66.054  1.00  0.00    -0.300 A  
HETATM    6  C   UNL     1      -9.381  17.524  66.294  1.00  0.00    -0.231 A  
HETATM    7  C   UNL     1      -8.183  16.931  66.687  1.00  0.00    -0.292 A  
HETATM    8  C   UNL     1      -8.121  15.548  66.850  1.00  0.00    -0.284 A  
HETATM    9  C   UNL     1      -9.246  14.741  66.619  1.00  0.00    -0.275 A  
BRANCH   9  10
HETATM   10  O   UNL     1      -8.989  13.409  66.846  1.00  0.00    -0.229 OA 
BRANCH  10  11
HETATM   11  C   UNL     1      -7.767  13.061  67.494  1.00  0.00    -0.168 C  
BRANCH  11  12
HETATM   12  C   UNL     1      -7.332  11.656  67.059  1.00  0.00    -0.143 C  
BRANCH  12  13
HETATM   13  N   UNL     1      -8.001  11.128  65.859  1.00  0.00    -0.346 NA 
HETATM   14  H   UNL     1      -7.320  10.993  65.111  1.00  0.00     0.000 HD 
BRANCH  13  15
HETATM   15  C   UNL     1      -8.784   9.894  66.058  1.00  0.00    -0.137 C  
HETATM   16  C   UNL     1      -8.456   8.959  64.883  1.00  0.00    -0.195 C  
BRANCH  15  17
HETATM   17  C   UNL     1     -10.316  10.138  66.172  1.00  0.00    -0.237 C  
BRANCH  17  18
HETATM   18  C   UNL     1     -10.756  10.277  67.612  1.00  0.00    -0.339 A  
HETATM   19  C   UNL     1     -10.523   9.230  68.510  1.00  0.00    -0.240 A  
HETATM   20  C   UNL     1     -11.122   9.238  69.776  1.00  0.00    -0.150 A  
HETATM   21  C   UNL     1     -11.869  10.343  70.205  1.00  0.00    -0.297 A  
HETATM   22  C   UNL     1     -11.487  11.386  68.041  1.00  0.00    -0.377 A  
HETATM   23  C   UNL     1     -12.020  11.427  69.334  1.00  0.00    -0.407 A  
BRANCH  20  24
HETATM   24  S   UNL     1     -11.053   7.795  70.811  1.00  0.00    -0.258 S  
HETATM   25  O   UNL     1     -10.003   6.938  70.313  1.00  0.00    -0.178 OA 
HETATM   26  N   UNL     1     -10.494   8.357  72.293  1.00  0.00    -0.318 N  
HETATM   27  O   UNL     1     -12.402   7.350  71.072  1.00  0.00    -0.318 OA 
HETATM   28  H1  UNL     1     -10.454   7.530  72.888  1.00  0.00     0.000 HD 
HETATM   29  H2  UNL     1     -10.249   9.315  72.544  1.00  0.00     0.000 HD 
ENDBRANCH  20  24
BRANCH  21  30
HETATM   30  O   UNL     1     -12.409  10.284  71.459  1.00  0.00    -0.375 OA 
HETATM   31  C   UNL     1     -13.223  11.367  71.889  1.00  0.00    -0.380 C  
ENDBRANCH  21  30
ENDBRANCH  17  18
ENDBRANCH  15  17
ENDBRANCH  13  15
ENDBRANCH  12  13
ENDBRANCH  11  12
ENDBRANCH  10  11
ENDBRANCH   9  10
ENDBRANCH   3   4
ENDBRANCH   2   3
TORSDOF 11
ENDMDL
MODEL      114
REMARK 921   NORMALIZED FREE ENERGY PREDICTED BY IDOCK:   -5.13 KCAL/MOL
REMARK 922        TOTAL FREE ENERGY PREDICTED BY IDOCK:   -9.67 KCAL/MOL
REMARK 923 INTER-LIGAND FREE ENERGY PREDICTED BY IDOCK:   -8.81 KCAL/MOL
REMARK 924 INTRA-LIGAND FREE ENERGY PREDICTED BY IDOCK:   -0.86 KCAL/MOL
REMARK 927      BINDING AFFINITY PREDICTED BY RF-SCORE:    0.00 PKD
ROOT
HETATM    1  C   UNL     1      -9.263  15.361  69.451  1.00  0.00    -0.268 C  
HETATM    2  C   UNL     1     -10.437  16.319  69.316  1.00  0.00    -0.285 C  
ENDROOT
BRANCH   2   3
HETATM    3  O   UNL     1     -11.597  15.555  69.623  1.00  0.00    -0.300 OA 
BRANCH   3   4
HETATM    4  C   UNL     1     -12.035  15.433  70.906  1.00  0.00    -0.359 A  
HETATM    5  C   UNL     1     -11.843  16.423  71.881  1.00  0.00    -0.433 A  
HETATM    6  C   UNL     1     -12.288  16.235  73.192  1.00  0.00    -0.598 A  
HETATM    7  C   UNL     1     -12.935  15.052  73.546  1.00  0.00    -0.564 A  
HETATM    8  C   UNL     1     -13.143  14.067  72.583  1.00  0.00    -0.553 A  
HETATM    9  C   UNL     1     -12.705  14.244  71.260  1.00  0.00    -0.357 A  
BRANCH   9  10
HETATM   10  O   UNL     1     -13.015  13.169  70.459  1.00  0.00    -0.019 OA 
BRANCH  10  11
HETATM   11  C   UNL     1     -12.008  12.181  70.241  1.00  0.00    -0.305 C  
BRANCH  11  12
HETATM   12  C   UNL     1     -12.263  10.973  71.152  1.00  0.00    -0.310 C  
BRANCH  12  13
HETATM   13  N   UNL     1     -13.205   9.971  70.628  1.00  0.00    -0.607 NA 
HETATM   14  H   UNL     1     -13.037   9.822  69.633  1.00  0.00     0.000 HD 
BRANCH  13  15
HETATM   15  C   UNL     1     -13.218   8.678  71.338  1.00  0.00    -0.236 C  
HETATM   16  C   UNL     1     -14.315   8.764  72.411  1.00  0.00    -0.419 C  
BRANCH  15  17
HETATM   17  C   UNL     1     -11.847   8.297  71.966  1.00  0.00    -0.408 C  
BRANCH  17  18
HETATM   18  C   UNL     1     -11.104   7.286  71.120  1.00  0.00    -0.275 A  
HETATM   19  C   UNL     1     -10.852   7.565  69.773  1.00  0.00    -0.234 A  
HETATM   20  C   UNL     1     -10.379   6.560  68.920  1.00  0.00    -0.196 A  
HETATM   21  C   UNL     1     -10.044   5.296  69.423  1.00  0.00    -0.241 A  
HETATM   22  C   UNL     1     -10.758   6.033  71.628  1.00  0.00    -0.303 A  
HETATM   23  C   UNL     1     -10.212   5.054  70.791  1.00  0.00    -0.299 A  
BRANCH  20  24
HETATM   24  S   UNL     1     -10.315   6.828  67.164  1.00  0.00    -0.295 S  
HETATM   25  O   UNL     1     -10.482   8.242  66.922  1.00  0.00    -0.319 OA 
HETATM   26  N   UNL     1      -8.724   6.494  66.737  1.00  0.00    -0.119 N  
HETATM   27  O   UNL     1     -11.093   5.801  66.512  1.00  0.00    -0.200 OA 
HETATM   28  H1  UNL     1      -8.687   6.649  65.730  1.00  0.00     0.000 HD 
HETATM   29  H2  UNL     1      -7.962   6.202  67.349  1.00  0.00     0.000 HD 
ENDBRANCH  20  24
BRANCH  21  30
HETATM   30  O   UNL     1      -9.573   4.372  68.532  1.00  0.00    -0.149 OA 
HETATM   31  C   UNL     1      -9.169   3.105  69.033  1.00  0.00    -0.159 C  
ENDBRANCH  21  30
ENDBRANCH  17  18
ENDBRANCH  15  17
ENDBRANCH  13  15
ENDBRANCH  12  13
ENDBRANCH  11  12
ENDBRANCH  10  11
ENDBRANCH   9  10
ENDBRANCH   3   4
ENDBRANCH   2   3
TORSDOF 11
ENDMDL
MODEL      115
REMARK 921   NORMALIZED FREE ENERGY PREDICTED BY IDOCK:   -5.13 KCAL/MOL
REMARK 922        TOTAL FREE ENERGY PREDICTED BY IDOCK:   -9.66 KCAL/MOL
REMARK 923 INTER-LIGAND FREE ENERGY PREDICTED BY IDOCK:   -8.38 KCAL/MOL
REMARK 924 INTRA-LIGAND FREE ENERGY PREDICTED BY IDOCK:   -1.28 KCAL/MOL
REMARK 927      BINDING AFFINITY PREDICTED BY RF-SCORE:    0.00 PKD
ROOT
HETATM    1  C   UNL     1     -11.883  15.643  71.745  1.00  0.00    -0.524 C  
HETATM    2  C   UNL     1     -11.983  15.777  70.233  1.00  0.00    -0.361 C  
ENDROOT
BRANCH   2   3
HETATM    3  O   UNL     1     -10.747  16.341  69.811  1.00  0.00    -0.317 OA 
BRANCH   3   4
HETATM    4  C   UNL     1     -10.618  16.898  68.575  1.00  0.00    -0.367 A  
HETATM    5  C   UNL     1     -10.647  18.281  68.348  1.00  0.00    -0.194 A  
HETATM    6  C   UNL     1     -10.537  18.798  67.054  1.00  0.00    -0.483 A  
HETATM    7  C   UNL     1     -10.395  17.936  65.969  1.00  0.00    -0.318 A  
HETATM    8  C   UNL     1     -10.351  16.560  66.183  1.00  0.00    -0.344 A  
HETATM    9  C   UNL     1     -10.455  16.026  67.478  1.00  0.00    -0.297 A  
BRANCH   9  10
HETATM   10  O   UNL     1     -10.377  14.652  67.484  1.00  0.00    -0.234 OA 
BRANCH  10  11
HETATM   11  C   UNL     1      -9.237  14.047  68.093  1.00  0.00    -0.196 C  
BRANCH  11  12
HETATM   12  C   UNL     1      -8.335  13.439  67.010  1.00  0.00    -0.075 C  
BRANCH  12  13
HETATM   13  N   UNL     1      -9.029  12.680  65.959  1.00  0.00    -0.416 NA 
HETATM   14  H   UNL     1      -8.485  12.702  65.095  1.00  0.00     0.000 HD 
BRANCH  13  15
HETATM   15  C   UNL     1      -9.375  11.287  66.302  1.00  0.00    -0.207 C  
HETATM   16  C   UNL     1      -8.903  10.405  65.135  1.00  0.00    -0.207 C  
BRANCH  15  17
HETATM   17  C   UNL     1     -10.888  11.073  66.593  1.00  0.00    -0.284 C  
BRANCH  17  18
HETATM   18  C   UNL     1     -11.144  10.796  68.057  1.00  0.00    -0.359 A  
HETATM   19  C   UNL     1     -10.661   9.616  68.633  1.00  0.00    -0.233 A  
HETATM   20  C   UNL     1     -11.081   9.231  69.912  1.00  0.00    -0.181 A  
HETATM   21  C   UNL     1     -11.897  10.073  70.679  1.00  0.00    -0.325 A  
HETATM   22  C   UNL     1     -11.945  11.645  68.824  1.00  0.00    -0.326 A  
HETATM   23  C   UNL     1     -12.300  11.296  70.132  1.00  0.00    -0.354 A  
BRANCH  20  24
HETATM   24  S   UNL     1     -10.691   7.614  70.536  1.00  0.00    -0.239 S  
HETATM   25  O   UNL     1      -9.583   7.094  69.770  1.00  0.00    -0.156 OA 
HETATM   26  N   UNL     1     -10.072   7.884  72.075  1.00  0.00    -0.190 N  
HETATM   27  O   UNL     1     -11.925   6.895  70.758  1.00  0.00    -0.363 OA 
HETATM   28  H1  UNL     1      -9.848   6.957  72.433  1.00  0.00     0.000 HD 
HETATM   29  H2  UNL     1      -9.948   8.780  72.548  1.00  0.00     0.000 HD 
ENDBRANCH  20  24
BRANCH  21  30
HETATM   30  O   UNL     1     -12.251   9.636  71.925  1.00  0.00    -0.376 OA 
HETATM   31  C   UNL     1     -13.633   9.453  72.202  1.00  0.00    -0.457 C  
ENDBRANCH  21  30
ENDBRANCH  17  18
ENDBRANCH  15  17
ENDBRANCH  13  15
ENDBRANCH  12  13
ENDBRANCH  11  12
ENDBRANCH  10  11
ENDBRANCH   9  10
ENDBRANCH   3   4
ENDBRANCH   2   3
TORSDOF 11
ENDMDL
MODEL      116
REMARK 921   NORMALIZED FREE ENERGY PREDICTED BY IDOCK:   -5.11 KCAL/MOL
REMARK 922        TOTAL FREE ENERGY PREDICTED BY IDOCK:   -9.64 KCAL/MOL
REMARK 923 INTER-LIGAND FREE ENERGY PREDICTED BY IDOCK:   -8.85 KCAL/MOL
REMARK 924 INTRA-LIGAND FREE ENERGY PREDICTED BY IDOCK:   -0.79 KCAL/MOL
REMARK 927      BINDING AFFINITY PREDICTED BY RF-SCORE:    0.00 PKD
ROOT
HETATM    1  C   UNL     1      -8.774   9.122  71.053  1.00  0.00    -0.251 C  
HETATM    2  C   UNL     1      -7.824   8.083  71.628  1.00  0.00    -0.103 C  
ENDROOT
BRANCH   2   3
HETATM    3  O   UNL     1      -8.434   7.621  72.827  1.00  0.00    -0.112 OA 
BRANCH   3   4
HETATM    4  C   UNL     1      -9.118   6.444  72.856  1.00  0.00    -0.129 A  
HETATM    5  C   UNL     1      -8.497   5.192  72.756  1.00  0.00    -0.113 A  
HETATM    6  C   UNL     1      -9.249   4.014  72.763  1.00  0.00    -0.135 A  
HETATM    7  C   UNL     1     -10.637   4.075  72.873  1.00  0.00    -0.237 A  
HETATM    8  C   UNL     1     -11.265   5.314  72.986  1.00  0.00    -0.387 A  
HETATM    9  C   UNL     1     -10.521   6.505  72.986  1.00  0.00    -0.234 A  
BRANCH   9  10
HETATM   10  O   UNL     1     -11.318   7.618  73.120  1.00  0.00    -0.360 OA 
BRANCH  10  11
HETATM   11  C   UNL     1     -12.136   7.997  72.014  1.00  0.00    -0.331 C  
BRANCH  11  12
HETATM   12  C   UNL     1     -12.539   9.471  72.149  1.00  0.00    -0.334 C  
BRANCH  12  13
HETATM   13  N   UNL     1     -12.915  10.144  70.896  1.00  0.00    -0.468 NA 
HETATM   14  H   UNL     1     -13.793  10.648  71.020  1.00  0.00     0.000 HD 
BRANCH  13  15
HETATM   15  C   UNL     1     -11.893  11.042  70.325  1.00  0.00    -0.367 C  
HETATM   16  C   UNL     1     -12.517  12.445  70.254  1.00  0.00    -0.152 C  
BRANCH  15  17
HETATM   17  C   UNL     1     -11.371  10.589  68.932  1.00  0.00    -0.313 C  
BRANCH  17  18
HETATM   18  C   UNL     1     -11.056  11.768  68.039  1.00  0.00    -0.297 A  
HETATM   19  C   UNL     1     -11.767  11.941  66.846  1.00  0.00    -0.291 A  
HETATM   20  C   UNL     1     -11.340  12.881  65.900  1.00  0.00    -0.312 A  
HETATM   21  C   UNL     1     -10.268  13.740  66.180  1.00  0.00    -0.301 A  
HETATM   22  C   UNL     1      -9.998  12.632  68.328  1.00  0.00    -0.229 A  
HETATM   23  C   UNL     1      -9.622  13.623  67.414  1.00  0.00    -0.226 A  
BRANCH  20  24
HETATM   24  S   UNL     1     -12.067  12.917  64.279  1.00  0.00    -0.440 S  
HETATM   25  O   UNL     1     -13.392  12.351  64.371  1.00  0.00    -0.789 OA 
HETATM   26  N   UNL     1     -12.308  14.548  63.953  1.00  0.00    -1.047 N  
HETATM   27  O   UNL     1     -11.074  12.494  63.319  1.00  0.00    -0.438 OA 
HETATM   28  H1  UNL     1     -12.726  14.569  63.023  1.00  0.00     0.000 HD 
HETATM   29  H2  UNL     1     -12.087  15.343  64.552  1.00  0.00     0.000 HD 
ENDBRANCH  20  24
BRANCH  21  30
HETATM   30  O   UNL     1      -9.921  14.642  65.213  1.00  0.00    -0.366 OA 
HETATM   31  C   UNL     1      -9.167  15.782  65.602  1.00  0.00    -0.087 C  
ENDBRANCH  21  30
ENDBRANCH  17  18
ENDBRANCH  15  17
ENDBRANCH  13  15
ENDBRANCH  12  13
ENDBRANCH  11  12
ENDBRANCH  10  11
ENDBRANCH   9  10
ENDBRANCH   3   4
ENDBRANCH   2   3
TORSDOF 11
ENDMDL
MODEL      117
REMARK 921   NORMALIZED FREE ENERGY PREDICTED BY IDOCK:   -5.11 KCAL/MOL
REMARK 922        TOTAL FREE ENERGY PREDICTED BY IDOCK:   -9.64 KCAL/MOL
REMARK 923 INTER-LIGAND FREE ENERGY PREDICTED BY IDOCK:   -7.90 KCAL/MOL
REMARK 924 INTRA-LIGAND FREE ENERGY PREDICTED BY IDOCK:   -1.74 KCAL/MOL
REMARK 927      BINDING AFFINITY PREDICTED BY RF-SCORE:    0.00 PKD
ROOT
HETATM    1  C   UNL     1     -13.276  15.815  72.531  1.00  0.00    -0.568 C  
HETATM    2  C   UNL     1     -11.935  15.553  71.863  1.00  0.00    -0.427 C  
ENDROOT
BRANCH   2   3
HETATM    3  O   UNL     1     -12.233  15.230  70.509  1.00  0.00    -0.317 OA 
BRANCH   3   4
HETATM    4  C   UNL     1     -12.211  13.939  70.077  1.00  0.00    -0.344 A  
HETATM    5  C   UNL     1     -12.436  12.842  70.921  1.00  0.00    -0.383 A  
HETATM    6  C   UNL     1     -12.376  11.535  70.431  1.00  0.00    -0.390 A  
HETATM    7  C   UNL     1     -12.090  11.307  69.087  1.00  0.00    -0.348 A  
HETATM    8  C   UNL     1     -11.877  12.390  68.235  1.00  0.00    -0.364 A  
HETATM    9  C   UNL     1     -11.940  13.709  68.712  1.00  0.00    -0.359 A  
BRANCH   9  10
HETATM   10  O   UNL     1     -11.715  14.635  67.720  1.00  0.00    -0.347 OA 
BRANCH  10  11
HETATM   11  C   UNL     1     -11.355  14.157  66.424  1.00  0.00    -0.338 C  
BRANCH  11  12
HETATM   12  C   UNL     1      -9.893  14.515  66.129  1.00  0.00    -0.318 C  
BRANCH  12  13
HETATM   13  N   UNL     1      -8.956  13.381  66.097  1.00  0.00    -0.440 NA 
HETATM   14  H   UNL     1      -8.256  13.527  65.370  1.00  0.00     0.000 HD 
BRANCH  13  15
HETATM   15  C   UNL     1      -8.295  13.065  67.378  1.00  0.00    -0.194 C  
HETATM   16  C   UNL     1      -7.328  14.220  67.682  1.00  0.00    -0.192 C  
BRANCH  15  17
HETATM   17  C   UNL     1      -7.555  11.697  67.378  1.00  0.00    -0.139 C  
BRANCH  17  18
HETATM   18  C   UNL     1      -8.520  10.537  67.475  1.00  0.00    -0.118 A  
HETATM   19  C   UNL     1      -8.880  10.041  68.732  1.00  0.00    -0.137 A  
HETATM   20  C   UNL     1      -9.581   8.833  68.841  1.00  0.00    -0.158 A  
HETATM   21  C   UNL     1     -10.030   8.163  67.695  1.00  0.00    -0.185 A  
HETATM   22  C   UNL     1      -8.979   9.880  66.331  1.00  0.00    -0.169 A  
HETATM   23  C   UNL     1      -9.746   8.715  66.442  1.00  0.00    -0.333 A  
BRANCH  20  24
HETATM   24  S   UNL     1      -9.802   8.063  70.427  1.00  0.00    -0.183 S  
HETATM   25  O   UNL     1     -11.216   7.848  70.627  1.00  0.00    -0.262 OA 
HETATM   26  N   UNL     1      -9.145   6.525  70.254  1.00  0.00    -0.155 N  
HETATM   27  O   UNL     1      -8.944   8.723  71.383  1.00  0.00    -0.199 OA 
HETATM   28  H1  UNL     1      -9.272   6.084  71.163  1.00  0.00     0.000 HD 
HETATM   29  H2  UNL     1      -8.714   6.122  69.422  1.00  0.00     0.000 HD 
ENDBRANCH  20  24
BRANCH  21  30
HETATM   30  O   UNL     1     -10.721   6.998  67.883  1.00  0.00    -0.215 OA 
HETATM   31  C   UNL     1     -10.599   5.982  66.896  1.00  0.00    -0.315 C  
ENDBRANCH  21  30
ENDBRANCH  17  18
ENDBRANCH  15  17
ENDBRANCH  13  15
ENDBRANCH  12  13
ENDBRANCH  11  12
ENDBRANCH  10  11
ENDBRANCH   9  10
ENDBRANCH   3   4
ENDBRANCH   2   3
TORSDOF 11
ENDMDL
MODEL      118
REMARK 921   NORMALIZED FREE ENERGY PREDICTED BY IDOCK:   -5.10 KCAL/MOL
REMARK 922        TOTAL FREE ENERGY PREDICTED BY IDOCK:   -9.63 KCAL/MOL
REMARK 923 INTER-LIGAND FREE ENERGY PREDICTED BY IDOCK:   -9.38 KCAL/MOL
REMARK 924 INTRA-LIGAND FREE ENERGY PREDICTED BY IDOCK:   -0.24 KCAL/MOL
REMARK 927      BINDING AFFINITY PREDICTED BY RF-SCORE:    0.00 PKD
ROOT
HETATM    1  C   UNL     1     -10.404   5.839  73.751  1.00  0.00    -0.272 C  
HETATM    2  C   UNL     1     -11.238   5.266  72.615  1.00  0.00    -0.248 C  
ENDROOT
BRANCH   2   3
HETATM    3  O   UNL     1     -11.209   6.243  71.581  1.00  0.00    -0.262 OA 
BRANCH   3   4
HETATM    4  C   UNL     1     -11.983   7.362  71.654  1.00  0.00    -0.307 A  
HETATM    5  C   UNL     1     -13.382   7.324  71.722  1.00  0.00    -0.367 A  
HETATM    6  C   UNL     1     -14.130   8.504  71.768  1.00  0.00    -0.515 A  
HETATM    7  C   UNL     1     -13.486   9.739  71.748  1.00  0.00    -0.463 A  
HETATM    8  C   UNL     1     -12.094   9.789  71.693  1.00  0.00    -0.475 A  
HETATM    9  C   UNL     1     -11.330   8.612  71.652  1.00  0.00    -0.307 A  
BRANCH   9  10
HETATM   10  O   UNL     1      -9.978   8.868  71.615  1.00  0.00    -0.282 OA 
BRANCH  10  11
HETATM   11  C   UNL     1      -9.303   8.731  70.365  1.00  0.00    -0.180 C  
BRANCH  11  12
HETATM   12  C   UNL     1      -8.754  10.094  69.922  1.00  0.00    -0.061 C  
BRANCH  12  13
HETATM   13  N   UNL     1      -9.401  10.684  68.740  1.00  0.00    -0.173 NA 
HETATM   14  H   UNL     1      -8.729  10.761  67.976  1.00  0.00     0.000 HD 
BRANCH  13  15
HETATM   15  C   UNL     1     -10.620   9.998  68.272  1.00  0.00    -0.226 C  
HETATM   16  C   UNL     1     -10.382   9.607  66.805  1.00  0.00    -0.292 C  
BRANCH  15  17
HETATM   17  C   UNL     1     -11.913  10.848  68.425  1.00  0.00    -0.081 C  
BRANCH  17  18
HETATM   18  C   UNL     1     -11.667  12.306  68.104  1.00  0.00    -0.408 A  
HETATM   19  C   UNL     1     -11.677  12.730  66.771  1.00  0.00    -0.459 A  
HETATM   20  C   UNL     1     -11.226  14.013  66.435  1.00  0.00    -0.319 A  
HETATM   21  C   UNL     1     -10.868  14.928  67.434  1.00  0.00    -0.304 A  
HETATM   22  C   UNL     1     -11.326  13.219  69.103  1.00  0.00    -0.336 A  
HETATM   23  C   UNL     1     -10.951  14.526  68.771  1.00  0.00    -0.262 A  
BRANCH  20  24
HETATM   24  S   UNL     1     -10.979  14.461  64.733  1.00  0.00    -0.376 S  
HETATM   25  O   UNL     1     -10.341  13.350  64.066  1.00  0.00    -0.336 OA 
HETATM   26  N   UNL     1     -12.526  14.536  64.080  1.00  0.00    -0.959 N  
HETATM   27  O   UNL     1     -10.492  15.820  64.680  1.00  0.00    -0.436 OA 
HETATM   28  H1  UNL     1     -12.384  14.793  63.104  1.00  0.00     0.000 HD 
HETATM   29  H2  UNL     1     -13.412  14.363  64.555  1.00  0.00     0.000 HD 
ENDBRANCH  20  24
BRANCH  21  30
HETATM   30  O   UNL     1     -10.454  16.166  67.028  1.00  0.00    -0.302 OA 
HETATM   31  C   UNL     1     -10.487  17.226  67.976  1.00  0.00    -0.375 C  
ENDBRANCH  21  30
ENDBRANCH  17  18
ENDBRANCH  15  17
ENDBRANCH  13  15
ENDBRANCH  12  13
ENDBRANCH  11  12
ENDBRANCH  10  11
ENDBRANCH   9  10
ENDBRANCH   3   4
ENDBRANCH   2   3
TORSDOF 11
ENDMDL
MODEL      119
REMARK 921   NORMALIZED FREE ENERGY PREDICTED BY IDOCK:   -5.08 KCAL/MOL
REMARK 922        TOTAL FREE ENERGY PREDICTED BY IDOCK:   -9.59 KCAL/MOL
REMARK 923 INTER-LIGAND FREE ENERGY PREDICTED BY IDOCK:   -8.62 KCAL/MOL
REMARK 924 INTRA-LIGAND FREE ENERGY PREDICTED BY IDOCK:   -0.97 KCAL/MOL
REMARK 927      BINDING AFFINITY PREDICTED BY RF-SCORE:    0.00 PKD
ROOT
HETATM    1  C   UNL     1     -12.398  12.024  63.486  1.00  0.00    -0.661 C  
HETATM    2  C   UNL     1     -11.842  13.413  63.763  1.00  0.00    -0.431 C  
ENDROOT
BRANCH   2   3
HETATM    3  O   UNL     1     -10.759  13.224  64.666  1.00  0.00    -0.353 OA 
BRANCH   3   4
HETATM    4  C   UNL     1     -10.977  13.120  66.006  1.00  0.00    -0.279 A  
HETATM    5  C   UNL     1     -11.869  13.944  66.706  1.00  0.00    -0.452 A  
HETATM    6  C   UNL     1     -12.034  13.812  68.088  1.00  0.00    -0.394 A  
HETATM    7  C   UNL     1     -11.308  12.851  68.788  1.00  0.00    -0.333 A  
HETATM    8  C   UNL     1     -10.428  12.017  68.101  1.00  0.00    -0.218 A  
HETATM    9  C   UNL     1     -10.255  12.134  66.713  1.00  0.00    -0.203 A  
BRANCH   9  10
HETATM   10  O   UNL     1      -9.357  11.217  66.219  1.00  0.00    -0.183 OA 
BRANCH  10  11
HETATM   11  C   UNL     1      -9.871  10.036  65.605  1.00  0.00    -0.295 C  
BRANCH  11  12
HETATM   12  C   UNL     1     -10.060   8.943  66.664  1.00  0.00    -0.287 C  
BRANCH  12  13
HETATM   13  N   UNL     1     -10.002   7.559  66.166  1.00  0.00    -0.434 NA 
HETATM   14  H   UNL     1      -9.629   7.546  65.216  1.00  0.00     0.000 HD 
BRANCH  13  15
HETATM   15  C   UNL     1      -9.257   6.608  67.013  1.00  0.00    -0.135 C  
HETATM   16  C   UNL     1      -8.044   6.134  66.199  1.00  0.00    -0.115 C  
BRANCH  15  17
HETATM   17  C   UNL     1     -10.113   5.404  67.500  1.00  0.00    -0.220 C  
BRANCH  17  18
HETATM   18  C   UNL     1     -10.421   5.496  68.978  1.00  0.00    -0.296 A  
HETATM   19  C   UNL     1     -11.114   6.607  69.471  1.00  0.00    -0.378 A  
HETATM   20  C   UNL     1     -11.206   6.826  70.852  1.00  0.00    -0.292 A  
HETATM   21  C   UNL     1     -10.707   5.882  71.759  1.00  0.00    -0.245 A  
HETATM   22  C   UNL     1      -9.936   4.546  69.879  1.00  0.00    -0.273 A  
HETATM   23  C   UNL     1     -10.097   4.728  71.257  1.00  0.00    -0.258 A  
BRANCH  20  24
HETATM   24  S   UNL     1     -11.843   8.363  71.477  1.00  0.00    -0.312 S  
HETATM   25  O   UNL     1     -10.805   8.992  72.260  1.00  0.00    -0.278 OA 
HETATM   26  N   UNL     1     -12.019   9.338  70.119  1.00  0.00    -0.454 N  
HETATM   27  O   UNL     1     -13.190   8.146  71.950  1.00  0.00    -0.328 OA 
HETATM   28  H1  UNL     1     -12.384  10.220  70.477  1.00  0.00     0.000 HD 
HETATM   29  H2  UNL     1     -11.808   9.101  69.150  1.00  0.00     0.000 HD 
ENDBRANCH  20  24
BRANCH  21  30
HETATM   30  O   UNL     1     -10.849   6.159  73.090  1.00  0.00    -0.246 OA 
HETATM   31  C   UNL     1     -10.318   5.230  74.027  1.00  0.00    -0.269 C  
ENDBRANCH  21  30
ENDBRANCH  17  18
ENDBRANCH  15  17
ENDBRANCH  13  15
ENDBRANCH  12  13
ENDBRANCH  11  12
ENDBRANCH  10  11
ENDBRANCH   9  10
ENDBRANCH   3   4
ENDBRANCH   2   3
TORSDOF 11
ENDMDL
MODEL      120
REMARK 921   NORMALIZED FREE ENERGY PREDICTED BY IDOCK:   -5.08 KCAL/MOL
REMARK 922        TOTAL FREE ENERGY PREDICTED BY IDOCK:   -9.59 KCAL/MOL
REMARK 923 INTER-LIGAND FREE ENERGY PREDICTED BY IDOCK:   -8.38 KCAL/MOL
REMARK 924 INTRA-LIGAND FREE ENERGY PREDICTED BY IDOCK:   -1.21 KCAL/MOL
REMARK 927      BINDING AFFINITY PREDICTED BY RF-SCORE:    0.00 PKD
ROOT
HETATM    1  C   UNL     1     -10.636  19.224  65.861  1.00  0.00    -0.521 C  
HETATM    2  C   UNL     1     -10.208  18.002  66.657  1.00  0.00    -0.373 C  
ENDROOT
BRANCH   2   3
HETATM    3  O   UNL     1      -9.839  17.021  65.695  1.00  0.00    -0.547 OA 
BRANCH   3   4
HETATM    4  C   UNL     1     -10.572  15.884  65.539  1.00  0.00    -0.401 A  
HETATM    5  C   UNL     1     -11.484  15.695  64.491  1.00  0.00    -0.304 A  
HETATM    6  C   UNL     1     -12.231  14.518  64.393  1.00  0.00    -0.480 A  
HETATM    7  C   UNL     1     -12.075  13.513  65.344  1.00  0.00    -0.447 A  
HETATM    8  C   UNL     1     -11.163  13.683  66.384  1.00  0.00    -0.317 A  
HETATM    9  C   UNL     1     -10.401  14.858  66.492  1.00  0.00    -0.293 A  
BRANCH   9  10
HETATM   10  O   UNL     1      -9.551  14.831  67.573  1.00  0.00    -0.205 OA 
BRANCH  10  11
HETATM   11  C   UNL     1      -8.189  14.470  67.349  1.00  0.00    -0.202 C  
BRANCH  11  12
HETATM   12  C   UNL     1      -7.896  13.119  68.014  1.00  0.00    -0.147 C  
BRANCH  12  13
HETATM   13  N   UNL     1      -8.096  11.936  67.161  1.00  0.00    -0.166 NA 
HETATM   14  H   UNL     1      -7.220  11.686  66.701  1.00  0.00     0.000 HD 
BRANCH  13  15
HETATM   15  C   UNL     1      -8.667  10.755  67.836  1.00  0.00    -0.129 C  
HETATM   16  C   UNL     1      -8.927   9.698  66.750  1.00  0.00    -0.156 C  
BRANCH  15  17
HETATM   17  C   UNL     1      -9.960  11.061  68.643  1.00  0.00    -0.205 C  
BRANCH  17  18
HETATM   18  C   UNL     1     -10.163  10.077  69.774  1.00  0.00    -0.286 A  
HETATM   19  C   UNL     1     -11.457   9.665  70.107  1.00  0.00    -0.238 A  
HETATM   20  C   UNL     1     -11.688   8.945  71.287  1.00  0.00    -0.306 A  
HETATM   21  C   UNL     1     -10.617   8.528  72.089  1.00  0.00    -0.349 A  
HETATM   22  C   UNL     1      -9.092   9.652  70.563  1.00  0.00    -0.198 A  
HETATM   23  C   UNL     1      -9.317   8.866  71.699  1.00  0.00    -0.328 A  
BRANCH  20  24
HETATM   24  S   UNL     1     -13.347   8.655  71.852  1.00  0.00    -0.404 S  
HETATM   25  O   UNL     1     -14.248   8.947  70.763  1.00  0.00     0.049 OA 
HETATM   26  N   UNL     1     -13.442   6.991  72.068  1.00  0.00    -0.556 N  
HETATM   27  O   UNL     1     -13.483   9.205  73.181  1.00  0.00    -0.183 OA 
HETATM   28  H1  UNL     1     -14.394   6.824  72.393  1.00  0.00     0.000 HD 
HETATM   29  H2  UNL     1     -12.710   6.299  71.909  1.00  0.00     0.000 HD 
ENDBRANCH  20  24
BRANCH  21  30
HETATM   30  O   UNL     1     -10.920   7.815  73.215  1.00  0.00    -0.382 OA 
HETATM   31  C   UNL     1      -9.886   7.050  73.821  1.00  0.00    -0.303 C  
ENDBRANCH  21  30
ENDBRANCH  17  18
ENDBRANCH  15  17
ENDBRANCH  13  15
ENDBRANCH  12  13
ENDBRANCH  11  12
ENDBRANCH  10  11
ENDBRANCH   9  10
ENDBRANCH   3   4
ENDBRANCH   2   3
TORSDOF 11
ENDMDL
MODEL      121
REMARK 921   NORMALIZED FREE ENERGY PREDICTED BY IDOCK:   -5.07 KCAL/MOL
REMARK 922        TOTAL FREE ENERGY PREDICTED BY IDOCK:   -9.58 KCAL/MOL
REMARK 923 INTER-LIGAND FREE ENERGY PREDICTED BY IDOCK:   -8.93 KCAL/MOL
REMARK 924 INTRA-LIGAND FREE ENERGY PREDICTED BY IDOCK:   -0.65 KCAL/MOL
REMARK 927      BINDING AFFINITY PREDICTED BY RF-SCORE:    0.00 PKD
ROOT
HETATM    1  C   UNL     1      -6.705   4.316  71.351  1.00  0.00    -0.030 C  
HETATM    2  C   UNL     1      -7.617   4.780  70.226  1.00  0.00    -0.057 C  
ENDROOT
BRANCH   2   3
HETATM    3  O   UNL     1      -8.898   4.233  70.514  1.00  0.00    -0.080 OA 
BRANCH   3   4
HETATM    4  C   UNL     1      -9.909   5.022  70.971  1.00  0.00    -0.198 A  
HETATM    5  C   UNL     1     -10.266   5.108  72.324  1.00  0.00    -0.255 A  
HETATM    6  C   UNL     1     -11.330   5.914  72.736  1.00  0.00    -0.305 A  
HETATM    7  C   UNL     1     -12.053   6.648  71.797  1.00  0.00    -0.400 A  
HETATM    8  C   UNL     1     -11.699   6.581  70.450  1.00  0.00    -0.439 A  
HETATM    9  C   UNL     1     -10.629   5.780  70.023  1.00  0.00    -0.310 A  
BRANCH   9  10
HETATM   10  O   UNL     1     -10.429   5.857  68.664  1.00  0.00    -0.192 OA 
BRANCH  10  11
HETATM   11  C   UNL     1     -11.124   6.871  67.939  1.00  0.00    -0.120 C  
BRANCH  11  12
HETATM   12  C   UNL     1     -10.308   8.170  67.955  1.00  0.00    -0.220 C  
BRANCH  12  13
HETATM   13  N   UNL     1     -11.094   9.411  68.045  1.00  0.00    -0.513 NA 
HETATM   14  H   UNL     1     -12.052   9.198  68.322  1.00  0.00     0.000 HD 
BRANCH  13  15
HETATM   15  C   UNL     1     -10.535  10.456  68.923  1.00  0.00    -0.212 C  
HETATM   16  C   UNL     1      -9.884   9.739  70.117  1.00  0.00    -0.306 C  
BRANCH  15  17
HETATM   17  C   UNL     1     -11.585  11.500  69.398  1.00  0.00    -0.388 C  
BRANCH  17  18
HETATM   18  C   UNL     1     -11.540  12.761  68.564  1.00  0.00    -0.358 A  
HETATM   19  C   UNL     1     -11.831  12.696  67.197  1.00  0.00    -0.399 A  
HETATM   20  C   UNL     1     -11.571  13.794  66.367  1.00  0.00    -0.360 A  
HETATM   21  C   UNL     1     -11.126  15.007  66.907  1.00  0.00    -0.331 A  
HETATM   22  C   UNL     1     -11.110  13.973  69.108  1.00  0.00    -0.294 A  
HETATM   23  C   UNL     1     -10.926  15.092  68.289  1.00  0.00    -0.276 A  
BRANCH  20  24
HETATM   24  S   UNL     1     -11.680  13.629  64.601  1.00  0.00    -0.408 S  
HETATM   25  O   UNL     1     -12.737  12.691  64.304  1.00  0.00    -0.657 OA 
HETATM   26  N   UNL     1     -12.250  15.117  64.065  1.00  0.00    -0.937 N  
HETATM   27  O   UNL     1     -10.343  13.533  64.063  1.00  0.00    -0.298 OA 
HETATM   28  H1  UNL     1     -12.313  15.023  63.052  1.00  0.00     0.000 HD 
HETATM   29  H2  UNL     1     -12.483  15.934  64.629  1.00  0.00     0.000 HD 
ENDBRANCH  20  24
BRANCH  21  30
HETATM   30  O   UNL     1     -10.910  16.038  66.035  1.00  0.00    -0.286 OA 
HETATM   31  C   UNL     1      -9.908  16.991  66.361  1.00  0.00    -0.299 C  
ENDBRANCH  21  30
ENDBRANCH  17  18
ENDBRANCH  15  17
ENDBRANCH  13  15
ENDBRANCH  12  13
ENDBRANCH  11  12
ENDBRANCH  10  11
ENDBRANCH   9  10
ENDBRANCH   3   4
ENDBRANCH   2   3
TORSDOF 11
ENDMDL
MODEL      122
REMARK 921   NORMALIZED FREE ENERGY PREDICTED BY IDOCK:   -5.06 KCAL/MOL
REMARK 922        TOTAL FREE ENERGY PREDICTED BY IDOCK:   -9.56 KCAL/MOL
REMARK 923 INTER-LIGAND FREE ENERGY PREDICTED BY IDOCK:   -8.79 KCAL/MOL
REMARK 924 INTRA-LIGAND FREE ENERGY PREDICTED BY IDOCK:   -0.77 KCAL/MOL
REMARK 927      BINDING AFFINITY PREDICTED BY RF-SCORE:    0.00 PKD
ROOT
HETATM    1  C   UNL     1     -10.403   6.857  73.386  1.00  0.00    -0.337 C  
HETATM    2  C   UNL     1     -11.442   6.085  72.586  1.00  0.00    -0.253 C  
ENDROOT
BRANCH   2   3
HETATM    3  O   UNL     1     -11.561   6.768  71.344  1.00  0.00    -0.273 OA 
BRANCH   3   4
HETATM    4  C   UNL     1     -11.959   8.070  71.297  1.00  0.00    -0.296 A  
HETATM    5  C   UNL     1     -13.008   8.581  72.073  1.00  0.00    -0.406 A  
HETATM    6  C   UNL     1     -13.394   9.920  71.966  1.00  0.00    -0.532 A  
HETATM    7  C   UNL     1     -12.732  10.767  71.080  1.00  0.00    -0.532 A  
HETATM    8  C   UNL     1     -11.678  10.273  70.313  1.00  0.00    -0.388 A  
HETATM    9  C   UNL     1     -11.276   8.932  70.414  1.00  0.00    -0.230 A  
BRANCH   9  10
HETATM   10  O   UNL     1     -10.214   8.641  69.588  1.00  0.00    -0.197 OA 
BRANCH  10  11
HETATM   11  C   UNL     1     -10.470   7.886  68.405  1.00  0.00    -0.166 C  
BRANCH  11  12
HETATM   12  C   UNL     1     -10.325   8.790  67.174  1.00  0.00    -0.293 C  
BRANCH  12  13
HETATM   13  N   UNL     1      -9.864  10.161  67.444  1.00  0.00    -0.180 NA 
HETATM   14  H   UNL     1      -9.155  10.152  68.178  1.00  0.00     0.000 HD 
BRANCH  13  15
HETATM   15  C   UNL     1      -9.369  10.908  66.272  1.00  0.00    -0.179 C  
HETATM   16  C   UNL     1      -8.210  11.793  66.759  1.00  0.00    -0.147 C  
BRANCH  15  17
HETATM   17  C   UNL     1     -10.464  11.756  65.564  1.00  0.00    -0.311 C  
BRANCH  17  18
HETATM   18  C   UNL     1     -10.906  12.925  66.415  1.00  0.00    -0.293 A  
HETATM   19  C   UNL     1     -10.421  14.207  66.133  1.00  0.00    -0.297 A  
HETATM   20  C   UNL     1     -10.628  15.256  67.038  1.00  0.00    -0.306 A  
HETATM   21  C   UNL     1     -11.419  15.067  68.179  1.00  0.00    -0.339 A  
HETATM   22  C   UNL     1     -11.707  12.738  67.543  1.00  0.00    -0.422 A  
HETATM   23  C   UNL     1     -11.978  13.805  68.406  1.00  0.00    -0.395 A  
BRANCH  20  24
HETATM   24  S   UNL     1      -9.790  16.807  66.822  1.00  0.00    -0.289 S  
HETATM   25  O   UNL     1     -10.784  17.855  66.810  1.00  0.00    -0.279 OA 
HETATM   26  N   UNL     1      -8.931  17.034  68.249  1.00  0.00    -0.234 N  
HETATM   27  O   UNL     1      -8.776  16.646  65.806  1.00  0.00    -0.482 OA 
HETATM   28  H1  UNL     1      -8.450  17.924  68.125  1.00  0.00     0.000 HD 
HETATM   29  H2  UNL     1      -8.898  16.417  69.061  1.00  0.00     0.000 HD 
ENDBRANCH  20  24
BRANCH  21  30
HETATM   30  O   UNL     1     -11.589  16.142  69.007  1.00  0.00    -0.353 OA 
HETATM   31  C   UNL     1     -11.498  15.928  70.409  1.00  0.00    -0.378 C  
ENDBRANCH  21  30
ENDBRANCH  17  18
ENDBRANCH  15  17
ENDBRANCH  13  15
ENDBRANCH  12  13
ENDBRANCH  11  12
ENDBRANCH  10  11
ENDBRANCH   9  10
ENDBRANCH   3   4
ENDBRANCH   2   3
TORSDOF 11
ENDMDL
MODEL      123
REMARK 921   NORMALIZED FREE ENERGY PREDICTED BY IDOCK:   -5.06 KCAL/MOL
REMARK 922        TOTAL FREE ENERGY PREDICTED BY IDOCK:   -9.55 KCAL/MOL
REMARK 923 INTER-LIGAND FREE ENERGY PREDICTED BY IDOCK:   -8.76 KCAL/MOL
REMARK 924 INTRA-LIGAND FREE ENERGY PREDICTED BY IDOCK:   -0.80 KCAL/MOL
REMARK 927      BINDING AFFINITY PREDICTED BY RF-SCORE:    0.00 PKD
ROOT
HETATM    1  C   UNL     1      -8.486   6.628  68.384  1.00  0.00    -0.125 C  
HETATM    2  C   UNL     1      -8.106   5.785  69.591  1.00  0.00    -0.104 C  
ENDROOT
BRANCH   2   3
HETATM    3  O   UNL     1      -8.620   6.474  70.724  1.00  0.00    -0.133 OA 
BRANCH   3   4
HETATM    4  C   UNL     1      -9.540   5.889  71.541  1.00  0.00    -0.153 A  
HETATM    5  C   UNL     1      -9.232   4.840  72.418  1.00  0.00    -0.149 A  
HETATM    6  C   UNL     1     -10.221   4.257  73.215  1.00  0.00    -0.216 A  
HETATM    7  C   UNL     1     -11.533   4.718  73.146  1.00  0.00    -0.348 A  
HETATM    8  C   UNL     1     -11.850   5.770  72.287  1.00  0.00    -0.215 A  
HETATM    9  C   UNL     1     -10.866   6.368  71.484  1.00  0.00    -0.254 A  
BRANCH   9  10
HETATM   10  O   UNL     1     -11.370   7.394  70.718  1.00  0.00    -0.269 OA 
BRANCH  10  11
HETATM   11  C   UNL     1     -11.602   8.653  71.348  1.00  0.00    -0.293 C  
BRANCH  11  12
HETATM   12  C   UNL     1     -12.950   9.221  70.886  1.00  0.00    -0.016 C  
BRANCH  12  13
HETATM   13  N   UNL     1     -12.880  10.468  70.108  1.00  0.00    -0.498 NA 
HETATM   14  H   UNL     1     -13.813  10.736  69.793  1.00  0.00     0.000 HD 
BRANCH  13  15
HETATM   15  C   UNL     1     -12.229  11.605  70.786  1.00  0.00    -0.344 C  
HETATM   16  C   UNL     1     -13.157  12.035  71.933  1.00  0.00    -0.475 C  
BRANCH  15  17
HETATM   17  C   UNL     1     -11.915  12.799  69.839  1.00  0.00    -0.368 C  
BRANCH  17  18
HETATM   18  C   UNL     1     -11.418  12.330  68.490  1.00  0.00    -0.349 A  
HETATM   19  C   UNL     1     -11.911  12.929  67.326  1.00  0.00    -0.416 A  
HETATM   20  C   UNL     1     -11.646  12.362  66.073  1.00  0.00    -0.401 A  
HETATM   21  C   UNL     1     -10.793  11.256  65.956  1.00  0.00    -0.213 A  
HETATM   22  C   UNL     1     -10.556  11.238  68.377  1.00  0.00    -0.226 A  
HETATM   23  C   UNL     1     -10.229  10.719  67.118  1.00  0.00    -0.255 A  
BRANCH  20  24
HETATM   24  S   UNL     1     -12.486  12.954  64.623  1.00  0.00    -0.409 S  
HETATM   25  O   UNL     1     -12.912  14.310  64.877  1.00  0.00    -0.682 OA 
HETATM   26  N   UNL     1     -11.285  13.082  63.454  1.00  0.00    -0.577 N  
HETATM   27  O   UNL     1     -13.360  11.911  64.139  1.00  0.00    -0.652 OA 
HETATM   28  H1  UNL     1     -11.767  13.422  62.622  1.00  0.00     0.000 HD 
HETATM   29  H2  UNL     1     -10.293  12.868  63.553  1.00  0.00     0.000 HD 
ENDBRANCH  20  24
BRANCH  21  30
HETATM   30  O   UNL     1     -10.569  10.769  64.698  1.00  0.00    -0.328 OA 
HETATM   31  C   UNL     1      -9.348  10.084  64.454  1.00  0.00    -0.290 C  
ENDBRANCH  21  30
ENDBRANCH  17  18
ENDBRANCH  15  17
ENDBRANCH  13  15
ENDBRANCH  12  13
ENDBRANCH  11  12
ENDBRANCH  10  11
ENDBRANCH   9  10
ENDBRANCH   3   4
ENDBRANCH   2   3
TORSDOF 11
ENDMDL
MODEL      124
REMARK 921   NORMALIZED FREE ENERGY PREDICTED BY IDOCK:   -5.05 KCAL/MOL
REMARK 922        TOTAL FREE ENERGY PREDICTED BY IDOCK:   -9.55 KCAL/MOL
REMARK 923 INTER-LIGAND FREE ENERGY PREDICTED BY IDOCK:   -8.46 KCAL/MOL
REMARK 924 INTRA-LIGAND FREE ENERGY PREDICTED BY IDOCK:   -1.09 KCAL/MOL
REMARK 927      BINDING AFFINITY PREDICTED BY RF-SCORE:    0.00 PKD
ROOT
HETATM    1  C   UNL     1     -11.261  15.474  70.797  1.00  0.00    -0.384 C  
HETATM    2  C   UNL     1     -11.365  16.033  69.386  1.00  0.00    -0.355 C  
ENDROOT
BRANCH   2   3
HETATM    3  O   UNL     1     -10.096  16.610  69.102  1.00  0.00    -0.268 OA 
BRANCH   3   4
HETATM    4  C   UNL     1      -9.995  17.746  68.359  1.00  0.00    -0.362 A  
HETATM    5  C   UNL     1     -10.060  19.033  68.909  1.00  0.00    -0.396 A  
HETATM    6  C   UNL     1      -9.978  20.167  68.096  1.00  0.00    -0.486 A  
HETATM    7  C   UNL     1      -9.827  20.027  66.718  1.00  0.00    -0.574 A  
HETATM    8  C   UNL     1      -9.748  18.752  66.160  1.00  0.00    -0.280 A  
HETATM    9  C   UNL     1      -9.824  17.604  66.965  1.00  0.00    -0.307 A  
BRANCH   9  10
HETATM   10  O   UNL     1      -9.713  16.444  66.233  1.00  0.00    -0.271 OA 
BRANCH  10  11
HETATM   11  C   UNL     1     -10.558  16.284  65.095  1.00  0.00    -0.304 C  
BRANCH  11  12
HETATM   12  C   UNL     1     -11.225  14.903  65.137  1.00  0.00    -0.386 C  
BRANCH  12  13
HETATM   13  N   UNL     1     -10.729  13.991  66.180  1.00  0.00    -0.287 NA 
HETATM   14  H   UNL     1     -10.722  14.465  67.083  1.00  0.00     0.000 HD 
BRANCH  13  15
HETATM   15  C   UNL     1     -11.443  12.704  66.291  1.00  0.00    -0.364 C  
HETATM   16  C   UNL     1     -12.479  12.664  65.156  1.00  0.00    -0.531 C  
BRANCH  15  17
HETATM   17  C   UNL     1     -12.116  12.482  67.675  1.00  0.00    -0.123 C  
BRANCH  17  18
HETATM   18  C   UNL     1     -11.436  11.382  68.460  1.00  0.00    -0.361 A  
HETATM   19  C   UNL     1     -10.483  10.573  67.832  1.00  0.00    -0.247 A  
HETATM   20  C   UNL     1     -10.015   9.413  68.462  1.00  0.00    -0.173 A  
HETATM   21  C   UNL     1     -10.406   9.105  69.772  1.00  0.00    -0.215 A  
HETATM   22  C   UNL     1     -11.817  11.087  69.770  1.00  0.00    -0.421 A  
HETATM   23  C   UNL     1     -11.289   9.970  70.427  1.00  0.00    -0.392 A  
BRANCH  20  24
HETATM   24  S   UNL     1      -9.018   8.245  67.567  1.00  0.00    -0.135 S  
HETATM   25  O   UNL     1      -9.767   7.015  67.451  1.00  0.00    -0.131 OA 
HETATM   26  N   UNL     1      -8.937   8.858  66.005  1.00  0.00    -0.179 N  
HETATM   27  O   UNL     1      -7.664   8.321  68.063  1.00  0.00    -0.103 OA 
HETATM   28  H1  UNL     1      -8.365   8.188  65.491  1.00  0.00     0.000 HD 
HETATM   29  H2  UNL     1      -9.364   9.712  65.648  1.00  0.00     0.000 HD 
ENDBRANCH  20  24
BRANCH  21  30
HETATM   30  O   UNL     1      -9.895   7.965  70.325  1.00  0.00    -0.183 OA 
HETATM   31  C   UNL     1     -10.808   6.972  70.774  1.00  0.00    -0.246 C  
ENDBRANCH  21  30
ENDBRANCH  17  18
ENDBRANCH  15  17
ENDBRANCH  13  15
ENDBRANCH  12  13
ENDBRANCH  11  12
ENDBRANCH  10  11
ENDBRANCH   9  10
ENDBRANCH   3   4
ENDBRANCH   2   3
TORSDOF 11
ENDMDL
MODEL      125
REMARK 921   NORMALIZED FREE ENERGY PREDICTED BY IDOCK:   -5.05 KCAL/MOL
REMARK 922        TOTAL FREE ENERGY PREDICTED BY IDOCK:   -9.54 KCAL/MOL
REMARK 923 INTER-LIGAND FREE ENERGY PREDICTED BY IDOCK:   -8.34 KCAL/MOL
REMARK 924 INTRA-LIGAND FREE ENERGY PREDICTED BY IDOCK:   -1.20 KCAL/MOL
REMARK 927      BINDING AFFINITY PREDICTED BY RF-SCORE:    0.00 PKD
ROOT
HETATM    1  C   UNL     1      -8.307   3.083  73.296  1.00  0.00    -0.076 C  
HETATM    2  C   UNL     1      -8.438   3.990  72.081  1.00  0.00    -0.104 C  
ENDROOT
BRANCH   2   3
HETATM    3  O   UNL     1      -9.822   4.299  71.975  1.00  0.00    -0.159 OA 
BRANCH   3   4
HETATM    4  C   UNL     1     -10.262   5.584  72.082  1.00  0.00    -0.199 A  
HETATM    5  C   UNL     1     -10.418   6.243  73.309  1.00  0.00    -0.267 A  
HETATM    6  C   UNL     1     -10.900   7.554  73.364  1.00  0.00    -0.339 A  
HETATM    7  C   UNL     1     -11.231   8.224  72.188  1.00  0.00    -0.413 A  
HETATM    8  C   UNL     1     -11.068   7.583  70.961  1.00  0.00    -0.274 A  
HETATM    9  C   UNL     1     -10.580   6.269  70.891  1.00  0.00    -0.241 A  
BRANCH   9  10
HETATM   10  O   UNL     1     -10.478   5.818  69.594  1.00  0.00    -0.236 OA 
BRANCH  10  11
HETATM   11  C   UNL     1     -11.216   6.504  68.584  1.00  0.00    -0.216 C  
BRANCH  11  12
HETATM   12  C   UNL     1     -10.253   7.288  67.683  1.00  0.00    -0.200 C  
BRANCH  12  13
HETATM   13  N   UNL     1     -10.816   8.490  67.047  1.00  0.00    -0.356 NA 
HETATM   14  H   UNL     1     -11.827   8.394  66.954  1.00  0.00     0.000 HD 
BRANCH  13  15
HETATM   15  C   UNL     1     -10.488   9.770  67.704  1.00  0.00    -0.251 C  
HETATM   16  C   UNL     1      -9.245   9.525  68.573  1.00  0.00    -0.131 C  
BRANCH  15  17
HETATM   17  C   UNL     1     -11.657  10.356  68.546  1.00  0.00    -0.152 C  
BRANCH  17  18
HETATM   18  C   UNL     1     -11.522  11.851  68.730  1.00  0.00    -0.347 A  
HETATM   19  C   UNL     1     -11.890  12.434  69.947  1.00  0.00    -0.376 A  
HETATM   20  C   UNL     1     -11.994  13.827  70.061  1.00  0.00    -0.338 A  
HETATM   21  C   UNL     1     -11.622  14.659  68.997  1.00  0.00    -0.298 A  
HETATM   22  C   UNL     1     -11.136  12.678  67.673  1.00  0.00    -0.303 A  
HETATM   23  C   UNL     1     -11.165  14.070  67.813  1.00  0.00    -0.302 A  
BRANCH  20  24
HETATM   24  S   UNL     1     -12.719  14.557  71.509  1.00  0.00    -0.361 S  
HETATM   25  O   UNL     1     -11.783  15.520  72.040  1.00  0.00    -0.377 OA 
HETATM   26  N   UNL     1     -14.007  15.470  70.931  1.00  0.00    -0.853 N  
HETATM   27  O   UNL     1     -13.333  13.512  72.294  1.00  0.00    -0.460 OA 
HETATM   28  H1  UNL     1     -14.423  15.890  71.762  1.00  0.00     0.000 HD 
HETATM   29  H2  UNL     1     -14.307  15.580  69.962  1.00  0.00     0.000 HD 
ENDBRANCH  20  24
BRANCH  21  30
HETATM   30  O   UNL     1     -11.736  16.008  69.189  1.00  0.00    -0.358 OA 
HETATM   31  C   UNL     1     -10.776  16.855  68.571  1.00  0.00    -0.359 C  
ENDBRANCH  21  30
ENDBRANCH  17  18
ENDBRANCH  15  17
ENDBRANCH  13  15
ENDBRANCH  12  13
ENDBRANCH  11  12
ENDBRANCH  10  11
ENDBRANCH   9  10
ENDBRANCH   3   4
ENDBRANCH   2   3
TORSDOF 11
ENDMDL
MODEL      126
REMARK 921   NORMALIZED FREE ENERGY PREDICTED BY IDOCK:   -5.04 KCAL/MOL
REMARK 922        TOTAL FREE ENERGY PREDICTED BY IDOCK:   -9.52 KCAL/MOL
REMARK 923 INTER-LIGAND FREE ENERGY PREDICTED BY IDOCK:   -7.71 KCAL/MOL
REMARK 924 INTRA-LIGAND FREE ENERGY PREDICTED BY IDOCK:   -1.81 KCAL/MOL
REMARK 927      BINDING AFFINITY PREDICTED BY RF-SCORE:    0.00 PKD
ROOT
HETATM    1  C   UNL     1      -7.584   9.097  66.912  1.00  0.00    -0.091 C  
HETATM    2  C   UNL     1      -7.474   9.991  68.137  1.00  0.00    -0.083 C  
ENDROOT
BRANCH   2   3
HETATM    3  O   UNL     1      -8.476   9.539  69.040  1.00  0.00    -0.119 OA 
BRANCH   3   4
HETATM    4  C   UNL     1      -8.166   8.703  70.068  1.00  0.00    -0.122 A  
HETATM    5  C   UNL     1      -7.438   9.109  71.196  1.00  0.00    -0.091 A  
HETATM    6  C   UNL     1      -7.122   8.202  72.211  1.00  0.00    -0.102 A  
HETATM    7  C   UNL     1      -7.533   6.875  72.113  1.00  0.00    -0.091 A  
HETATM    8  C   UNL     1      -8.269   6.462  71.003  1.00  0.00    -0.122 A  
HETATM    9  C   UNL     1      -8.598   7.363  69.978  1.00  0.00    -0.140 A  
BRANCH   9  10
HETATM   10  O   UNL     1      -9.336   6.771  68.979  1.00  0.00    -0.136 OA 
BRANCH  10  11
HETATM   11  C   UNL     1     -10.734   7.049  68.922  1.00  0.00    -0.200 C  
BRANCH  11  12
HETATM   12  C   UNL     1     -11.438   6.406  70.123  1.00  0.00    -0.417 C  
BRANCH  12  13
HETATM   13  N   UNL     1     -12.449   7.243  70.789  1.00  0.00    -0.580 NA 
HETATM   14  H   UNL     1     -12.982   6.683  71.455  1.00  0.00     0.000 HD 
BRANCH  13  15
HETATM   15  C   UNL     1     -11.934   8.457  71.450  1.00  0.00    -0.297 C  
HETATM   16  C   UNL     1     -11.125   7.996  72.672  1.00  0.00    -0.453 C  
BRANCH  15  17
HETATM   17  C   UNL     1     -13.046   9.464  71.859  1.00  0.00    -0.505 C  
BRANCH  17  18
HETATM   18  C   UNL     1     -12.829  10.825  71.235  1.00  0.00    -0.540 A  
HETATM   19  C   UNL     1     -12.223  10.919  69.977  1.00  0.00    -0.422 A  
HETATM   20  C   UNL     1     -11.803  12.162  69.487  1.00  0.00    -0.321 A  
HETATM   21  C   UNL     1     -12.086  13.339  70.191  1.00  0.00    -0.333 A  
HETATM   22  C   UNL     1     -13.126  11.997  71.932  1.00  0.00    -0.475 A  
HETATM   23  C   UNL     1     -12.776  13.245  71.405  1.00  0.00    -0.401 A  
BRANCH  20  24
HETATM   24  S   UNL     1     -10.796  12.257  68.026  1.00  0.00    -0.233 S  
HETATM   25  O   UNL     1     -10.879  10.988  67.342  1.00  0.00    -0.239 OA 
HETATM   26  N   UNL     1     -11.592  13.348  67.026  1.00  0.00    -0.337 N  
HETATM   27  O   UNL     1      -9.553  12.910  68.365  1.00  0.00    -0.221 OA 
HETATM   28  H1  UNL     1     -11.014  13.403  66.188  1.00  0.00     0.000 HD 
HETATM   29  H2  UNL     1     -12.462  13.846  67.214  1.00  0.00     0.000 HD 
ENDBRANCH  20  24
BRANCH  21  30
HETATM   30  O   UNL     1     -11.659  14.515  69.641  1.00  0.00    -0.268 OA 
HETATM   31  C   UNL     1     -11.798  15.703  70.409  1.00  0.00    -0.370 C  
ENDBRANCH  21  30
ENDBRANCH  17  18
ENDBRANCH  15  17
ENDBRANCH  13  15
ENDBRANCH  12  13
ENDBRANCH  11  12
ENDBRANCH  10  11
ENDBRANCH   9  10
ENDBRANCH   3   4
ENDBRANCH   2   3
TORSDOF 11
ENDMDL
MODEL      127
REMARK 921   NORMALIZED FREE ENERGY PREDICTED BY IDOCK:   -5.04 KCAL/MOL
REMARK 922        TOTAL FREE ENERGY PREDICTED BY IDOCK:   -9.52 KCAL/MOL
REMARK 923 INTER-LIGAND FREE ENERGY PREDICTED BY IDOCK:   -8.92 KCAL/MOL
REMARK 924 INTRA-LIGAND FREE ENERGY PREDICTED BY IDOCK:   -0.60 KCAL/MOL
REMARK 927      BINDING AFFINITY PREDICTED BY RF-SCORE:    0.00 PKD
ROOT
HETATM    1  C   UNL     1     -14.172   7.811  71.460  1.00  0.00    -0.540 C  
HETATM    2  C   UNL     1     -13.691   9.121  72.065  1.00  0.00    -0.448 C  
ENDROOT
BRANCH   2   3
HETATM    3  O   UNL     1     -12.701   9.620  71.174  1.00  0.00    -0.321 OA 
BRANCH   3   4
HETATM    4  C   UNL     1     -11.398   9.246  71.296  1.00  0.00    -0.353 A  
HETATM    5  C   UNL     1     -10.891   8.583  72.423  1.00  0.00    -0.378 A  
HETATM    6  C   UNL     1      -9.538   8.246  72.508  1.00  0.00    -0.365 A  
HETATM    7  C   UNL     1      -8.672   8.567  71.465  1.00  0.00    -0.246 A  
HETATM    8  C   UNL     1      -9.166   9.215  70.335  1.00  0.00    -0.271 A  
HETATM    9  C   UNL     1     -10.525   9.555  70.232  1.00  0.00    -0.268 A  
BRANCH   9  10
HETATM   10  O   UNL     1     -10.819  10.174  69.039  1.00  0.00    -0.206 OA 
BRANCH  10  11
HETATM   11  C   UNL     1     -10.767   9.394  67.846  1.00  0.00    -0.210 C  
BRANCH  11  12
HETATM   12  C   UNL     1     -10.048  10.183  66.744  1.00  0.00    -0.219 C  
BRANCH  12  13
HETATM   13  N   UNL     1     -10.448  11.593  66.610  1.00  0.00    -0.225 NA 
HETATM   14  H   UNL     1      -9.622  12.193  66.634  1.00  0.00     0.000 HD 
BRANCH  13  15
HETATM   15  C   UNL     1     -11.270  11.913  65.428  1.00  0.00    -0.295 C  
HETATM   16  C   UNL     1     -10.309  12.061  64.238  1.00  0.00    -0.357 C  
BRANCH  15  17
HETATM   17  C   UNL     1     -12.148  13.185  65.603  1.00  0.00    -0.501 C  
BRANCH  17  18
HETATM   18  C   UNL     1     -11.926  13.839  66.949  1.00  0.00    -0.460 A  
HETATM   19  C   UNL     1     -11.261  15.068  67.018  1.00  0.00    -0.328 A  
HETATM   20  C   UNL     1     -10.841  15.575  68.255  1.00  0.00    -0.292 A  
HETATM   21  C   UNL     1     -11.178  14.920  69.447  1.00  0.00    -0.283 A  
HETATM   22  C   UNL     1     -12.277  13.191  68.135  1.00  0.00    -0.070 A  
HETATM   23  C   UNL     1     -11.924  13.739  69.373  1.00  0.00    -0.397 A  
BRANCH  20  24
HETATM   24  S   UNL     1      -9.766  16.988  68.327  1.00  0.00    -0.288 S  
HETATM   25  O   UNL     1      -8.521  16.571  68.927  1.00  0.00    -0.232 OA 
HETATM   26  N   UNL     1      -9.390  17.324  66.724  1.00  0.00    -0.250 N  
HETATM   27  O   UNL     1     -10.533  18.128  68.771  1.00  0.00    -0.310 OA 
HETATM   28  H1  UNL     1      -8.773  18.135  66.766  1.00  0.00     0.000 HD 
HETATM   29  H2  UNL     1      -9.709  16.827  65.892  1.00  0.00     0.000 HD 
ENDBRANCH  20  24
BRANCH  21  30
HETATM   30  O   UNL     1     -10.747  15.484  70.614  1.00  0.00    -0.325 OA 
HETATM   31  C   UNL     1     -11.723  16.007  71.505  1.00  0.00    -0.484 C  
ENDBRANCH  21  30
ENDBRANCH  17  18
ENDBRANCH  15  17
ENDBRANCH  13  15
ENDBRANCH  12  13
ENDBRANCH  11  12
ENDBRANCH  10  11
ENDBRANCH   9  10
ENDBRANCH   3   4
ENDBRANCH   2   3
TORSDOF 11
ENDMDL
MODEL      128
REMARK 921   NORMALIZED FREE ENERGY PREDICTED BY IDOCK:   -5.03 KCAL/MOL
REMARK 922        TOTAL FREE ENERGY PREDICTED BY IDOCK:   -9.50 KCAL/MOL
REMARK 923 INTER-LIGAND FREE ENERGY PREDICTED BY IDOCK:   -8.31 KCAL/MOL
REMARK 924 INTRA-LIGAND FREE ENERGY PREDICTED BY IDOCK:   -1.19 KCAL/MOL
REMARK 927      BINDING AFFINITY PREDICTED BY RF-SCORE:    0.00 PKD
ROOT
HETATM    1  C   UNL     1     -10.518  18.927  65.904  1.00  0.00    -0.450 C  
HETATM    2  C   UNL     1      -9.869  17.750  66.616  1.00  0.00    -0.322 C  
ENDROOT
BRANCH   2   3
HETATM    3  O   UNL     1      -9.685  16.749  65.622  1.00  0.00    -0.539 OA 
BRANCH   3   4
HETATM    4  C   UNL     1     -10.608  15.765  65.440  1.00  0.00    -0.421 A  
HETATM    5  C   UNL     1     -11.533  15.765  64.386  1.00  0.00    -0.268 A  
HETATM    6  C   UNL     1     -12.478  14.743  64.261  1.00  0.00    -0.224 A  
HETATM    7  C   UNL     1     -12.509  13.705  65.190  1.00  0.00    -0.488 A  
HETATM    8  C   UNL     1     -11.587  13.688  66.235  1.00  0.00    -0.372 A  
HETATM    9  C   UNL     1     -10.628  14.704  66.370  1.00  0.00    -0.301 A  
BRANCH   9  10
HETATM   10  O   UNL     1      -9.802  14.503  67.452  1.00  0.00    -0.223 OA 
BRANCH  10  11
HETATM   11  C   UNL     1      -8.481  14.023  67.208  1.00  0.00    -0.207 C  
BRANCH  11  12
HETATM   12  C   UNL     1      -8.437  12.503  67.411  1.00  0.00    -0.181 C  
BRANCH  12  13
HETATM   13  N   UNL     1      -8.355  11.701  66.180  1.00  0.00    -0.378 NA 
HETATM   14  H   UNL     1      -7.409  11.336  66.064  1.00  0.00     0.000 HD 
BRANCH  13  15
HETATM   15  C   UNL     1      -9.336  10.605  66.068  1.00  0.00    -0.186 C  
HETATM   16  C   UNL     1      -9.992  10.727  64.684  1.00  0.00    -0.386 C  
BRANCH  15  17
HETATM   17  C   UNL     1     -10.404  10.606  67.199  1.00  0.00    -0.275 C  
BRANCH  17  18
HETATM   18  C   UNL     1     -10.593   9.228  67.793  1.00  0.00    -0.307 A  
HETATM   19  C   UNL     1     -10.706   9.084  69.180  1.00  0.00    -0.176 A  
HETATM   20  C   UNL     1     -10.647   7.812  69.765  1.00  0.00    -0.241 A  
HETATM   21  C   UNL     1     -10.591   6.662  68.968  1.00  0.00    -0.239 A  
HETATM   22  C   UNL     1     -10.552   8.084  66.995  1.00  0.00    -0.364 A  
HETATM   23  C   UNL     1     -10.573   6.811  67.577  1.00  0.00    -0.348 A  
BRANCH  20  24
HETATM   24  S   UNL     1     -10.516   7.640  71.529  1.00  0.00    -0.205 S  
HETATM   25  O   UNL     1     -11.658   6.888  71.991  1.00  0.00    -0.265 OA 
HETATM   26  N   UNL     1      -9.197   6.626  71.764  1.00  0.00    -0.148 N  
HETATM   27  O   UNL     1     -10.107   8.909  72.086  1.00  0.00    -0.325 OA 
HETATM   28  H1  UNL     1      -9.121   6.527  72.776  1.00  0.00     0.000 HD 
HETATM   29  H2  UNL     1      -8.602   6.202  71.052  1.00  0.00     0.000 HD 
ENDBRANCH  20  24
BRANCH  21  30
HETATM   30  O   UNL     1     -10.553   5.456  69.611  1.00  0.00    -0.298 OA 
HETATM   31  C   UNL     1      -9.685   4.453  69.101  1.00  0.00    -0.170 C  
ENDBRANCH  21  30
ENDBRANCH  17  18
ENDBRANCH  15  17
ENDBRANCH  13  15
ENDBRANCH  12  13
ENDBRANCH  11  12
ENDBRANCH  10  11
ENDBRANCH   9  10
ENDBRANCH   3   4
ENDBRANCH   2   3
TORSDOF 11
ENDMDL
MODEL      129
REMARK 921   NORMALIZED FREE ENERGY PREDICTED BY IDOCK:   -5.02 KCAL/MOL
REMARK 922        TOTAL FREE ENERGY PREDICTED BY IDOCK:   -9.49 KCAL/MOL
REMARK 923 INTER-LIGAND FREE ENERGY PREDICTED BY IDOCK:   -8.08 KCAL/MOL
REMARK 924 INTRA-LIGAND FREE ENERGY PREDICTED BY IDOCK:   -1.41 KCAL/MOL
REMARK 927      BINDING AFFINITY PREDICTED BY RF-SCORE:    0.00 PKD
ROOT
HETATM    1  C   UNL     1      -7.830  11.429  67.390  1.00  0.00    -0.135 C  
HETATM    2  C   UNL     1      -7.782   9.910  67.440  1.00  0.00    -0.091 C  
ENDROOT
BRANCH   2   3
HETATM    3  O   UNL     1      -8.821   9.518  68.328  1.00  0.00    -0.124 OA 
BRANCH   3   4
HETATM    4  C   UNL     1      -9.465   8.328  68.170  1.00  0.00    -0.137 A  
HETATM    5  C   UNL     1     -10.199   7.998  67.022  1.00  0.00    -0.374 A  
HETATM    6  C   UNL     1     -10.864   6.773  66.923  1.00  0.00    -0.402 A  
HETATM    7  C   UNL     1     -10.801   5.859  67.972  1.00  0.00    -0.321 A  
HETATM    8  C   UNL     1     -10.064   6.170  69.114  1.00  0.00    -0.212 A  
HETATM    9  C   UNL     1      -9.386   7.395  69.225  1.00  0.00    -0.154 A  
BRANCH   9  10
HETATM   10  O   UNL     1      -8.706   7.509  70.416  1.00  0.00    -0.141 OA 
BRANCH  10  11
HETATM   11  C   UNL     1      -9.176   6.755  71.533  1.00  0.00    -0.149 C  
BRANCH  11  12
HETATM   12  C   UNL     1     -10.341   7.496  72.203  1.00  0.00    -0.210 C  
BRANCH  12  13
HETATM   13  N   UNL     1     -10.360   8.954  72.011  1.00  0.00    -0.340 NA 
HETATM   14  H   UNL     1      -9.651   9.226  71.329  1.00  0.00     0.000 HD 
BRANCH  13  15
HETATM   15  C   UNL     1     -11.666   9.530  71.636  1.00  0.00    -0.390 C  
HETATM   16  C   UNL     1     -12.747   8.580  72.175  1.00  0.00    -0.423 C  
BRANCH  15  17
HETATM   17  C   UNL     1     -11.831   9.761  70.107  1.00  0.00    -0.141 C  
BRANCH  17  18
HETATM   18  C   UNL     1     -12.030  11.224  69.779  1.00  0.00    -0.431 A  
HETATM   19  C   UNL     1     -11.905  11.658  68.455  1.00  0.00    -0.346 A  
HETATM   20  C   UNL     1     -11.854  13.027  68.162  1.00  0.00    -0.340 A  
HETATM   21  C   UNL     1     -12.042  13.980  69.172  1.00  0.00    -0.337 A  
HETATM   22  C   UNL     1     -12.232  12.170  70.785  1.00  0.00    -0.367 A  
HETATM   23  C   UNL     1     -12.259  13.535  70.480  1.00  0.00    -0.433 A  
BRANCH  20  24
HETATM   24  S   UNL     1     -11.426  13.580  66.529  1.00  0.00    -0.355 S  
HETATM   25  O   UNL     1     -10.133  14.220  66.598  1.00  0.00    -0.261 OA 
HETATM   26  N   UNL     1     -11.171  12.170  65.650  1.00  0.00    -0.324 N  
HETATM   27  O   UNL     1     -12.592  14.182  65.925  1.00  0.00    -0.486 OA 
HETATM   28  H1  UNL     1     -10.925  12.487  64.713  1.00  0.00     0.000 HD 
HETATM   29  H2  UNL     1     -11.245  11.208  65.981  1.00  0.00     0.000 HD 
ENDBRANCH  20  24
BRANCH  21  30
HETATM   30  O   UNL     1     -11.995  15.296  68.805  1.00  0.00    -0.321 OA 
HETATM   31  C   UNL     1     -11.045  16.136  69.449  1.00  0.00    -0.335 C  
ENDBRANCH  21  30
ENDBRANCH  17  18
ENDBRANCH  15  17
ENDBRANCH  13  15
ENDBRANCH  12  13
ENDBRANCH  11  12
ENDBRANCH  10  11
ENDBRANCH   9  10
ENDBRANCH   3   4
ENDBRANCH   2   3
TORSDOF 11
ENDMDL
MODEL      130
REMARK 921   NORMALIZED FREE ENERGY PREDICTED BY IDOCK:   -5.02 KCAL/MOL
REMARK 922        TOTAL FREE ENERGY PREDICTED BY IDOCK:   -9.49 KCAL/MOL
REMARK 923 INTER-LIGAND FREE ENERGY PREDICTED BY IDOCK:   -7.48 KCAL/MOL
REMARK 924 INTRA-LIGAND FREE ENERGY PREDICTED BY IDOCK:   -2.01 KCAL/MOL
REMARK 927      BINDING AFFINITY PREDICTED BY RF-SCORE:    0.00 PKD
ROOT
HETATM    1  C   UNL     1     -11.432  15.248  67.504  1.00  0.00    -0.271 C  
HETATM    2  C   UNL     1     -10.928  14.691  66.182  1.00  0.00    -0.329 C  
ENDROOT
BRANCH   2   3
HETATM    3  O   UNL     1     -11.706  13.527  65.929  1.00  0.00    -0.326 OA 
BRANCH   3   4
HETATM    4  C   UNL     1     -11.163  12.284  66.044  1.00  0.00    -0.332 A  
HETATM    5  C   UNL     1     -10.384  11.690  65.041  1.00  0.00    -0.329 A  
HETATM    6  C   UNL     1      -9.873  10.399  65.199  1.00  0.00    -0.378 A  
HETATM    7  C   UNL     1     -10.133   9.685  66.366  1.00  0.00    -0.317 A  
HETATM    8  C   UNL     1     -10.895  10.270  67.376  1.00  0.00    -0.336 A  
HETATM    9  C   UNL     1     -11.411  11.568  67.233  1.00  0.00    -0.290 A  
BRANCH   9  10
HETATM   10  O   UNL     1     -12.122  11.972  68.340  1.00  0.00    -0.412 OA 
BRANCH  10  11
HETATM   11  C   UNL     1     -11.456  11.979  69.601  1.00  0.00    -0.252 C  
BRANCH  11  12
HETATM   12  C   UNL     1     -12.331  11.283  70.652  1.00  0.00    -0.383 C  
BRANCH  12  13
HETATM   13  N   UNL     1     -12.723   9.901  70.336  1.00  0.00    -0.528 NA 
HETATM   14  H   UNL     1     -12.324   9.621  69.439  1.00  0.00     0.000 HD 
BRANCH  13  15
HETATM   15  C   UNL     1     -12.400   8.896  71.367  1.00  0.00    -0.313 C  
HETATM   16  C   UNL     1     -13.435   9.057  72.492  1.00  0.00    -0.485 C  
BRANCH  15  17
HETATM   17  C   UNL     1     -10.950   9.010  71.917  1.00  0.00    -0.423 C  
BRANCH  17  18
HETATM   18  C   UNL     1      -9.929   8.527  70.911  1.00  0.00    -0.237 A  
HETATM   19  C   UNL     1      -8.832   9.337  70.597  1.00  0.00    -0.287 A  
HETATM   20  C   UNL     1      -8.008   9.019  69.510  1.00  0.00    -0.099 A  
HETATM   21  C   UNL     1      -8.199   7.831  68.793  1.00  0.00    -0.128 A  
HETATM   22  C   UNL     1     -10.113   7.335  70.209  1.00  0.00    -0.196 A  
HETATM   23  C   UNL     1      -9.242   6.980  69.173  1.00  0.00    -0.138 A  
BRANCH  20  24
HETATM   24  S   UNL     1      -6.786  10.177  68.941  1.00  0.00    -0.057 S  
HETATM   25  O   UNL     1      -7.211  10.680  67.656  1.00  0.00    -0.086 OA 
HETATM   26  N   UNL     1      -6.914  11.485  69.988  1.00  0.00    -0.303 N  
HETATM   27  O   UNL     1      -5.475   9.628  69.198  1.00  0.00    -0.036 OA 
HETATM   28  H1  UNL     1      -6.213  12.150  69.662  1.00  0.00     0.000 HD 
HETATM   29  H2  UNL     1      -7.552  11.592  70.777  1.00  0.00     0.000 HD 
ENDBRANCH  20  24
BRANCH  21  30
HETATM   30  O   UNL     1      -7.344   7.582  67.755  1.00  0.00    -0.096 OA 
HETATM   31  C   UNL     1      -7.833   6.834  66.650  1.00  0.00    -0.107 C  
ENDBRANCH  21  30
ENDBRANCH  17  18
ENDBRANCH  15  17
ENDBRANCH  13  15
ENDBRANCH  12  13
ENDBRANCH  11  12
ENDBRANCH  10  11
ENDBRANCH   9  10
ENDBRANCH   3   4
ENDBRANCH   2   3
TORSDOF 11
ENDMDL
MODEL      131
REMARK 921   NORMALIZED FREE ENERGY PREDICTED BY IDOCK:   -5.02 KCAL/MOL
REMARK 922        TOTAL FREE ENERGY PREDICTED BY IDOCK:   -9.49 KCAL/MOL
REMARK 923 INTER-LIGAND FREE ENERGY PREDICTED BY IDOCK:   -8.49 KCAL/MOL
REMARK 924 INTRA-LIGAND FREE ENERGY PREDICTED BY IDOCK:   -1.00 KCAL/MOL
REMARK 927      BINDING AFFINITY PREDICTED BY RF-SCORE:    0.00 PKD
ROOT
HETATM    1  C   UNL     1      -8.572  10.666  62.623  1.00  0.00    -0.252 C  
HETATM    2  C   UNL     1      -7.310   9.958  63.091  1.00  0.00    -0.130 C  
ENDROOT
BRANCH   2   3
HETATM    3  O   UNL     1      -7.393   9.914  64.510  1.00  0.00    -0.130 OA 
BRANCH   3   4
HETATM    4  C   UNL     1      -8.030   8.891  65.142  1.00  0.00    -0.122 A  
HETATM    5  C   UNL     1      -7.756   7.540  64.887  1.00  0.00    -0.115 A  
HETATM    6  C   UNL     1      -8.459   6.527  65.545  1.00  0.00    -0.139 A  
HETATM    7  C   UNL     1      -9.448   6.854  66.470  1.00  0.00    -0.199 A  
HETATM    8  C   UNL     1      -9.721   8.194  66.742  1.00  0.00    -0.303 A  
HETATM    9  C   UNL     1      -9.019   9.221  66.093  1.00  0.00    -0.165 A  
BRANCH   9  10
HETATM   10  O   UNL     1      -9.422  10.471  66.505  1.00  0.00    -0.160 OA 
BRANCH  10  11
HETATM   11  C   UNL     1     -10.768  10.630  66.950  1.00  0.00    -0.237 C  
BRANCH  11  12
HETATM   12  C   UNL     1     -10.801  10.704  68.482  1.00  0.00    -0.233 C  
BRANCH  12  13
HETATM   13  N   UNL     1     -12.094  11.088  69.071  1.00  0.00    -0.608 NA 
HETATM   14  H   UNL     1     -12.651  10.254  69.262  1.00  0.00     0.000 HD 
BRANCH  13  15
HETATM   15  C   UNL     1     -12.018  11.932  70.278  1.00  0.00    -0.330 C  
HETATM   16  C   UNL     1     -12.861  11.243  71.363  1.00  0.00    -0.515 C  
BRANCH  15  17
HETATM   17  C   UNL     1     -12.486  13.396  70.047  1.00  0.00    -0.202 C  
BRANCH  17  18
HETATM   18  C   UNL     1     -11.646  14.096  69.001  1.00  0.00    -0.342 A  
HETATM   19  C   UNL     1     -12.021  14.027  67.655  1.00  0.00    -0.404 A  
HETATM   20  C   UNL     1     -11.143  14.464  66.655  1.00  0.00    -0.326 A  
HETATM   21  C   UNL     1      -9.929  15.078  66.989  1.00  0.00    -0.242 A  
HETATM   22  C   UNL     1     -10.445  14.721  69.339  1.00  0.00    -0.210 A  
HETATM   23  C   UNL     1      -9.604  15.227  68.341  1.00  0.00    -0.206 A  
BRANCH  20  24
HETATM   24  S   UNL     1     -11.494  14.132  64.945  1.00  0.00    -0.387 S  
HETATM   25  O   UNL     1     -12.880  13.741  64.841  1.00  0.00    -0.690 OA 
HETATM   26  N   UNL     1     -11.402  15.631  64.189  1.00  0.00    -0.762 N  
HETATM   27  O   UNL     1     -10.398  13.373  64.388  1.00  0.00    -0.425 OA 
HETATM   28  H1  UNL     1     -11.604  15.441  63.208  1.00  0.00     0.000 HD 
HETATM   29  H2  UNL     1     -11.192  16.532  64.617  1.00  0.00     0.000 HD 
ENDBRANCH  20  24
BRANCH  21  30
HETATM   30  O   UNL     1      -9.133  15.493  65.958  1.00  0.00    -0.326 OA 
HETATM   31  C   UNL     1      -8.178  16.513  66.218  1.00  0.00    -0.325 C  
ENDBRANCH  21  30
ENDBRANCH  17  18
ENDBRANCH  15  17
ENDBRANCH  13  15
ENDBRANCH  12  13
ENDBRANCH  11  12
ENDBRANCH  10  11
ENDBRANCH   9  10
ENDBRANCH   3   4
ENDBRANCH   2   3
TORSDOF 11
ENDMDL
MODEL      132
REMARK 921   NORMALIZED FREE ENERGY PREDICTED BY IDOCK:   -5.00 KCAL/MOL
REMARK 922        TOTAL FREE ENERGY PREDICTED BY IDOCK:   -9.46 KCAL/MOL
REMARK 923 INTER-LIGAND FREE ENERGY PREDICTED BY IDOCK:   -8.27 KCAL/MOL
REMARK 924 INTRA-LIGAND FREE ENERGY PREDICTED BY IDOCK:   -1.19 KCAL/MOL
REMARK 927      BINDING AFFINITY PREDICTED BY RF-SCORE:    0.00 PKD
ROOT
HETATM    1  C   UNL     1     -10.532   4.108  74.312  1.00  0.00    -0.295 C  
HETATM    2  C   UNL     1     -10.272   5.548  73.897  1.00  0.00    -0.241 C  
ENDROOT
BRANCH   2   3
HETATM    3  O   UNL     1     -11.297   5.875  72.966  1.00  0.00    -0.247 OA 
BRANCH   3   4
HETATM    4  C   UNL     1     -11.077   5.791  71.625  1.00  0.00    -0.226 A  
HETATM    5  C   UNL     1     -10.115   4.945  71.055  1.00  0.00    -0.288 A  
HETATM    6  C   UNL     1      -9.911   4.919  69.673  1.00  0.00    -0.302 A  
HETATM    7  C   UNL     1     -10.670   5.739  68.841  1.00  0.00    -0.334 A  
HETATM    8  C   UNL     1     -11.638   6.575  69.394  1.00  0.00    -0.249 A  
HETATM    9  C   UNL     1     -11.858   6.608  70.781  1.00  0.00    -0.383 A  
BRANCH   9  10
HETATM   10  O   UNL     1     -12.861   7.483  71.130  1.00  0.00    -0.302 OA 
BRANCH  10  11
HETATM   11  C   UNL     1     -12.497   8.693  71.793  1.00  0.00    -0.346 C  
BRANCH  11  12
HETATM   12  C   UNL     1     -12.220   9.788  70.755  1.00  0.00    -0.256 C  
BRANCH  12  13
HETATM   13  N   UNL     1     -10.861  10.353  70.776  1.00  0.00    -0.349 NA 
HETATM   14  H   UNL     1     -10.382  10.078  71.635  1.00  0.00     0.000 HD 
BRANCH  13  15
HETATM   15  C   UNL     1     -10.021  10.034  69.606  1.00  0.00    -0.236 C  
HETATM   16  C   UNL     1      -8.909   9.091  70.094  1.00  0.00    -0.196 C  
BRANCH  15  17
HETATM   17  C   UNL     1      -9.427  11.288  68.904  1.00  0.00    -0.102 C  
BRANCH  17  18
HETATM   18  C   UNL     1     -10.329  11.794  67.801  1.00  0.00    -0.211 A  
HETATM   19  C   UNL     1     -10.218  11.255  66.515  1.00  0.00    -0.269 A  
HETATM   20  C   UNL     1     -10.872  11.863  65.435  1.00  0.00    -0.294 A  
HETATM   21  C   UNL     1     -11.736  12.946  65.643  1.00  0.00    -0.387 A  
HETATM   22  C   UNL     1     -11.201  12.863  68.014  1.00  0.00    -0.305 A  
HETATM   23  C   UNL     1     -11.915  13.420  66.947  1.00  0.00    -0.437 A  
BRANCH  20  24
HETATM   24  S   UNL     1     -10.520  11.354  63.770  1.00  0.00    -0.431 S  
HETATM   25  O   UNL     1      -9.905  10.048  63.822  1.00  0.00    -0.169 OA 
HETATM   26  N   UNL     1     -12.027  11.101  63.070  1.00  0.00    -0.468 N  
HETATM   27  O   UNL     1      -9.966  12.477  63.051  1.00  0.00    -0.121 OA 
HETATM   28  H1  UNL     1     -11.825  10.808  62.115  1.00  0.00     0.000 HD 
HETATM   29  H2  UNL     1     -12.943  11.215  63.505  1.00  0.00     0.000 HD 
ENDBRANCH  20  24
BRANCH  21  30
HETATM   30  O   UNL     1     -12.351  13.475  64.542  1.00  0.00    -0.489 OA 
HETATM   31  C   UNL     1     -12.178  14.862  64.281  1.00  0.00    -0.344 C  
ENDBRANCH  21  30
ENDBRANCH  17  18
ENDBRANCH  15  17
ENDBRANCH  13  15
ENDBRANCH  12  13
ENDBRANCH  11  12
ENDBRANCH  10  11
ENDBRANCH   9  10
ENDBRANCH   3   4
ENDBRANCH   2   3
TORSDOF 11
ENDMDL
MODEL      133
REMARK 921   NORMALIZED FREE ENERGY PREDICTED BY IDOCK:   -5.00 KCAL/MOL
REMARK 922        TOTAL FREE ENERGY PREDICTED BY IDOCK:   -9.45 KCAL/MOL
REMARK 923 INTER-LIGAND FREE ENERGY PREDICTED BY IDOCK:   -8.37 KCAL/MOL
REMARK 924 INTRA-LIGAND FREE ENERGY PREDICTED BY IDOCK:   -1.08 KCAL/MOL
REMARK 927      BINDING AFFINITY PREDICTED BY RF-SCORE:    0.00 PKD
ROOT
HETATM    1  C   UNL     1      -7.888   9.930  64.459  1.00  0.00    -0.142 C  
HETATM    2  C   UNL     1      -9.365   9.905  64.097  1.00  0.00    -0.237 C  
ENDROOT
BRANCH   2   3
HETATM    3  O   UNL     1     -10.039  10.544  65.174  1.00  0.00    -0.291 OA 
BRANCH   3   4
HETATM    4  C   UNL     1     -10.899  11.576  64.948  1.00  0.00    -0.283 A  
HETATM    5  C   UNL     1     -11.330  11.950  63.668  1.00  0.00    -0.536 A  
HETATM    6  C   UNL     1     -12.192  13.035  63.490  1.00  0.00    -0.580 A  
HETATM    7  C   UNL     1     -12.637  13.761  64.593  1.00  0.00    -0.288 A  
HETATM    8  C   UNL     1     -12.225  13.390  65.872  1.00  0.00    -0.502 A  
HETATM    9  C   UNL     1     -11.363  12.299  66.066  1.00  0.00    -0.350 A  
BRANCH   9  10
HETATM   10  O   UNL     1     -11.084  12.085  67.397  1.00  0.00    -0.248 OA 
BRANCH  10  11
HETATM   11  C   UNL     1     -11.291  13.162  68.309  1.00  0.00    -0.297 C  
BRANCH  11  12
HETATM   12  C   UNL     1     -11.900  12.627  69.612  1.00  0.00    -0.311 C  
BRANCH  12  13
HETATM   13  N   UNL     1     -11.248  11.433  70.173  1.00  0.00    -0.483 NA 
HETATM   14  H   UNL     1     -10.486  11.710  70.793  1.00  0.00     0.000 HD 
BRANCH  13  15
HETATM   15  C   UNL     1     -12.142  10.485  70.865  1.00  0.00    -0.383 C  
HETATM   16  C   UNL     1     -13.054  11.315  71.782  1.00  0.00    -0.527 C  
BRANCH  15  17
HETATM   17  C   UNL     1     -11.388   9.387  71.666  1.00  0.00    -0.452 C  
BRANCH  17  18
HETATM   18  C   UNL     1     -10.245   8.797  70.871  1.00  0.00    -0.284 A  
HETATM   19  C   UNL     1     -10.512   8.120  69.676  1.00  0.00    -0.224 A  
HETATM   20  C   UNL     1      -9.507   7.371  69.048  1.00  0.00    -0.148 A  
HETATM   21  C   UNL     1      -8.196   7.382  69.542  1.00  0.00    -0.131 A  
HETATM   22  C   UNL     1      -8.937   8.822  71.357  1.00  0.00    -0.307 A  
HETATM   23  C   UNL     1      -7.917   8.138  70.685  1.00  0.00    -0.096 A  
BRANCH  20  24
HETATM   24  S   UNL     1      -9.904   6.296  67.691  1.00  0.00    -0.130 S  
HETATM   25  O   UNL     1      -9.839   4.934  68.166  1.00  0.00    -0.152 OA 
HETATM   26  N   UNL     1     -11.533   6.576  67.383  1.00  0.00    -0.731 N  
HETATM   27  O   UNL     1      -9.221   6.771  66.511  1.00  0.00    -0.155 OA 
HETATM   28  H1  UNL     1     -11.761   5.958  66.605  1.00  0.00     0.000 HD 
HETATM   29  H2  UNL     1     -12.156   7.221  67.868  1.00  0.00     0.000 HD 
ENDBRANCH  20  24
BRANCH  21  30
HETATM   30  O   UNL     1      -7.268   6.640  68.866  1.00  0.00    -0.085 OA 
HETATM   31  C   UNL     1      -5.951   6.572  69.397  1.00  0.00    -0.022 C  
ENDBRANCH  21  30
ENDBRANCH  17  18
ENDBRANCH  15  17
ENDBRANCH  13  15
ENDBRANCH  12  13
ENDBRANCH  11  12
ENDBRANCH  10  11
ENDBRANCH   9  10
ENDBRANCH   3   4
ENDBRANCH   2   3
TORSDOF 11
ENDMDL
MODEL      134
REMARK 921   NORMALIZED FREE ENERGY PREDICTED BY IDOCK:   -4.98 KCAL/MOL
REMARK 922        TOTAL FREE ENERGY PREDICTED BY IDOCK:   -9.43 KCAL/MOL
REMARK 923 INTER-LIGAND FREE ENERGY PREDICTED BY IDOCK:   -9.23 KCAL/MOL
REMARK 924 INTRA-LIGAND FREE ENERGY PREDICTED BY IDOCK:   -0.20 KCAL/MOL
REMARK 927      BINDING AFFINITY PREDICTED BY RF-SCORE:    0.00 PKD
ROOT
HETATM    1  C   UNL     1     -10.773  19.554  67.074  1.00  0.00    -0.592 C  
HETATM    2  C   UNL     1      -9.544  19.270  66.224  1.00  0.00    -0.362 C  
ENDROOT
BRANCH   2   3
HETATM    3  O   UNL     1      -9.432  17.854  66.163  1.00  0.00    -0.461 OA 
BRANCH   3   4
HETATM    4  C   UNL     1      -8.526  17.190  66.934  1.00  0.00    -0.222 A  
HETATM    5  C   UNL     1      -7.202  16.957  66.535  1.00  0.00    -0.297 A  
HETATM    6  C   UNL     1      -6.321  16.246  67.354  1.00  0.00    -0.206 A  
HETATM    7  C   UNL     1      -6.753  15.759  68.586  1.00  0.00    -0.117 A  
HETATM    8  C   UNL     1      -8.063  15.996  68.999  1.00  0.00    -0.226 A  
HETATM    9  C   UNL     1      -8.958  16.713  68.189  1.00  0.00    -0.210 A  
BRANCH   9  10
HETATM   10  O   UNL     1     -10.195  16.853  68.775  1.00  0.00    -0.272 OA 
BRANCH  10  11
HETATM   11  C   UNL     1     -11.095  15.748  68.716  1.00  0.00    -0.321 C  
BRANCH  11  12
HETATM   12  C   UNL     1     -12.183  15.909  69.787  1.00  0.00    -0.136 C  
BRANCH  12  13
HETATM   13  N   UNL     1     -12.097  14.979  70.923  1.00  0.00    -0.298 NA 
HETATM   14  H   UNL     1     -11.672  15.446  71.725  1.00  0.00     0.000 HD 
BRANCH  13  15
HETATM   15  C   UNL     1     -13.367  14.345  71.324  1.00  0.00    -0.343 C  
HETATM   16  C   UNL     1     -14.106  15.346  72.226  1.00  0.00    -0.660 C  
BRANCH  15  17
HETATM   17  C   UNL     1     -13.184  12.975  72.037  1.00  0.00    -0.543 C  
BRANCH  17  18
HETATM   18  C   UNL     1     -12.563  11.944  71.121  1.00  0.00    -0.390 A  
HETATM   19  C   UNL     1     -12.632  10.588  71.460  1.00  0.00    -0.529 A  
HETATM   20  C   UNL     1     -11.872   9.645  70.757  1.00  0.00    -0.300 A  
HETATM   21  C   UNL     1     -11.123  10.025  69.636  1.00  0.00    -0.259 A  
HETATM   22  C   UNL     1     -11.830  12.324  69.996  1.00  0.00    -0.372 A  
HETATM   23  C   UNL     1     -11.134  11.369  69.247  1.00  0.00    -0.313 A  
BRANCH  20  24
HETATM   24  S   UNL     1     -11.743   7.974  71.349  1.00  0.00    -0.295 S  
HETATM   25  O   UNL     1     -12.866   7.721  72.220  1.00  0.00    -0.205 OA 
HETATM   26  N   UNL     1     -12.013   7.017  69.994  1.00  0.00    -0.614 N  
HETATM   27  O   UNL     1     -10.368   7.719  71.711  1.00  0.00    -0.193 OA 
HETATM   28  H1  UNL     1     -11.939   6.058  70.334  1.00  0.00     0.000 HD 
HETATM   29  H2  UNL     1     -12.208   7.326  69.042  1.00  0.00     0.000 HD 
ENDBRANCH  20  24
BRANCH  21  30
HETATM   30  O   UNL     1     -10.420   9.045  68.992  1.00  0.00    -0.219 OA 
HETATM   31  C   UNL     1     -10.509   8.980  67.574  1.00  0.00    -0.272 C  
ENDBRANCH  21  30
ENDBRANCH  17  18
ENDBRANCH  15  17
ENDBRANCH  13  15
ENDBRANCH  12  13
ENDBRANCH  11  12
ENDBRANCH  10  11
ENDBRANCH   9  10
ENDBRANCH   3   4
ENDBRANCH   2   3
TORSDOF 11
ENDMDL
MODEL      135
REMARK 921   NORMALIZED FREE ENERGY PREDICTED BY IDOCK:   -4.97 KCAL/MOL
REMARK 922        TOTAL FREE ENERGY PREDICTED BY IDOCK:   -9.41 KCAL/MOL
REMARK 923 INTER-LIGAND FREE ENERGY PREDICTED BY IDOCK:   -8.45 KCAL/MOL
REMARK 924 INTRA-LIGAND FREE ENERGY PREDICTED BY IDOCK:   -0.97 KCAL/MOL
REMARK 927      BINDING AFFINITY PREDICTED BY RF-SCORE:    0.00 PKD
ROOT
HETATM    1  C   UNL     1      -7.847   8.912  64.253  1.00  0.00    -0.134 C  
HETATM    2  C   UNL     1      -9.123   9.361  64.947  1.00  0.00    -0.202 C  
ENDROOT
BRANCH   2   3
HETATM    3  O   UNL     1      -9.094  10.783  64.931  1.00  0.00    -0.192 OA 
BRANCH   3   4
HETATM    4  C   UNL     1     -10.239  11.505  64.779  1.00  0.00    -0.281 A  
HETATM    5  C   UNL     1     -10.785  11.825  63.528  1.00  0.00    -0.501 A  
HETATM    6  C   UNL     1     -11.949  12.592  63.428  1.00  0.00    -0.602 A  
HETATM    7  C   UNL     1     -12.584  13.049  64.581  1.00  0.00    -0.425 A  
HETATM    8  C   UNL     1     -12.057  12.727  65.831  1.00  0.00    -0.485 A  
HETATM    9  C   UNL     1     -10.891  11.952  65.947  1.00  0.00    -0.297 A  
BRANCH   9  10
HETATM   10  O   UNL     1     -10.539  11.731  67.259  1.00  0.00    -0.211 OA 
BRANCH  10  11
HETATM   11  C   UNL     1     -11.447  11.003  68.085  1.00  0.00    -0.302 C  
BRANCH  11  12
HETATM   12  C   UNL     1     -11.674  11.764  69.398  1.00  0.00    -0.341 C  
BRANCH  12  13
HETATM   13  N   UNL     1     -11.624  10.947  70.621  1.00  0.00    -0.408 NA 
HETATM   14  H   UNL     1     -10.927  11.323  71.264  1.00  0.00     0.000 HD 
BRANCH  13  15
HETATM   15  C   UNL     1     -12.911  10.767  71.319  1.00  0.00    -0.402 C  
HETATM   16  C   UNL     1     -13.290  12.130  71.920  1.00  0.00    -0.421 C  
BRANCH  15  17
HETATM   17  C   UNL     1     -12.880   9.660  72.411  1.00  0.00    -0.315 C  
BRANCH  17  18
HETATM   18  C   UNL     1     -12.052   8.470  71.980  1.00  0.00    -0.428 A  
HETATM   19  C   UNL     1     -10.714   8.378  72.378  1.00  0.00    -0.405 A  
HETATM   20  C   UNL     1      -9.872   7.417  71.806  1.00  0.00    -0.167 A  
HETATM   21  C   UNL     1     -10.380   6.462  70.914  1.00  0.00    -0.204 A  
HETATM   22  C   UNL     1     -12.565   7.512  71.104  1.00  0.00    -0.293 A  
HETATM   23  C   UNL     1     -11.740   6.504  70.593  1.00  0.00    -0.436 A  
BRANCH  20  24
HETATM   24  S   UNL     1      -8.120   7.468  72.101  1.00  0.00    -0.106 S  
HETATM   25  O   UNL     1      -7.731   6.215  72.704  1.00  0.00    -0.101 OA 
HETATM   26  N   UNL     1      -7.426   7.452  70.570  1.00  0.00    -0.080 N  
HETATM   27  O   UNL     1      -7.782   8.764  72.643  1.00  0.00    -0.361 OA 
HETATM   28  H1  UNL     1      -6.421   7.481  70.739  1.00  0.00     0.000 HD 
HETATM   29  H2  UNL     1      -7.904   7.419  69.670  1.00  0.00     0.000 HD 
ENDBRANCH  20  24
BRANCH  21  30
HETATM   30  O   UNL     1      -9.499   5.546  70.410  1.00  0.00    -0.154 OA 
HETATM   31  C   UNL     1      -9.835   4.895  69.193  1.00  0.00    -0.193 C  
ENDBRANCH  21  30
ENDBRANCH  17  18
ENDBRANCH  15  17
ENDBRANCH  13  15
ENDBRANCH  12  13
ENDBRANCH  11  12
ENDBRANCH  10  11
ENDBRANCH   9  10
ENDBRANCH   3   4
ENDBRANCH   2   3
TORSDOF 11
ENDMDL
MODEL      136
REMARK 921   NORMALIZED FREE ENERGY PREDICTED BY IDOCK:   -4.97 KCAL/MOL
REMARK 922        TOTAL FREE ENERGY PREDICTED BY IDOCK:   -9.40 KCAL/MOL
REMARK 923 INTER-LIGAND FREE ENERGY PREDICTED BY IDOCK:   -8.35 KCAL/MOL
REMARK 924 INTRA-LIGAND FREE ENERGY PREDICTED BY IDOCK:   -1.05 KCAL/MOL
REMARK 927      BINDING AFFINITY PREDICTED BY RF-SCORE:    0.00 PKD
ROOT
HETATM    1  C   UNL     1      -8.186   7.999  73.925  1.00  0.00    -0.306 C  
HETATM    2  C   UNL     1      -9.525   8.012  73.204  1.00  0.00    -0.280 C  
ENDROOT
BRANCH   2   3
HETATM    3  O   UNL     1      -9.563   6.818  72.433  1.00  0.00    -0.155 OA 
BRANCH   3   4
HETATM    4  C   UNL     1      -9.688   6.863  71.078  1.00  0.00    -0.174 A  
HETATM    5  C   UNL     1      -8.620   7.151  70.216  1.00  0.00    -0.143 A  
HETATM    6  C   UNL     1      -8.810   7.213  68.833  1.00  0.00    -0.130 A  
HETATM    7  C   UNL     1     -10.073   6.984  68.292  1.00  0.00    -0.185 A  
HETATM    8  C   UNL     1     -11.140   6.685  69.138  1.00  0.00    -0.332 A  
HETATM    9  C   UNL     1     -10.963   6.615  70.529  1.00  0.00    -0.286 A  
BRANCH   9  10
HETATM   10  O   UNL     1     -12.128   6.294  71.188  1.00  0.00    -0.225 OA 
BRANCH  10  11
HETATM   11  C   UNL     1     -12.739   7.296  71.999  1.00  0.00    -0.197 C  
BRANCH  11  12
HETATM   12  C   UNL     1     -13.862   7.985  71.211  1.00  0.00    -0.172 C  
BRANCH  12  13
HETATM   13  N   UNL     1     -13.554   9.337  70.719  1.00  0.00    -0.509 NA 
HETATM   14  H   UNL     1     -14.403   9.903  70.701  1.00  0.00     0.000 HD 
BRANCH  13  15
HETATM   15  C   UNL     1     -12.486  10.051  71.445  1.00  0.00    -0.411 C  
HETATM   16  C   UNL     1     -13.077  11.391  71.911  1.00  0.00    -0.505 C  
BRANCH  15  17
HETATM   17  C   UNL     1     -11.197  10.268  70.603  1.00  0.00    -0.406 C  
BRANCH  17  18
HETATM   18  C   UNL     1     -11.446  11.174  69.418  1.00  0.00    -0.368 A  
HETATM   19  C   UNL     1     -11.120  10.734  68.131  1.00  0.00    -0.337 A  
HETATM   20  C   UNL     1     -11.123  11.632  67.055  1.00  0.00    -0.302 A  
HETATM   21  C   UNL     1     -11.561  12.951  67.228  1.00  0.00    -0.360 A  
HETATM   22  C   UNL     1     -11.897  12.484  69.591  1.00  0.00    -0.382 A  
HETATM   23  C   UNL     1     -11.974  13.358  68.501  1.00  0.00    -0.363 A  
BRANCH  20  24
HETATM   24  S   UNL     1     -10.453  11.150  65.482  1.00  0.00    -0.233 S  
HETATM   25  O   UNL     1     -11.386  11.553  64.456  1.00  0.00    -0.276 OA 
HETATM   26  N   UNL     1      -9.110  12.138  65.266  1.00  0.00    -0.355 N  
HETATM   27  O   UNL     1      -9.911   9.816  65.600  1.00  0.00    -0.301 OA 
HETATM   28  H1  UNL     1      -8.726  11.862  64.363  1.00  0.00     0.000 HD 
HETATM   29  H2  UNL     1      -8.758  12.856  65.898  1.00  0.00     0.000 HD 
ENDBRANCH  20  24
BRANCH  21  30
HETATM   30  O   UNL     1     -11.551  13.763  66.128  1.00  0.00    -0.329 OA 
HETATM   31  C   UNL     1     -11.045  15.083  66.276  1.00  0.00    -0.334 C  
ENDBRANCH  21  30
ENDBRANCH  17  18
ENDBRANCH  15  17
ENDBRANCH  13  15
ENDBRANCH  12  13
ENDBRANCH  11  12
ENDBRANCH  10  11
ENDBRANCH   9  10
ENDBRANCH   3   4
ENDBRANCH   2   3
TORSDOF 11
ENDMDL
MODEL      137
REMARK 921   NORMALIZED FREE ENERGY PREDICTED BY IDOCK:   -4.95 KCAL/MOL
REMARK 922        TOTAL FREE ENERGY PREDICTED BY IDOCK:   -9.38 KCAL/MOL
REMARK 923 INTER-LIGAND FREE ENERGY PREDICTED BY IDOCK:   -8.25 KCAL/MOL
REMARK 924 INTRA-LIGAND FREE ENERGY PREDICTED BY IDOCK:   -1.13 KCAL/MOL
REMARK 927      BINDING AFFINITY PREDICTED BY RF-SCORE:    0.00 PKD
ROOT
HETATM    1  C   UNL     1     -10.536  19.495  66.416  1.00  0.00    -0.597 C  
HETATM    2  C   UNL     1     -10.691  18.649  67.670  1.00  0.00    -0.376 C  
ENDROOT
BRANCH   2   3
HETATM    3  O   UNL     1     -10.398  17.313  67.276  1.00  0.00    -0.319 OA 
BRANCH   3   4
HETATM    4  C   UNL     1     -10.837  16.255  68.012  1.00  0.00    -0.339 A  
HETATM    5  C   UNL     1     -10.779  16.216  69.412  1.00  0.00    -0.307 A  
HETATM    6  C   UNL     1     -11.219  15.092  70.118  1.00  0.00    -0.299 A  
HETATM    7  C   UNL     1     -11.725  13.992  69.430  1.00  0.00    -0.365 A  
HETATM    8  C   UNL     1     -11.799  14.024  68.038  1.00  0.00    -0.403 A  
HETATM    9  C   UNL     1     -11.367  15.148  67.317  1.00  0.00    -0.303 A  
BRANCH   9  10
HETATM   10  O   UNL     1     -11.533  14.993  65.960  1.00  0.00    -0.321 OA 
BRANCH  10  11
HETATM   11  C   UNL     1     -12.372  13.933  65.502  1.00  0.00    -0.480 C  
BRANCH  11  12
HETATM   12  C   UNL     1     -11.636  13.118  64.431  1.00  0.00    -0.377 C  
BRANCH  12  13
HETATM   13  N   UNL     1     -10.206  12.883  64.684  1.00  0.00    -0.491 NA 
HETATM   14  H   UNL     1      -9.733  13.769  64.866  1.00  0.00     0.000 HD 
BRANCH  13  15
HETATM   15  C   UNL     1      -9.900  11.918  65.757  1.00  0.00    -0.238 C  
HETATM   16  C   UNL     1      -8.882  12.591  66.691  1.00  0.00    -0.142 C  
BRANCH  15  17
HETATM   17  C   UNL     1      -9.367  10.552  65.236  1.00  0.00    -0.258 C  
BRANCH  17  18
HETATM   18  C   UNL     1      -9.675   9.426  66.197  1.00  0.00    -0.334 A  
HETATM   19  C   UNL     1      -9.105   8.165  65.989  1.00  0.00    -0.218 A  
HETATM   20  C   UNL     1      -9.554   7.058  66.721  1.00  0.00    -0.171 A  
HETATM   21  C   UNL     1     -10.494   7.215  67.748  1.00  0.00    -0.223 A  
HETATM   22  C   UNL     1     -10.601   9.589  67.229  1.00  0.00    -0.317 A  
HETATM   23  C   UNL     1     -10.990   8.496  68.012  1.00  0.00     0.106 A  
BRANCH  20  24
HETATM   24  S   UNL     1      -9.034   5.418  66.277  1.00  0.00    -0.141 S  
HETATM   25  O   UNL     1      -8.524   4.774  67.464  1.00  0.00    -0.105 OA 
HETATM   26  N   UNL     1     -10.456   4.601  65.911  1.00  0.00    -0.391 N  
HETATM   27  O   UNL     1      -8.317   5.485  65.025  1.00  0.00    -0.137 OA 
HETATM   28  H1  UNL     1     -10.158   3.660  65.656  1.00  0.00     0.000 HD 
HETATM   29  H2  UNL     1     -11.409   4.965  65.938  1.00  0.00     0.000 HD 
ENDBRANCH  20  24
BRANCH  21  30
HETATM   30  O   UNL     1     -10.870   6.090  68.428  1.00  0.00    -0.268 OA 
HETATM   31  C   UNL     1     -11.344   6.241  69.760  1.00  0.00    -0.436 C  
ENDBRANCH  21  30
ENDBRANCH  17  18
ENDBRANCH  15  17
ENDBRANCH  13  15
ENDBRANCH  12  13
ENDBRANCH  11  12
ENDBRANCH  10  11
ENDBRANCH   9  10
ENDBRANCH   3   4
ENDBRANCH   2   3
TORSDOF 11
ENDMDL
MODEL      138
REMARK 921   NORMALIZED FREE ENERGY PREDICTED BY IDOCK:   -4.93 KCAL/MOL
REMARK 922        TOTAL FREE ENERGY PREDICTED BY IDOCK:   -9.34 KCAL/MOL
REMARK 923 INTER-LIGAND FREE ENERGY PREDICTED BY IDOCK:   -7.90 KCAL/MOL
REMARK 924 INTRA-LIGAND FREE ENERGY PREDICTED BY IDOCK:   -1.44 KCAL/MOL
REMARK 927      BINDING AFFINITY PREDICTED BY RF-SCORE:    0.00 PKD
ROOT
HETATM    1  C   UNL     1     -12.354  11.361  70.462  1.00  0.00    -0.439 C  
HETATM    2  C   UNL     1     -12.657  10.128  71.300  1.00  0.00    -0.404 C  
ENDROOT
BRANCH   2   3
HETATM    3  O   UNL     1     -12.030   9.040  70.632  1.00  0.00    -0.226 OA 
BRANCH   3   4
HETATM    4  C   UNL     1     -11.497   8.001  71.333  1.00  0.00    -0.258 A  
HETATM    5  C   UNL     1     -11.229   8.059  72.708  1.00  0.00    -0.448 A  
HETATM    6  C   UNL     1     -10.656   6.973  73.374  1.00  0.00    -0.399 A  
HETATM    7  C   UNL     1     -10.345   5.810  72.672  1.00  0.00    -0.229 A  
HETATM    8  C   UNL     1     -10.619   5.736  71.307  1.00  0.00    -0.319 A  
HETATM    9  C   UNL     1     -11.199   6.818  70.626  1.00  0.00    -0.312 A  
BRANCH   9  10
HETATM   10  O   UNL     1     -11.403   6.546  69.293  1.00  0.00    -0.335 OA 
BRANCH  10  11
HETATM   11  C   UNL     1     -10.746   7.371  68.331  1.00  0.00    -0.096 C  
BRANCH  11  12
HETATM   12  C   UNL     1      -9.244   7.059  68.323  1.00  0.00    -0.128 C  
BRANCH  12  13
HETATM   13  N   UNL     1      -8.389   8.042  69.008  1.00  0.00    -0.128 NA 
HETATM   14  H   UNL     1      -7.497   7.614  69.258  1.00  0.00     0.000 HD 
BRANCH  13  15
HETATM   15  C   UNL     1      -8.157   9.303  68.278  1.00  0.00    -0.107 C  
HETATM   16  C   UNL     1      -6.664   9.346  67.917  1.00  0.00    -0.067 C  
BRANCH  15  17
HETATM   17  C   UNL     1      -8.580  10.571  69.072  1.00  0.00    -0.160 C  
BRANCH  17  18
HETATM   18  C   UNL     1      -9.492  11.464  68.260  1.00  0.00    -0.187 A  
HETATM   19  C   UNL     1      -9.544  12.834  68.538  1.00  0.00    -0.113 A  
HETATM   20  C   UNL     1     -10.541  13.633  67.964  1.00  0.00    -0.249 A  
HETATM   21  C   UNL     1     -11.427  13.100  67.018  1.00  0.00    -0.336 A  
HETATM   22  C   UNL     1     -10.363  10.932  67.307  1.00  0.00    -0.255 A  
HETATM   23  C   UNL     1     -11.308  11.749  66.676  1.00  0.00    -0.381 A  
BRANCH  20  24
HETATM   24  S   UNL     1     -10.781  15.304  68.517  1.00  0.00    -0.257 S  
HETATM   25  O   UNL     1     -10.645  16.178  67.376  1.00  0.00    -0.306 OA 
HETATM   26  N   UNL     1     -12.405  15.387  68.942  1.00  0.00    -0.608 N  
HETATM   27  O   UNL     1     -10.068  15.485  69.760  1.00  0.00    -0.270 OA 
HETATM   28  H1  UNL     1     -12.543  16.346  69.259  1.00  0.00     0.000 HD 
HETATM   29  H2  UNL     1     -13.101  14.643  68.893  1.00  0.00     0.000 HD 
ENDBRANCH  20  24
BRANCH  21  30
HETATM   30  O   UNL     1     -12.362  13.947  66.490  1.00  0.00    -0.445 OA 
HETATM   31  C   UNL     1     -12.656  13.838  65.104  1.00  0.00    -0.433 C  
ENDBRANCH  21  30
ENDBRANCH  17  18
ENDBRANCH  15  17
ENDBRANCH  13  15
ENDBRANCH  12  13
ENDBRANCH  11  12
ENDBRANCH  10  11
ENDBRANCH   9  10
ENDBRANCH   3   4
ENDBRANCH   2   3
TORSDOF 11
ENDMDL
MODEL      139
REMARK 921   NORMALIZED FREE ENERGY PREDICTED BY IDOCK:   -4.92 KCAL/MOL
REMARK 922        TOTAL FREE ENERGY PREDICTED BY IDOCK:   -9.33 KCAL/MOL
REMARK 923 INTER-LIGAND FREE ENERGY PREDICTED BY IDOCK:   -8.20 KCAL/MOL
REMARK 924 INTRA-LIGAND FREE ENERGY PREDICTED BY IDOCK:   -1.13 KCAL/MOL
REMARK 927      BINDING AFFINITY PREDICTED BY RF-SCORE:    0.00 PKD
ROOT
HETATM    1  C   UNL     1      -6.951   7.860  73.174  1.00  0.00    -0.108 C  
HETATM    2  C   UNL     1      -7.693   8.061  71.862  1.00  0.00    -0.097 C  
ENDROOT
BRANCH   2   3
HETATM    3  O   UNL     1      -8.589   6.962  71.750  1.00  0.00    -0.120 OA 
BRANCH   3   4
HETATM    4  C   UNL     1      -9.200   6.676  70.567  1.00  0.00    -0.156 A  
HETATM    5  C   UNL     1      -8.503   6.509  69.362  1.00  0.00    -0.127 A  
HETATM    6  C   UNL     1      -9.183   6.243  68.171  1.00  0.00    -0.110 A  
HETATM    7  C   UNL     1     -10.572   6.139  68.169  1.00  0.00    -0.328 A  
HETATM    8  C   UNL     1     -11.276   6.290  69.363  1.00  0.00    -0.489 A  
HETATM    9  C   UNL     1     -10.605   6.552  70.569  1.00  0.00    -0.234 A  
BRANCH   9  10
HETATM   10  O   UNL     1     -11.470   6.654  71.635  1.00  0.00    -0.260 OA 
BRANCH  10  11
HETATM   11  C   UNL     1     -11.499   7.882  72.361  1.00  0.00    -0.376 C  
BRANCH  11  12
HETATM   12  C   UNL     1     -11.890   9.030  71.420  1.00  0.00    -0.325 C  
BRANCH  12  13
HETATM   13  N   UNL     1     -10.831  10.013  71.145  1.00  0.00    -0.267 NA 
HETATM   14  H   UNL     1      -9.917   9.560  71.175  1.00  0.00     0.000 HD 
BRANCH  13  15
HETATM   15  C   UNL     1     -10.977  10.771  69.888  1.00  0.00    -0.239 C  
HETATM   16  C   UNL     1     -12.017  11.873  70.144  1.00  0.00    -0.413 C  
BRANCH  15  17
HETATM   17  C   UNL     1     -11.380   9.889  68.671  1.00  0.00    -0.048 C  
BRANCH  17  18
HETATM   18  C   UNL     1     -10.765  10.393  67.385  1.00  0.00    -0.338 A  
HETATM   19  C   UNL     1     -11.144  11.642  66.880  1.00  0.00    -0.365 A  
HETATM   20  C   UNL     1     -10.769  12.024  65.586  1.00  0.00    -0.272 A  
HETATM   21  C   UNL     1      -9.917  11.216  64.822  1.00  0.00    -0.287 A  
HETATM   22  C   UNL     1      -9.904   9.592  66.632  1.00  0.00    -0.285 A  
HETATM   23  C   UNL     1      -9.467  10.011  65.371  1.00  0.00    -0.310 A  
BRANCH  20  24
HETATM   24  S   UNL     1     -11.468  13.478  64.841  1.00  0.00    -0.350 S  
HETATM   25  O   UNL     1     -10.419  14.463  64.714  1.00  0.00    -0.430 OA 
HETATM   26  N   UNL     1     -11.834  13.021  63.266  1.00  0.00    -0.820 N  
HETATM   27  O   UNL     1     -12.749  13.740  65.455  1.00  0.00    -0.559 OA 
HETATM   28  H1  UNL     1     -12.235  13.855  62.839  1.00  0.00     0.000 HD 
HETATM   29  H2  UNL     1     -11.688  12.109  62.833  1.00  0.00     0.000 HD 
ENDBRANCH  20  24
BRANCH  21  30
HETATM   30  O   UNL     1      -9.582  11.664  63.574  1.00  0.00    -0.286 OA 
HETATM   31  C   UNL     1      -9.571  10.725  62.507  1.00  0.00    -0.202 C  
ENDBRANCH  21  30
ENDBRANCH  17  18
ENDBRANCH  15  17
ENDBRANCH  13  15
ENDBRANCH  12  13
ENDBRANCH  11  12
ENDBRANCH  10  11
ENDBRANCH   9  10
ENDBRANCH   3   4
ENDBRANCH   2   3
TORSDOF 11
ENDMDL
MODEL      140
REMARK 921   NORMALIZED FREE ENERGY PREDICTED BY IDOCK:   -4.92 KCAL/MOL
REMARK 922        TOTAL FREE ENERGY PREDICTED BY IDOCK:   -9.33 KCAL/MOL
REMARK 923 INTER-LIGAND FREE ENERGY PREDICTED BY IDOCK:   -7.70 KCAL/MOL
REMARK 924 INTRA-LIGAND FREE ENERGY PREDICTED BY IDOCK:   -1.63 KCAL/MOL
REMARK 927      BINDING AFFINITY PREDICTED BY RF-SCORE:    0.00 PKD
ROOT
HETATM    1  C   UNL     1     -10.897   5.105  73.968  1.00  0.00    -0.244 C  
HETATM    2  C   UNL     1      -9.845   5.133  72.870  1.00  0.00    -0.156 C  
ENDROOT
BRANCH   2   3
HETATM    3  O   UNL     1     -10.482   4.614  71.709  1.00  0.00    -0.171 OA 
BRANCH   3   4
HETATM    4  C   UNL     1     -10.375   5.249  70.509  1.00  0.00    -0.266 A  
HETATM    5  C   UNL     1      -9.425   4.901  69.538  1.00  0.00    -0.216 A  
HETATM    6  C   UNL     1      -9.340   5.605  68.333  1.00  0.00    -0.133 A  
HETATM    7  C   UNL     1     -10.206   6.666  68.083  1.00  0.00    -0.193 A  
HETATM    8  C   UNL     1     -11.163   7.013  69.035  1.00  0.00    -0.054 A  
HETATM    9  C   UNL     1     -11.264   6.312  70.248  1.00  0.00    -0.388 A  
BRANCH   9  10
HETATM   10  O   UNL     1     -12.275   6.794  71.047  1.00  0.00    -0.377 OA 
BRANCH  10  11
HETATM   11  C   UNL     1     -12.030   7.983  71.797  1.00  0.00    -0.301 C  
BRANCH  11  12
HETATM   12  C   UNL     1     -13.316   8.815  71.882  1.00  0.00    -0.389 C  
BRANCH  12  13
HETATM   13  N   UNL     1     -13.159  10.171  72.431  1.00  0.00    -0.494 NA 
HETATM   14  H   UNL     1     -12.557  10.147  73.254  1.00  0.00     0.000 HD 
BRANCH  13  15
HETATM   15  C   UNL     1     -12.672  11.189  71.480  1.00  0.00    -0.394 C  
HETATM   16  C   UNL     1     -13.365  12.512  71.843  1.00  0.00    -0.467 C  
BRANCH  15  17
HETATM   17  C   UNL     1     -12.914  10.818  69.989  1.00  0.00     0.042 C  
BRANCH  17  18
HETATM   18  C   UNL     1     -11.728  11.176  69.122  1.00  0.00    -0.408 A  
HETATM   19  C   UNL     1     -11.905  12.035  68.031  1.00  0.00    -0.338 A  
HETATM   20  C   UNL     1     -10.884  12.195  67.086  1.00  0.00    -0.244 A  
HETATM   21  C   UNL     1      -9.634  11.590  67.276  1.00  0.00    -0.172 A  
HETATM   22  C   UNL     1     -10.480  10.585  69.322  1.00  0.00    -0.258 A  
HETATM   23  C   UNL     1      -9.436  10.808  68.418  1.00  0.00    -0.174 A  
BRANCH  20  24
HETATM   24  S   UNL     1     -11.194  13.062  65.567  1.00  0.00    -0.295 S  
HETATM   25  O   UNL     1     -12.351  13.904  65.761  1.00  0.00    -0.430 OA 
HETATM   26  N   UNL     1      -9.901  14.123  65.406  1.00  0.00    -0.552 N  
HETATM   27  O   UNL     1     -11.047  12.136  64.468  1.00  0.00    -0.300 OA 
HETATM   28  H1  UNL     1     -10.079  14.621  64.534  1.00  0.00     0.000 HD 
HETATM   29  H2  UNL     1      -9.111  14.244  66.040  1.00  0.00     0.000 HD 
ENDBRANCH  20  24
BRANCH  21  30
HETATM   30  O   UNL     1      -8.683  11.806  66.318  1.00  0.00    -0.181 OA 
HETATM   31  C   UNL     1      -7.872  10.708  65.921  1.00  0.00    -0.150 C  
ENDBRANCH  21  30
ENDBRANCH  17  18
ENDBRANCH  15  17
ENDBRANCH  13  15
ENDBRANCH  12  13
ENDBRANCH  11  12
ENDBRANCH  10  11
ENDBRANCH   9  10
ENDBRANCH   3   4
ENDBRANCH   2   3
TORSDOF 11
ENDMDL
MODEL      141
REMARK 921   NORMALIZED FREE ENERGY PREDICTED BY IDOCK:   -4.92 KCAL/MOL
REMARK 922        TOTAL FREE ENERGY PREDICTED BY IDOCK:   -9.32 KCAL/MOL
REMARK 923 INTER-LIGAND FREE ENERGY PREDICTED BY IDOCK:   -7.58 KCAL/MOL
REMARK 924 INTRA-LIGAND FREE ENERGY PREDICTED BY IDOCK:   -1.74 KCAL/MOL
REMARK 927      BINDING AFFINITY PREDICTED BY RF-SCORE:    0.00 PKD
ROOT
HETATM    1  C   UNL     1     -12.041  14.351  70.527  1.00  0.00    -0.404 C  
HETATM    2  C   UNL     1     -12.018  13.574  69.220  1.00  0.00    -0.330 C  
ENDROOT
BRANCH   2   3
HETATM    3  O   UNL     1     -11.946  14.551  68.189  1.00  0.00    -0.316 OA 
BRANCH   3   4
HETATM    4  C   UNL     1     -11.832  14.183  66.883  1.00  0.00    -0.431 A  
HETATM    5  C   UNL     1     -12.517  13.092  66.329  1.00  0.00    -0.210 A  
HETATM    6  C   UNL     1     -12.343  12.740  64.988  1.00  0.00    -0.559 A  
HETATM    7  C   UNL     1     -11.480  13.479  64.181  1.00  0.00    -0.394 A  
HETATM    8  C   UNL     1     -10.803  14.573  64.716  1.00  0.00    -0.410 A  
HETATM    9  C   UNL     1     -10.973  14.941  66.060  1.00  0.00    -0.334 A  
BRANCH   9  10
HETATM   10  O   UNL     1     -10.233  16.052  66.395  1.00  0.00    -0.279 OA 
BRANCH  10  11
HETATM   11  C   UNL     1      -8.823  16.011  66.178  1.00  0.00    -0.331 C  
BRANCH  11  12
HETATM   12  C   UNL     1      -8.104  15.734  67.506  1.00  0.00    -0.159 C  
BRANCH  12  13
HETATM   13  N   UNL     1      -8.776  14.783  68.405  1.00  0.00    -0.162 NA 
HETATM   14  H   UNL     1      -9.778  14.767  68.211  1.00  0.00     0.000 HD 
BRANCH  13  15
HETATM   15  C   UNL     1      -8.239  13.408  68.393  1.00  0.00    -0.139 C  
HETATM   16  C   UNL     1      -6.727  13.518  68.139  1.00  0.00    -0.120 C  
BRANCH  15  17
HETATM   17  C   UNL     1      -8.919  12.481  67.346  1.00  0.00    -0.188 C  
BRANCH  17  18
HETATM   18  C   UNL     1      -9.155  11.092  67.896  1.00  0.00    -0.150 A  
HETATM   19  C   UNL     1     -10.116  10.899  68.895  1.00  0.00    -0.211 A  
HETATM   20  C   UNL     1     -10.188   9.678  69.578  1.00  0.00    -0.218 A  
HETATM   21  C   UNL     1      -9.382   8.597  69.196  1.00  0.00    -0.153 A  
HETATM   22  C   UNL     1      -8.361  10.014  67.503  1.00  0.00    -0.118 A  
HETATM   23  C   UNL     1      -8.489   8.771  68.133  1.00  0.00    -0.130 A  
BRANCH  20  24
HETATM   24  S   UNL     1     -11.212   9.515  71.021  1.00  0.00    -0.392 S  
HETATM   25  O   UNL     1     -12.084  10.665  71.082  1.00  0.00    -0.349 OA 
HETATM   26  N   UNL     1     -12.224   8.216  70.686  1.00  0.00    -0.491 N  
HETATM   27  O   UNL     1     -10.391   9.067  72.121  1.00  0.00    -0.316 OA 
HETATM   28  H1  UNL     1     -12.812   8.123  71.513  1.00  0.00     0.000 HD 
HETATM   29  H2  UNL     1     -12.246   7.645  69.840  1.00  0.00     0.000 HD 
ENDBRANCH  20  24
BRANCH  21  30
HETATM   30  O   UNL     1      -9.521   7.434  69.899  1.00  0.00    -0.155 OA 
HETATM   31  C   UNL     1      -9.723   6.231  69.169  1.00  0.00    -0.135 C  
ENDBRANCH  21  30
ENDBRANCH  17  18
ENDBRANCH  15  17
ENDBRANCH  13  15
ENDBRANCH  12  13
ENDBRANCH  11  12
ENDBRANCH  10  11
ENDBRANCH   9  10
ENDBRANCH   3   4
ENDBRANCH   2   3
TORSDOF 11
ENDMDL
MODEL      142
REMARK 921   NORMALIZED FREE ENERGY PREDICTED BY IDOCK:   -4.91 KCAL/MOL
REMARK 922        TOTAL FREE ENERGY PREDICTED BY IDOCK:   -9.31 KCAL/MOL
REMARK 923 INTER-LIGAND FREE ENERGY PREDICTED BY IDOCK:   -8.23 KCAL/MOL
REMARK 924 INTRA-LIGAND FREE ENERGY PREDICTED BY IDOCK:   -1.08 KCAL/MOL
REMARK 927      BINDING AFFINITY PREDICTED BY RF-SCORE:    0.00 PKD
ROOT
HETATM    1  C   UNL     1      -8.399   8.650  63.979  1.00  0.00    -0.125 C  
HETATM    2  C   UNL     1      -8.807  10.033  63.497  1.00  0.00    -0.236 C  
ENDROOT
BRANCH   2   3
HETATM    3  O   UNL     1      -9.204  10.748  64.661  1.00  0.00    -0.203 OA 
BRANCH   3   4
HETATM    4  C   UNL     1     -10.326  11.519  64.660  1.00  0.00    -0.297 A  
HETATM    5  C   UNL     1     -11.005  11.885  63.490  1.00  0.00    -0.505 A  
HETATM    6  C   UNL     1     -12.138  12.702  63.543  1.00  0.00    -0.648 A  
HETATM    7  C   UNL     1     -12.608  13.163  64.771  1.00  0.00    -0.426 A  
HETATM    8  C   UNL     1     -11.948  12.796  65.942  1.00  0.00    -0.506 A  
HETATM    9  C   UNL     1     -10.813  11.971  65.905  1.00  0.00    -0.288 A  
BRANCH   9  10
HETATM   10  O   UNL     1     -10.314  11.711  67.161  1.00  0.00    -0.209 OA 
BRANCH  10  11
HETATM   11  C   UNL     1      -9.813  12.807  67.925  1.00  0.00    -0.223 C  
BRANCH  11  12
HETATM   12  C   UNL     1      -8.286  12.707  68.031  1.00  0.00    -0.167 C  
BRANCH  12  13
HETATM   13  N   UNL     1      -7.713  13.098  69.329  1.00  0.00    -0.268 NA 
HETATM   14  H   UNL     1      -7.498  12.266  69.880  1.00  0.00     0.000 HD 
BRANCH  13  15
HETATM   15  C   UNL     1      -6.532  13.980  69.264  1.00  0.00    -0.114 C  
HETATM   16  C   UNL     1      -5.437  13.330  70.123  1.00  0.00    -0.115 C  
BRANCH  15  17
HETATM   17  C   UNL     1      -6.816  15.438  69.724  1.00  0.00    -0.162 C  
BRANCH  17  18
HETATM   18  C   UNL     1      -6.748  16.414  68.570  1.00  0.00    -0.142 A  
HETATM   19  C   UNL     1      -7.837  17.254  68.311  1.00  0.00    -0.244 A  
HETATM   20  C   UNL     1      -7.892  17.992  67.122  1.00  0.00    -0.217 A  
HETATM   21  C   UNL     1      -6.810  17.991  66.231  1.00  0.00    -0.256 A  
HETATM   22  C   UNL     1      -5.663  16.422  67.693  1.00  0.00    -0.163 A  
HETATM   23  C   UNL     1      -5.686  17.221  66.544  1.00  0.00    -0.231 A  
BRANCH  20  24
HETATM   24  S   UNL     1      -9.382  18.843  66.661  1.00  0.00    -0.339 S  
HETATM   25  O   UNL     1     -10.091  19.190  67.870  1.00  0.00    -0.344 OA 
HETATM   26  N   UNL     1      -8.860  20.308  66.023  1.00  0.00    -0.586 N  
HETATM   27  O   UNL     1      -9.982  18.150  65.545  1.00  0.00    -0.440 OA 
HETATM   28  H1  UNL     1      -9.715  20.796  65.759  1.00  0.00     0.000 HD 
HETATM   29  H2  UNL     1      -7.900  20.637  65.923  1.00  0.00     0.000 HD 
ENDBRANCH  20  24
BRANCH  21  30
HETATM   30  O   UNL     1      -6.932  18.750  65.100  1.00  0.00    -0.502 OA 
HETATM   31  C   UNL     1      -5.756  19.022  64.349  1.00  0.00    -0.276 C  
ENDBRANCH  21  30
ENDBRANCH  17  18
ENDBRANCH  15  17
ENDBRANCH  13  15
ENDBRANCH  12  13
ENDBRANCH  11  12
ENDBRANCH  10  11
ENDBRANCH   9  10
ENDBRANCH   3   4
ENDBRANCH   2   3
TORSDOF 11
ENDMDL
MODEL      143
REMARK 921   NORMALIZED FREE ENERGY PREDICTED BY IDOCK:   -4.88 KCAL/MOL
REMARK 922        TOTAL FREE ENERGY PREDICTED BY IDOCK:   -9.26 KCAL/MOL
REMARK 923 INTER-LIGAND FREE ENERGY PREDICTED BY IDOCK:   -8.40 KCAL/MOL
REMARK 924 INTRA-LIGAND FREE ENERGY PREDICTED BY IDOCK:   -0.87 KCAL/MOL
REMARK 927      BINDING AFFINITY PREDICTED BY RF-SCORE:    0.00 PKD
ROOT
HETATM    1  C   UNL     1      -5.789   8.329  63.380  1.00  0.00    -0.072 C  
HETATM    2  C   UNL     1      -6.115   7.076  64.179  1.00  0.00    -0.036 C  
ENDROOT
BRANCH   2   3
HETATM    3  O   UNL     1      -7.302   7.375  64.903  1.00  0.00    -0.070 OA 
BRANCH   3   4
HETATM    4  C   UNL     1      -8.211   6.402  65.189  1.00  0.00    -0.134 A  
HETATM    5  C   UNL     1      -8.296   5.197  64.478  1.00  0.00    -0.137 A  
HETATM    6  C   UNL     1      -9.266   4.243  64.795  1.00  0.00    -0.156 A  
HETATM    7  C   UNL     1     -10.166   4.482  65.832  1.00  0.00    -0.289 A  
HETATM    8  C   UNL     1     -10.084   5.671  66.554  1.00  0.00    -0.225 A  
HETATM    9  C   UNL     1      -9.111   6.636  66.250  1.00  0.00    -0.145 A  
BRANCH   9  10
HETATM   10  O   UNL     1      -9.183   7.731  67.081  1.00  0.00    -0.138 OA 
BRANCH  10  11
HETATM   11  C   UNL     1     -10.430   8.014  67.713  1.00  0.00    -0.214 C  
BRANCH  11  12
HETATM   12  C   UNL     1     -10.211   8.227  69.216  1.00  0.00    -0.204 C  
BRANCH  12  13
HETATM   13  N   UNL     1     -11.425   8.181  70.047  1.00  0.00    -0.465 NA 
HETATM   14  H   UNL     1     -11.584   7.229  70.380  1.00  0.00     0.000 HD 
BRANCH  13  15
HETATM   15  C   UNL     1     -11.457   9.124  71.181  1.00  0.00    -0.318 C  
HETATM   16  C   UNL     1     -11.332   8.289  72.465  1.00  0.00    -0.455 C  
BRANCH  15  17
HETATM   17  C   UNL     1     -12.729  10.018  71.213  1.00  0.00    -0.500 C  
BRANCH  17  18
HETATM   18  C   UNL     1     -12.430  11.437  70.783  1.00  0.00    -0.460 A  
HETATM   19  C   UNL     1     -12.706  12.496  71.654  1.00  0.00    -0.297 A  
HETATM   20  C   UNL     1     -12.657  13.819  71.196  1.00  0.00    -0.373 A  
HETATM   21  C   UNL     1     -12.220  14.108  69.896  1.00  0.00    -0.359 A  
HETATM   22  C   UNL     1     -11.980  11.721  69.493  1.00  0.00    -0.364 A  
HETATM   23  C   UNL     1     -11.856  13.047  69.061  1.00  0.00    -0.362 A  
BRANCH  20  24
HETATM   24  S   UNL     1     -13.266  15.144  72.211  1.00  0.00    -0.424 S  
HETATM   25  O   UNL     1     -13.296  14.682  73.579  1.00  0.00    -0.492 OA 
HETATM   26  N   UNL     1     -12.056  16.310  72.167  1.00  0.00    -0.588 N  
HETATM   27  O   UNL     1     -14.390  15.757  71.542  1.00  0.00    -0.456 OA 
HETATM   28  H1  UNL     1     -12.406  17.070  72.750  1.00  0.00     0.000 HD 
HETATM   29  H2  UNL     1     -11.168  16.266  71.669  1.00  0.00     0.000 HD 
ENDBRANCH  20  24
BRANCH  21  30
HETATM   30  O   UNL     1     -12.184  15.424  69.527  1.00  0.00    -0.313 OA 
HETATM   31  C   UNL     1     -11.201  15.826  68.582  1.00  0.00    -0.351 C  
ENDBRANCH  21  30
ENDBRANCH  17  18
ENDBRANCH  15  17
ENDBRANCH  13  15
ENDBRANCH  12  13
ENDBRANCH  11  12
ENDBRANCH  10  11
ENDBRANCH   9  10
ENDBRANCH   3   4
ENDBRANCH   2   3
TORSDOF 11
ENDMDL
MODEL      144
REMARK 921   NORMALIZED FREE ENERGY PREDICTED BY IDOCK:   -4.87 KCAL/MOL
REMARK 922        TOTAL FREE ENERGY PREDICTED BY IDOCK:   -9.24 KCAL/MOL
REMARK 923 INTER-LIGAND FREE ENERGY PREDICTED BY IDOCK:   -8.45 KCAL/MOL
REMARK 924 INTRA-LIGAND FREE ENERGY PREDICTED BY IDOCK:   -0.80 KCAL/MOL
REMARK 927      BINDING AFFINITY PREDICTED BY RF-SCORE:    0.00 PKD
ROOT
HETATM    1  C   UNL     1     -12.048  15.586  70.434  1.00  0.00    -0.426 C  
HETATM    2  C   UNL     1     -11.703  15.643  68.954  1.00  0.00    -0.384 C  
ENDROOT
BRANCH   2   3
HETATM    3  O   UNL     1     -12.237  14.453  68.384  1.00  0.00    -0.275 OA 
BRANCH   3   4
HETATM    4  C   UNL     1     -11.573  13.792  67.396  1.00  0.00    -0.362 A  
HETATM    5  C   UNL     1     -10.865  14.444  66.377  1.00  0.00    -0.314 A  
HETATM    6  C   UNL     1     -10.224  13.717  65.370  1.00  0.00    -0.330 A  
HETATM    7  C   UNL     1     -10.281  12.325  65.372  1.00  0.00    -0.297 A  
HETATM    8  C   UNL     1     -10.971  11.665  66.387  1.00  0.00    -0.345 A  
HETATM    9  C   UNL     1     -11.615  12.382  67.408  1.00  0.00    -0.365 A  
BRANCH   9  10
HETATM   10  O   UNL     1     -12.227  11.555  68.321  1.00  0.00    -0.561 OA 
BRANCH  10  11
HETATM   11  C   UNL     1     -11.883  11.702  69.698  1.00  0.00    -0.352 C  
BRANCH  11  12
HETATM   12  C   UNL     1     -11.410  10.354  70.259  1.00  0.00    -0.328 C  
BRANCH  12  13
HETATM   13  N   UNL     1     -12.132   9.874  71.448  1.00  0.00    -0.388 NA 
HETATM   14  H   UNL     1     -12.916  10.495  71.655  1.00  0.00     0.000 HD 
BRANCH  13  15
HETATM   15  C   UNL     1     -12.599   8.476  71.388  1.00  0.00    -0.283 C  
HETATM   16  C   UNL     1     -14.022   8.451  71.968  1.00  0.00    -0.468 C  
BRANCH  15  17
HETATM   17  C   UNL     1     -11.670   7.476  72.134  1.00  0.00    -0.344 C  
BRANCH  17  18
HETATM   18  C   UNL     1     -10.918   6.583  71.172  1.00  0.00    -0.314 A  
HETATM   19  C   UNL     1     -10.731   6.998  69.849  1.00  0.00    -0.265 A  
HETATM   20  C   UNL     1     -10.248   6.098  68.889  1.00  0.00    -0.188 A  
HETATM   21  C   UNL     1      -9.838   4.811  69.260  1.00  0.00    -0.199 A  
HETATM   22  C   UNL     1     -10.497   5.307  71.548  1.00  0.00    -0.279 A  
HETATM   23  C   UNL     1      -9.942   4.436  70.604  1.00  0.00    -0.254 A  
BRANCH  20  24
HETATM   24  S   UNL     1     -10.265   6.530  67.166  1.00  0.00    -0.229 S  
HETATM   25  O   UNL     1     -10.350   7.968  67.066  1.00  0.00    -0.291 OA 
HETATM   26  N   UNL     1      -8.726   6.142  66.611  1.00  0.00    -0.121 N  
HETATM   27  O   UNL     1     -11.145   5.620  66.471  1.00  0.00    -0.194 OA 
HETATM   28  H1  UNL     1      -8.735   6.390  65.622  1.00  0.00     0.000 HD 
HETATM   29  H2  UNL     1      -7.953   5.746  67.145  1.00  0.00     0.000 HD 
ENDBRANCH  20  24
BRANCH  21  30
HETATM   30  O   UNL     1      -9.363   3.997  68.270  1.00  0.00    -0.139 OA 
HETATM   31  C   UNL     1      -9.119   2.632  68.586  1.00  0.00    -0.156 C  
ENDBRANCH  21  30
ENDBRANCH  17  18
ENDBRANCH  15  17
ENDBRANCH  13  15
ENDBRANCH  12  13
ENDBRANCH  11  12
ENDBRANCH  10  11
ENDBRANCH   9  10
ENDBRANCH   3   4
ENDBRANCH   2   3
TORSDOF 11
ENDMDL
MODEL      145
REMARK 921   NORMALIZED FREE ENERGY PREDICTED BY IDOCK:   -4.87 KCAL/MOL
REMARK 922        TOTAL FREE ENERGY PREDICTED BY IDOCK:   -9.24 KCAL/MOL
REMARK 923 INTER-LIGAND FREE ENERGY PREDICTED BY IDOCK:   -9.52 KCAL/MOL
REMARK 924 INTRA-LIGAND FREE ENERGY PREDICTED BY IDOCK:    0.28 KCAL/MOL
REMARK 927      BINDING AFFINITY PREDICTED BY RF-SCORE:    0.00 PKD
ROOT
HETATM    1  C   UNL     1     -12.304  15.266  64.425  1.00  0.00    -0.172 C  
HETATM    2  C   UNL     1     -10.920  15.819  64.727  1.00  0.00    -0.393 C  
ENDROOT
BRANCH   2   3
HETATM    3  O   UNL     1     -11.060  17.235  64.732  1.00  0.00    -0.954 OA 
BRANCH   3   4
HETATM    4  C   UNL     1     -10.735  17.966  65.834  1.00  0.00    -0.114 A  
HETATM    5  C   UNL     1     -10.432  19.334  65.787  1.00  0.00    -0.438 A  
HETATM    6  C   UNL     1     -10.077  20.031  66.945  1.00  0.00    -0.601 A  
HETATM    7  C   UNL     1     -10.023  19.367  68.169  1.00  0.00    -0.510 A  
HETATM    8  C   UNL     1     -10.334  18.010  68.230  1.00  0.00    -0.389 A  
HETATM    9  C   UNL     1     -10.697  17.298  67.076  1.00  0.00    -0.152 A  
BRANCH   9  10
HETATM   10  O   UNL     1     -10.980  15.978  67.344  1.00  0.00    -0.315 OA 
BRANCH  10  11
HETATM   11  C   UNL     1     -10.427  15.399  68.525  1.00  0.00    -0.234 C  
BRANCH  11  12
HETATM   12  C   UNL     1     -10.557  13.871  68.461  1.00  0.00    -0.252 C  
BRANCH  12  13
HETATM   13  N   UNL     1     -10.840  13.205  69.742  1.00  0.00    -0.305 NA 
HETATM   14  H   UNL     1     -10.725  13.865  70.512  1.00  0.00     0.000 HD 
BRANCH  13  15
HETATM   15  C   UNL     1     -12.155  12.542  69.838  1.00  0.00    -0.252 C  
HETATM   16  C   UNL     1     -12.633  12.698  71.290  1.00  0.00    -0.339 C  
BRANCH  15  17
HETATM   17  C   UNL     1     -12.133  11.047  69.410  1.00  0.00    -0.389 C  
BRANCH  17  18
HETATM   18  C   UNL     1     -11.860  10.132  70.583  1.00  0.00    -0.431 A  
HETATM   19  C   UNL     1     -10.539   9.829  70.930  1.00  0.00    -0.344 A  
HETATM   20  C   UNL     1     -10.267   8.811  71.854  1.00  0.00    -0.345 A  
HETATM   21  C   UNL     1     -11.310   8.162  72.528  1.00  0.00    -0.401 A  
HETATM   22  C   UNL     1     -12.901   9.498  71.264  1.00  0.00    -0.414 A  
HETATM   23  C   UNL     1     -12.627   8.537  72.243  1.00  0.00    -0.438 A  
BRANCH  20  24
HETATM   24  S   UNL     1      -8.603   8.238  72.094  1.00  0.00    -0.199 S  
HETATM   25  O   UNL     1      -7.704   9.281  71.659  1.00  0.00    -0.336 OA 
HETATM   26  N   UNL     1      -8.412   8.160  73.762  1.00  0.00    -0.253 N  
HETATM   27  O   UNL     1      -8.519   6.866  71.651  1.00  0.00    -0.116 OA 
HETATM   28  H1  UNL     1      -7.457   7.832  73.900  1.00  0.00     0.000 HD 
HETATM   29  H2  UNL     1      -9.099   8.391  74.479  1.00  0.00     0.000 HD 
ENDBRANCH  20  24
BRANCH  21  30
HETATM   30  O   UNL     1     -10.965   7.192  73.427  1.00  0.00    -0.332 OA 
HETATM   31  C   UNL     1     -11.367   5.856  73.156  1.00  0.00    -0.101 C  
ENDBRANCH  21  30
ENDBRANCH  17  18
ENDBRANCH  15  17
ENDBRANCH  13  15
ENDBRANCH  12  13
ENDBRANCH  11  12
ENDBRANCH  10  11
ENDBRANCH   9  10
ENDBRANCH   3   4
ENDBRANCH   2   3
TORSDOF 11
ENDMDL
MODEL      146
REMARK 921   NORMALIZED FREE ENERGY PREDICTED BY IDOCK:   -4.85 KCAL/MOL
REMARK 922        TOTAL FREE ENERGY PREDICTED BY IDOCK:   -9.21 KCAL/MOL
REMARK 923 INTER-LIGAND FREE ENERGY PREDICTED BY IDOCK:   -8.40 KCAL/MOL
REMARK 924 INTRA-LIGAND FREE ENERGY PREDICTED BY IDOCK:   -0.81 KCAL/MOL
REMARK 927      BINDING AFFINITY PREDICTED BY RF-SCORE:    0.00 PKD
ROOT
HETATM    1  C   UNL     1     -10.480  14.106  68.612  1.00  0.00    -0.250 C  
HETATM    2  C   UNL     1      -9.900  14.988  67.517  1.00  0.00    -0.217 C  
ENDROOT
BRANCH   2   3
HETATM    3  O   UNL     1      -9.437  14.099  66.507  1.00  0.00    -0.276 OA 
BRANCH   3   4
HETATM    4  C   UNL     1     -10.271  13.665  65.522  1.00  0.00    -0.302 A  
HETATM    5  C   UNL     1     -11.097  14.522  64.780  1.00  0.00    -0.400 A  
HETATM    6  C   UNL     1     -11.955  14.020  63.798  1.00  0.00    -0.230 A  
HETATM    7  C   UNL     1     -11.997  12.651  63.544  1.00  0.00    -0.630 A  
HETATM    8  C   UNL     1     -11.172  11.790  64.266  1.00  0.00    -0.414 A  
HETATM    9  C   UNL     1     -10.301  12.281  65.251  1.00  0.00    -0.281 A  
BRANCH   9  10
HETATM   10  O   UNL     1      -9.562  11.280  65.841  1.00  0.00    -0.205 OA 
BRANCH  10  11
HETATM   11  C   UNL     1      -9.810   9.935  65.437  1.00  0.00    -0.313 C  
BRANCH  11  12
HETATM   12  C   UNL     1      -9.935   9.038  66.675  1.00  0.00    -0.278 C  
BRANCH  12  13
HETATM   13  N   UNL     1      -9.932   7.590  66.413  1.00  0.00    -0.451 NA 
HETATM   14  H   UNL     1      -9.604   7.408  65.464  1.00  0.00     0.000 HD 
BRANCH  13  15
HETATM   15  C   UNL     1      -9.173   6.770  67.376  1.00  0.00    -0.127 C  
HETATM   16  C   UNL     1      -7.777   6.547  66.774  1.00  0.00    -0.099 C  
BRANCH  15  17
HETATM   17  C   UNL     1      -9.859   5.418  67.722  1.00  0.00    -0.174 C  
BRANCH  17  18
HETATM   18  C   UNL     1     -10.319   5.375  69.163  1.00  0.00    -0.300 A  
HETATM   19  C   UNL     1     -11.137   6.397  69.657  1.00  0.00    -0.465 A  
HETATM   20  C   UNL     1     -11.381   6.503  71.033  1.00  0.00    -0.323 A  
HETATM   21  C   UNL     1     -10.909   5.525  71.918  1.00  0.00    -0.223 A  
HETATM   22  C   UNL     1      -9.859   4.392  70.040  1.00  0.00    -0.294 A  
HETATM   23  C   UNL     1     -10.170   4.455  71.403  1.00  0.00    -0.153 A  
BRANCH  20  24
HETATM   24  S   UNL     1     -12.186   7.942  71.694  1.00  0.00    -0.318 S  
HETATM   25  O   UNL     1     -11.306   8.537  72.672  1.00  0.00    -0.343 OA 
HETATM   26  N   UNL     1     -12.228   9.035  70.417  1.00  0.00    -0.451 N  
HETATM   27  O   UNL     1     -13.572   7.620  71.946  1.00  0.00    -0.315 OA 
HETATM   28  H1  UNL     1     -12.689   9.861  70.797  1.00  0.00     0.000 HD 
HETATM   29  H2  UNL     1     -11.870   8.902  69.472  1.00  0.00     0.000 HD 
ENDBRANCH  20  24
BRANCH  21  30
HETATM   30  O   UNL     1     -11.202   5.688  73.244  1.00  0.00    -0.268 OA 
HETATM   31  C   UNL     1     -10.556   4.837  74.181  1.00  0.00    -0.296 C  
ENDBRANCH  21  30
ENDBRANCH  17  18
ENDBRANCH  15  17
ENDBRANCH  13  15
ENDBRANCH  12  13
ENDBRANCH  11  12
ENDBRANCH  10  11
ENDBRANCH   9  10
ENDBRANCH   3   4
ENDBRANCH   2   3
TORSDOF 11
ENDMDL
MODEL      147
REMARK 921   NORMALIZED FREE ENERGY PREDICTED BY IDOCK:   -4.82 KCAL/MOL
REMARK 922        TOTAL FREE ENERGY PREDICTED BY IDOCK:   -9.17 KCAL/MOL
REMARK 923 INTER-LIGAND FREE ENERGY PREDICTED BY IDOCK:   -8.29 KCAL/MOL
REMARK 924 INTRA-LIGAND FREE ENERGY PREDICTED BY IDOCK:   -0.88 KCAL/MOL
REMARK 927      BINDING AFFINITY PREDICTED BY RF-SCORE:    0.00 PKD
ROOT
HETATM    1  C   UNL     1     -13.001  10.519  71.457  1.00  0.00    -0.565 C  
HETATM    2  C   UNL     1     -13.320   9.066  71.777  1.00  0.00    -0.397 C  
ENDROOT
BRANCH   2   3
HETATM    3  O   UNL     1     -12.368   8.292  71.057  1.00  0.00    -0.253 OA 
BRANCH   3   4
HETATM    4  C   UNL     1     -11.511   7.456  71.707  1.00  0.00    -0.265 A  
HETATM    5  C   UNL     1     -11.126   7.637  73.043  1.00  0.00    -0.437 A  
HETATM    6  C   UNL     1     -10.222   6.764  73.654  1.00  0.00    -0.354 A  
HETATM    7  C   UNL     1      -9.691   5.695  72.935  1.00  0.00    -0.169 A  
HETATM    8  C   UNL     1     -10.077   5.497  71.610  1.00  0.00    -0.249 A  
HETATM    9  C   UNL     1     -10.988   6.363  70.985  1.00  0.00    -0.274 A  
BRANCH   9  10
HETATM   10  O   UNL     1     -11.251   5.995  69.686  1.00  0.00    -0.394 OA 
BRANCH  10  11
HETATM   11  C   UNL     1     -10.878   6.895  68.643  1.00  0.00    -0.187 C  
BRANCH  11  12
HETATM   12  C   UNL     1      -9.398   6.693  68.291  1.00  0.00    -0.119 C  
BRANCH  12  13
HETATM   13  N   UNL     1      -8.523   7.848  68.542  1.00  0.00    -0.128 NA 
HETATM   14  H   UNL     1      -7.687   7.551  69.046  1.00  0.00     0.000 HD 
BRANCH  13  15
HETATM   15  C   UNL     1      -8.141   8.628  67.349  1.00  0.00    -0.102 C  
HETATM   16  C   UNL     1      -6.718   8.193  66.964  1.00  0.00    -0.065 C  
BRANCH  15  17
HETATM   17  C   UNL     1      -8.221  10.167  67.556  1.00  0.00    -0.114 C  
BRANCH  17  18
HETATM   18  C   UNL     1      -8.940  10.850  66.414  1.00  0.00    -0.186 A  
HETATM   19  C   UNL     1      -9.400  12.162  66.574  1.00  0.00    -0.229 A  
HETATM   20  C   UNL     1     -10.263  12.728  65.626  1.00  0.00    -0.279 A  
HETATM   21  C   UNL     1     -10.586  12.035  64.452  1.00  0.00    -0.318 A  
HETATM   22  C   UNL     1      -9.247  10.163  65.238  1.00  0.00    -0.257 A  
HETATM   23  C   UNL     1     -10.046  10.760  64.256  1.00  0.00    -0.427 A  
BRANCH  20  24
HETATM   24  S   UNL     1     -11.063  14.280  65.955  1.00  0.00    -0.317 S  
HETATM   25  O   UNL     1     -10.268  14.997  66.923  1.00  0.00    -0.252 OA 
HETATM   26  N   UNL     1     -10.909  15.153  64.527  1.00  0.00    -0.637 N  
HETATM   27  O   UNL     1     -12.482  14.047  66.091  1.00  0.00    -0.467 OA 
HETATM   28  H1  UNL     1     -11.368  16.044  64.715  1.00  0.00     0.000 HD 
HETATM   29  H2  UNL     1     -10.456  14.858  63.662  1.00  0.00     0.000 HD 
ENDBRANCH  20  24
BRANCH  21  30
HETATM   30  O   UNL     1     -11.420  12.660  63.567  1.00  0.00    -0.461 OA 
HETATM   31  C   UNL     1     -12.654  12.028  63.252  1.00  0.00    -0.385 C  
ENDBRANCH  21  30
ENDBRANCH  17  18
ENDBRANCH  15  17
ENDBRANCH  13  15
ENDBRANCH  12  13
ENDBRANCH  11  12
ENDBRANCH  10  11
ENDBRANCH   9  10
ENDBRANCH   3   4
ENDBRANCH   2   3
TORSDOF 11
ENDMDL
MODEL      148
REMARK 921   NORMALIZED FREE ENERGY PREDICTED BY IDOCK:   -4.82 KCAL/MOL
REMARK 922        TOTAL FREE ENERGY PREDICTED BY IDOCK:   -9.16 KCAL/MOL
REMARK 923 INTER-LIGAND FREE ENERGY PREDICTED BY IDOCK:   -7.75 KCAL/MOL
REMARK 924 INTRA-LIGAND FREE ENERGY PREDICTED BY IDOCK:   -1.42 KCAL/MOL
REMARK 927      BINDING AFFINITY PREDICTED BY RF-SCORE:    0.00 PKD
ROOT
HETATM    1  C   UNL     1     -11.235   6.293  69.208  1.00  0.00    -0.458 C  
HETATM    2  C   UNL     1     -11.419   6.526  70.699  1.00  0.00    -0.374 C  
ENDROOT
BRANCH   2   3
HETATM    3  O   UNL     1     -10.739   7.741  70.989  1.00  0.00    -0.223 OA 
BRANCH   3   4
HETATM    4  C   UNL     1     -11.408   8.926  71.026  1.00  0.00    -0.291 A  
HETATM    5  C   UNL     1     -12.534   9.147  71.833  1.00  0.00    -0.459 A  
HETATM    6  C   UNL     1     -13.201  10.375  71.812  1.00  0.00    -0.529 A  
HETATM    7  C   UNL     1     -12.749  11.401  70.985  1.00  0.00    -0.447 A  
HETATM    8  C   UNL     1     -11.623  11.197  70.188  1.00  0.00    -0.410 A  
HETATM    9  C   UNL     1     -10.940   9.970  70.202  1.00  0.00    -0.310 A  
BRANCH   9  10
HETATM   10  O   UNL     1      -9.850   9.970  69.361  1.00  0.00    -0.199 OA 
BRANCH  10  11
HETATM   11  C   UNL     1     -10.039   9.528  68.018  1.00  0.00    -0.188 C  
BRANCH  11  12
HETATM   12  C   UNL     1      -8.712   9.003  67.455  1.00  0.00    -0.119 C  
BRANCH  12  13
HETATM   13  N   UNL     1      -7.549   9.883  67.647  1.00  0.00    -0.091 NA 
HETATM   14  H   UNL     1      -6.692   9.329  67.673  1.00  0.00     0.000 HD 
BRANCH  13  15
HETATM   15  C   UNL     1      -7.411  10.979  66.669  1.00  0.00    -0.146 C  
HETATM   16  C   UNL     1      -6.659  10.408  65.456  1.00  0.00    -0.125 C  
BRANCH  15  17
HETATM   17  C   UNL     1      -6.692  12.236  67.236  1.00  0.00    -0.143 C  
BRANCH  17  18
HETATM   18  C   UNL     1      -7.628  13.419  67.340  1.00  0.00    -0.138 A  
HETATM   19  C   UNL     1      -9.009  13.218  67.243  1.00  0.00    -0.217 A  
HETATM   20  C   UNL     1      -9.874  14.311  67.104  1.00  0.00    -0.252 A  
HETATM   21  C   UNL     1      -9.385  15.622  67.174  1.00  0.00    -0.218 A  
HETATM   22  C   UNL     1      -7.138  14.723  67.426  1.00  0.00    -0.173 A  
HETATM   23  C   UNL     1      -8.012  15.815  67.365  1.00  0.00    -0.194 A  
BRANCH  20  24
HETATM   24  S   UNL     1     -11.588  14.055  66.709  1.00  0.00    -0.407 S  
HETATM   25  O   UNL     1     -11.827  14.589  65.389  1.00  0.00    -0.354 OA 
HETATM   26  N   UNL     1     -11.747  12.390  66.544  1.00  0.00    -0.391 N  
HETATM   27  O   UNL     1     -12.382  14.386  67.869  1.00  0.00    -0.220 OA 
HETATM   28  H1  UNL     1     -12.729  12.243  66.317  1.00  0.00     0.000 HD 
HETATM   29  H2  UNL     1     -11.020  11.682  66.647  1.00  0.00     0.000 HD 
ENDBRANCH  20  24
BRANCH  21  30
HETATM   30  O   UNL     1     -10.292  16.636  67.045  1.00  0.00    -0.296 OA 
HETATM   31  C   UNL     1     -10.390  17.583  68.101  1.00  0.00    -0.375 C  
ENDBRANCH  21  30
ENDBRANCH  17  18
ENDBRANCH  15  17
ENDBRANCH  13  15
ENDBRANCH  12  13
ENDBRANCH  11  12
ENDBRANCH  10  11
ENDBRANCH   9  10
ENDBRANCH   3   4
ENDBRANCH   2   3
TORSDOF 11
ENDMDL
MODEL      149
REMARK 921   NORMALIZED FREE ENERGY PREDICTED BY IDOCK:   -4.82 KCAL/MOL
REMARK 922        TOTAL FREE ENERGY PREDICTED BY IDOCK:   -9.16 KCAL/MOL
REMARK 923 INTER-LIGAND FREE ENERGY PREDICTED BY IDOCK:   -8.04 KCAL/MOL
REMARK 924 INTRA-LIGAND FREE ENERGY PREDICTED BY IDOCK:   -1.12 KCAL/MOL
REMARK 927      BINDING AFFINITY PREDICTED BY RF-SCORE:    0.00 PKD
ROOT
HETATM    1  C   UNL     1      -9.838  14.941  67.905  1.00  0.00    -0.214 C  
HETATM    2  C   UNL     1      -9.353  14.595  66.505  1.00  0.00    -0.288 C  
ENDROOT
BRANCH   2   3
HETATM    3  O   UNL     1      -9.747  13.247  66.280  1.00  0.00    -0.276 OA 
BRANCH   3   4
HETATM    4  C   UNL     1     -10.716  12.944  65.373  1.00  0.00    -0.285 A  
HETATM    5  C   UNL     1     -12.025  13.438  65.453  1.00  0.00    -0.419 A  
HETATM    6  C   UNL     1     -12.990  13.073  64.509  1.00  0.00    -0.107 A  
HETATM    7  C   UNL     1     -12.655  12.207  63.470  1.00  0.00    -0.621 A  
HETATM    8  C   UNL     1     -11.353  11.719  63.372  1.00  0.00    -0.437 A  
HETATM    9  C   UNL     1     -10.373  12.082  64.310  1.00  0.00    -0.322 A  
BRANCH   9  10
HETATM   10  O   UNL     1      -9.151  11.510  64.036  1.00  0.00     0.008 OA 
BRANCH  10  11
HETATM   11  C   UNL     1      -9.101  10.100  63.826  1.00  0.00    -0.261 C  
BRANCH  11  12
HETATM   12  C   UNL     1      -8.661   9.400  65.118  1.00  0.00    -0.167 C  
BRANCH  12  13
HETATM   13  N   UNL     1      -8.532  10.270  66.298  1.00  0.00    -0.132 NA 
HETATM   14  H   UNL     1      -8.799  11.225  66.058  1.00  0.00     0.000 HD 
BRANCH  13  15
HETATM   15  C   UNL     1      -9.267   9.827  67.498  1.00  0.00    -0.130 C  
HETATM   16  C   UNL     1     -10.605   9.244  67.017  1.00  0.00    -0.263 C  
BRANCH  15  17
HETATM   17  C   UNL     1      -9.489  10.954  68.546  1.00  0.00    -0.185 C  
BRANCH  17  18
HETATM   18  C   UNL     1     -10.355  10.489  69.696  1.00  0.00    -0.231 A  
HETATM   19  C   UNL     1      -9.920   9.433  70.504  1.00  0.00    -0.328 A  
HETATM   20  C   UNL     1     -10.798   8.837  71.419  1.00  0.00    -0.289 A  
HETATM   21  C   UNL     1     -12.082   9.360  71.621  1.00  0.00    -0.388 A  
HETATM   22  C   UNL     1     -11.628  11.022  69.904  1.00  0.00    -0.416 A  
HETATM   23  C   UNL     1     -12.476  10.475  70.874  1.00  0.00    -0.488 A  
BRANCH  20  24
HETATM   24  S   UNL     1     -10.345   7.332  72.248  1.00  0.00    -0.218 S  
HETATM   25  O   UNL     1     -10.848   7.397  73.600  1.00  0.00    -0.346 OA 
HETATM   26  N   UNL     1     -11.257   6.137  71.497  1.00  0.00    -0.285 N  
HETATM   27  O   UNL     1      -8.976   7.015  71.912  1.00  0.00    -0.133 OA 
HETATM   28  H1  UNL     1     -10.997   5.273  71.972  1.00  0.00     0.000 HD 
HETATM   29  H2  UNL     1     -11.924   6.250  70.733  1.00  0.00     0.000 HD 
ENDBRANCH  20  24
BRANCH  21  30
HETATM   30  O   UNL     1     -12.874   8.734  72.542  1.00  0.00    -0.399 OA 
HETATM   31  C   UNL     1     -14.269   8.655  72.281  1.00  0.00    -0.417 C  
ENDBRANCH  21  30
ENDBRANCH  17  18
ENDBRANCH  15  17
ENDBRANCH  13  15
ENDBRANCH  12  13
ENDBRANCH  11  12
ENDBRANCH  10  11
ENDBRANCH   9  10
ENDBRANCH   3   4
ENDBRANCH   2   3
TORSDOF 11
ENDMDL
MODEL      150
REMARK 921   NORMALIZED FREE ENERGY PREDICTED BY IDOCK:   -4.80 KCAL/MOL
REMARK 922        TOTAL FREE ENERGY PREDICTED BY IDOCK:   -9.13 KCAL/MOL
REMARK 923 INTER-LIGAND FREE ENERGY PREDICTED BY IDOCK:   -7.93 KCAL/MOL
REMARK 924 INTRA-LIGAND FREE ENERGY PREDICTED BY IDOCK:   -1.19 KCAL/MOL
REMARK 927      BINDING AFFINITY PREDICTED BY RF-SCORE:    0.00 PKD
ROOT
HETATM    1  C   UNL     1      -9.705  13.515  68.288  1.00  0.00    -0.224 C  
HETATM    2  C   UNL     1      -9.010  12.480  67.416  1.00  0.00    -0.188 C  
ENDROOT
BRANCH   2   3
HETATM    3  O   UNL     1     -10.038  11.620  66.941  1.00  0.00    -0.206 OA 
BRANCH   3   4
HETATM    4  C   UNL     1     -10.774  11.949  65.843  1.00  0.00    -0.284 A  
HETATM    5  C   UNL     1     -12.014  12.599  65.916  1.00  0.00    -0.497 A  
HETATM    6  C   UNL     1     -12.741  12.889  64.759  1.00  0.00    -0.442 A  
HETATM    7  C   UNL     1     -12.235  12.534  63.510  1.00  0.00    -0.652 A  
HETATM    8  C   UNL     1     -10.997  11.899  63.424  1.00  0.00    -0.470 A  
HETATM    9  C   UNL     1     -10.253  11.606  64.578  1.00  0.00    -0.291 A  
BRANCH   9  10
HETATM   10  O   UNL     1      -9.056  10.992  64.286  1.00  0.00    -0.181 OA 
BRANCH  10  11
HETATM   11  C   UNL     1      -9.091   9.660  63.776  1.00  0.00    -0.178 C  
BRANCH  11  12
HETATM   12  C   UNL     1      -8.292   8.732  64.700  1.00  0.00    -0.166 C  
BRANCH  12  13
HETATM   13  N   UNL     1      -8.131   9.201  66.086  1.00  0.00    -0.106 NA 
HETATM   14  H   UNL     1      -8.618  10.089  66.212  1.00  0.00     0.000 HD 
BRANCH  13  15
HETATM   15  C   UNL     1      -8.542   8.247  67.133  1.00  0.00    -0.123 C  
HETATM   16  C   UNL     1      -9.856   7.602  66.663  1.00  0.00    -0.283 C  
BRANCH  15  17
HETATM   17  C   UNL     1      -8.703   8.893  68.538  1.00  0.00    -0.134 C  
BRANCH  17  18
HETATM   18  C   UNL     1      -9.661   8.111  69.409  1.00  0.00    -0.170 A  
HETATM   19  C   UNL     1     -10.841   8.716  69.855  1.00  0.00    -0.210 A  
HETATM   20  C   UNL     1     -11.621   8.100  70.842  1.00  0.00    -0.267 A  
HETATM   21  C   UNL     1     -11.296   6.821  71.314  1.00  0.00    -0.289 A  
HETATM   22  C   UNL     1      -9.343   6.830  69.865  1.00  0.00    -0.157 A  
HETATM   23  C   UNL     1     -10.166   6.183  70.794  1.00  0.00    -0.249 A  
BRANCH  20  24
HETATM   24  S   UNL     1     -12.963   8.980  71.605  1.00  0.00    -0.376 S  
HETATM   25  O   UNL     1     -13.161  10.212  70.877  1.00  0.00    -0.381 OA 
HETATM   26  N   UNL     1     -14.326   8.053  71.278  1.00  0.00    -0.658 N  
HETATM   27  O   UNL     1     -12.806   8.908  73.039  1.00  0.00    -0.271 OA 
HETATM   28  H1  UNL     1     -15.096   8.558  71.715  1.00  0.00     0.000 HD 
HETATM   29  H2  UNL     1     -14.373   7.178  70.756  1.00  0.00     0.000 HD 
ENDBRANCH  20  24
BRANCH  21  30
HETATM   30  O   UNL     1     -12.115   6.279  72.265  1.00  0.00    -0.304 OA 
HETATM   31  C   UNL     1     -11.571   5.293  73.133  1.00  0.00    -0.178 C  
ENDBRANCH  21  30
ENDBRANCH  17  18
ENDBRANCH  15  17
ENDBRANCH  13  15
ENDBRANCH  12  13
ENDBRANCH  11  12
ENDBRANCH  10  11
ENDBRANCH   9  10
ENDBRANCH   3   4
ENDBRANCH   2   3
TORSDOF 11
ENDMDL
MODEL      151
REMARK 921   NORMALIZED FREE ENERGY PREDICTED BY IDOCK:   -4.80 KCAL/MOL
REMARK 922        TOTAL FREE ENERGY PREDICTED BY IDOCK:   -9.12 KCAL/MOL
REMARK 923 INTER-LIGAND FREE ENERGY PREDICTED BY IDOCK:   -7.79 KCAL/MOL
REMARK 924 INTRA-LIGAND FREE ENERGY PREDICTED BY IDOCK:   -1.33 KCAL/MOL
REMARK 927      BINDING AFFINITY PREDICTED BY RF-SCORE:    0.00 PKD
ROOT
HETATM    1  C   UNL     1     -10.832  10.691  69.296  1.00  0.00    -0.282 C  
HETATM    2  C   UNL     1     -11.016  10.411  67.812  1.00  0.00    -0.309 C  
ENDROOT
BRANCH   2   3
HETATM    3  O   UNL     1      -9.861  10.940  67.171  1.00  0.00    -0.179 OA 
BRANCH   3   4
HETATM    4  C   UNL     1      -9.029  10.135  66.454  1.00  0.00    -0.144 A  
HETATM    5  C   UNL     1      -7.919   9.485  67.012  1.00  0.00    -0.109 A  
HETATM    6  C   UNL     1      -7.081   8.691  66.225  1.00  0.00    -0.078 A  
HETATM    7  C   UNL     1      -7.344   8.535  64.866  1.00  0.00    -0.087 A  
HETATM    8  C   UNL     1      -8.452   9.166  64.302  1.00  0.00    -0.200 A  
HETATM    9  C   UNL     1      -9.306   9.962  65.082  1.00  0.00    -0.258 A  
BRANCH   9  10
HETATM   10  O   UNL     1     -10.346  10.486  64.349  1.00  0.00    -0.341 OA 
BRANCH  10  11
HETATM   11  C   UNL     1     -10.092  11.643  63.554  1.00  0.00    -0.425 C  
BRANCH  11  12
HETATM   12  C   UNL     1     -11.169  12.702  63.825  1.00  0.00    -0.463 C  
BRANCH  12  13
HETATM   13  N   UNL     1     -11.858  12.589  65.120  1.00  0.00    -0.385 NA 
HETATM   14  H   UNL     1     -11.225  12.202  65.820  1.00  0.00     0.000 HD 
BRANCH  13  15
HETATM   15  C   UNL     1     -12.471  13.832  65.626  1.00  0.00    -0.503 C  
HETATM   16  C   UNL     1     -11.982  14.975  64.722  1.00  0.00    -0.313 C  
BRANCH  15  17
HETATM   17  C   UNL     1     -12.151  14.122  67.121  1.00  0.00    -0.432 C  
BRANCH  17  18
HETATM   18  C   UNL     1     -10.850  14.876  67.281  1.00  0.00    -0.306 A  
HETATM   19  C   UNL     1     -10.877  16.240  67.592  1.00  0.00    -0.293 A  
HETATM   20  C   UNL     1      -9.705  17.005  67.516  1.00  0.00    -0.251 A  
HETATM   21  C   UNL     1      -8.473  16.397  67.239  1.00  0.00    -0.175 A  
HETATM   22  C   UNL     1      -9.623  14.265  67.020  1.00  0.00    -0.260 A  
HETATM   23  C   UNL     1      -8.442  15.016  67.021  1.00  0.00    -0.258 A  
BRANCH  20  24
HETATM   24  S   UNL     1      -9.779  18.775  67.643  1.00  0.00    -0.321 S  
HETATM   25  O   UNL     1      -8.901  19.184  68.714  1.00  0.00    -0.356 OA 
HETATM   26  N   UNL     1      -9.048  19.337  66.238  1.00  0.00    -0.347 N  
HETATM   27  O   UNL     1     -11.158  19.189  67.529  1.00  0.00    -0.405 OA 
HETATM   28  H1  UNL     1      -9.090  20.353  66.310  1.00  0.00     0.000 HD 
HETATM   29  H2  UNL     1      -8.649  18.785  65.479  1.00  0.00     0.000 HD 
ENDBRANCH  20  24
BRANCH  21  30
HETATM   30  O   UNL     1      -7.372  17.206  67.198  1.00  0.00    -0.149 OA 
HETATM   31  C   UNL     1      -6.097  16.612  67.402  1.00  0.00    -0.161 C  
ENDBRANCH  21  30
ENDBRANCH  17  18
ENDBRANCH  15  17
ENDBRANCH  13  15
ENDBRANCH  12  13
ENDBRANCH  11  12
ENDBRANCH  10  11
ENDBRANCH   9  10
ENDBRANCH   3   4
ENDBRANCH   2   3
TORSDOF 11
ENDMDL
MODEL      152
REMARK 921   NORMALIZED FREE ENERGY PREDICTED BY IDOCK:   -4.79 KCAL/MOL
REMARK 922        TOTAL FREE ENERGY PREDICTED BY IDOCK:   -9.11 KCAL/MOL
REMARK 923 INTER-LIGAND FREE ENERGY PREDICTED BY IDOCK:   -8.77 KCAL/MOL
REMARK 924 INTRA-LIGAND FREE ENERGY PREDICTED BY IDOCK:   -0.35 KCAL/MOL
REMARK 927      BINDING AFFINITY PREDICTED BY RF-SCORE:    0.00 PKD
ROOT
HETATM    1  C   UNL     1     -11.441   2.489  73.502  1.00  0.00    -0.260 C  
HETATM    2  C   UNL     1     -10.189   3.353  73.503  1.00  0.00    -0.137 C  
ENDROOT
BRANCH   2   3
HETATM    3  O   UNL     1     -10.636   4.684  73.272  1.00  0.00    -0.180 OA 
BRANCH   3   4
HETATM    4  C   UNL     1      -9.764   5.730  73.303  1.00  0.00    -0.152 A  
HETATM    5  C   UNL     1      -9.491   6.468  74.464  1.00  0.00    -0.281 A  
HETATM    6  C   UNL     1      -8.608   7.550  74.435  1.00  0.00    -0.242 A  
HETATM    7  C   UNL     1      -7.983   7.908  73.242  1.00  0.00    -0.209 A  
HETATM    8  C   UNL     1      -8.237   7.174  72.084  1.00  0.00    -0.103 A  
HETATM    9  C   UNL     1      -9.118   6.081  72.100  1.00  0.00    -0.142 A  
BRANCH   9  10
HETATM   10  O   UNL     1      -9.225   5.479  70.867  1.00  0.00    -0.147 OA 
BRANCH  10  11
HETATM   11  C   UNL     1      -9.593   6.291  69.753  1.00  0.00    -0.151 C  
BRANCH  11  12
HETATM   12  C   UNL     1     -10.916   7.009  70.050  1.00  0.00    -0.270 C  
BRANCH  12  13
HETATM   13  N   UNL     1     -11.244   8.130  69.155  1.00  0.00    -0.361 NA 
HETATM   14  H   UNL     1     -12.240   8.119  68.933  1.00  0.00     0.000 HD 
BRANCH  13  15
HETATM   15  C   UNL     1     -10.850   9.467  69.639  1.00  0.00    -0.228 C  
HETATM   16  C   UNL     1     -11.027   9.463  71.166  1.00  0.00    -0.430 C  
BRANCH  15  17
HETATM   17  C   UNL     1     -11.648  10.629  68.983  1.00  0.00    -0.332 C  
BRANCH  17  18
HETATM   18  C   UNL     1     -11.101  10.985  67.618  1.00  0.00    -0.363 A  
HETATM   19  C   UNL     1     -11.610  12.097  66.939  1.00  0.00    -0.408 A  
HETATM   20  C   UNL     1     -11.290  12.310  65.592  1.00  0.00    -0.350 A  
HETATM   21  C   UNL     1     -10.368  11.481  64.938  1.00  0.00    -0.289 A  
HETATM   22  C   UNL     1     -10.171  10.167  66.975  1.00  0.00    -0.290 A  
HETATM   23  C   UNL     1      -9.792  10.425  65.653  1.00  0.00    -0.321 A  
BRANCH  20  24
HETATM   24  S   UNL     1     -12.141  13.554  64.652  1.00  0.00    -0.419 S  
HETATM   25  O   UNL     1     -13.200  14.089  65.474  1.00  0.00    -0.710 OA 
HETATM   26  N   UNL     1     -11.031  14.808  64.496  1.00  0.00    -0.628 N  
HETATM   27  O   UNL     1     -12.333  13.065  63.307  1.00  0.00    -0.682 OA 
HETATM   28  H1  UNL     1     -11.519  15.522  63.957  1.00  0.00     0.000 HD 
HETATM   29  H2  UNL     1     -10.080  14.846  64.861  1.00  0.00     0.000 HD 
ENDBRANCH  20  24
BRANCH  21  30
HETATM   30  O   UNL     1     -10.094  11.761  63.629  1.00  0.00    -0.345 OA 
HETATM   31  C   UNL     1      -9.380  10.792  62.873  1.00  0.00    -0.338 C  
ENDBRANCH  21  30
ENDBRANCH  17  18
ENDBRANCH  15  17
ENDBRANCH  13  15
ENDBRANCH  12  13
ENDBRANCH  11  12
ENDBRANCH  10  11
ENDBRANCH   9  10
ENDBRANCH   3   4
ENDBRANCH   2   3
TORSDOF 11
ENDMDL
MODEL      153
REMARK 921   NORMALIZED FREE ENERGY PREDICTED BY IDOCK:   -4.79 KCAL/MOL
REMARK 922        TOTAL FREE ENERGY PREDICTED BY IDOCK:   -9.11 KCAL/MOL
REMARK 923 INTER-LIGAND FREE ENERGY PREDICTED BY IDOCK:   -7.76 KCAL/MOL
REMARK 924 INTRA-LIGAND FREE ENERGY PREDICTED BY IDOCK:   -1.35 KCAL/MOL
REMARK 927      BINDING AFFINITY PREDICTED BY RF-SCORE:    0.00 PKD
ROOT
HETATM    1  C   UNL     1     -12.107  13.745  64.044  1.00  0.00    -0.448 C  
HETATM    2  C   UNL     1     -12.492  12.803  65.174  1.00  0.00    -0.501 C  
ENDROOT
BRANCH   2   3
HETATM    3  O   UNL     1     -11.368  12.761  66.045  1.00  0.00    -0.295 OA 
BRANCH   3   4
HETATM    4  C   UNL     1     -11.373  11.975  67.157  1.00  0.00    -0.333 A  
HETATM    5  C   UNL     1     -11.017  10.620  67.141  1.00  0.00    -0.312 A  
HETATM    6  C   UNL     1     -11.066   9.851  68.307  1.00  0.00    -0.207 A  
HETATM    7  C   UNL     1     -11.472  10.430  69.508  1.00  0.00    -0.311 A  
HETATM    8  C   UNL     1     -11.816  11.781  69.539  1.00  0.00    -0.402 A  
HETATM    9  C   UNL     1     -11.767  12.566  68.376  1.00  0.00    -0.328 A  
BRANCH   9  10
HETATM   10  O   UNL     1     -12.129  13.873  68.613  1.00  0.00    -0.358 OA 
BRANCH  10  11
HETATM   11  C   UNL     1     -11.311  14.650  69.486  1.00  0.00    -0.280 C  
BRANCH  11  12
HETATM   12  C   UNL     1     -10.030  15.071  68.755  1.00  0.00    -0.228 C  
BRANCH  12  13
HETATM   13  N   UNL     1      -8.817  14.320  69.117  1.00  0.00    -0.382 NA 
HETATM   14  H   UNL     1      -9.035  13.631  69.837  1.00  0.00     0.000 HD 
BRANCH  13  15
HETATM   15  C   UNL     1      -8.112  13.671  67.995  1.00  0.00    -0.161 C  
HETATM   16  C   UNL     1      -8.052  12.168  68.310  1.00  0.00    -0.166 C  
BRANCH  15  17
HETATM   17  C   UNL     1      -6.691  14.248  67.734  1.00  0.00    -0.190 C  
BRANCH  17  18
HETATM   18  C   UNL     1      -6.570  15.679  68.208  1.00  0.00    -0.126 A  
HETATM   19  C   UNL     1      -7.025  16.718  67.389  1.00  0.00    -0.182 A  
HETATM   20  C   UNL     1      -6.716  18.049  67.699  1.00  0.00    -0.186 A  
HETATM   21  C   UNL     1      -6.048  18.367  68.889  1.00  0.00    -0.217 A  
HETATM   22  C   UNL     1      -5.918  15.993  69.401  1.00  0.00    -0.141 A  
HETATM   23  C   UNL     1      -5.678  17.327  69.748  1.00  0.00    -0.227 A  
BRANCH  20  24
HETATM   24  S   UNL     1      -7.052  19.344  66.531  1.00  0.00    -0.229 S  
HETATM   25  O   UNL     1      -7.960  20.280  67.150  1.00  0.00    -0.314 OA 
HETATM   26  N   UNL     1      -5.599  20.176  66.382  1.00  0.00    -0.173 N  
HETATM   27  O   UNL     1      -7.269  18.750  65.232  1.00  0.00    -0.486 OA 
HETATM   28  H1  UNL     1      -5.792  20.920  65.711  1.00  0.00     0.000 HD 
HETATM   29  H2  UNL     1      -4.718  19.981  66.857  1.00  0.00     0.000 HD 
ENDBRANCH  20  24
BRANCH  21  30
HETATM   30  O   UNL     1      -5.796  19.689  69.129  1.00  0.00    -0.225 OA 
HETATM   31  C   UNL     1      -6.006  20.181  70.446  1.00  0.00    -0.354 C  
ENDBRANCH  21  30
ENDBRANCH  17  18
ENDBRANCH  15  17
ENDBRANCH  13  15
ENDBRANCH  12  13
ENDBRANCH  11  12
ENDBRANCH  10  11
ENDBRANCH   9  10
ENDBRANCH   3   4
ENDBRANCH   2   3
TORSDOF 11
ENDMDL
MODEL      154
REMARK 921   NORMALIZED FREE ENERGY PREDICTED BY IDOCK:   -4.78 KCAL/MOL
REMARK 922        TOTAL FREE ENERGY PREDICTED BY IDOCK:   -9.09 KCAL/MOL
REMARK 923 INTER-LIGAND FREE ENERGY PREDICTED BY IDOCK:   -8.23 KCAL/MOL
REMARK 924 INTRA-LIGAND FREE ENERGY PREDICTED BY IDOCK:   -0.86 KCAL/MOL
REMARK 927      BINDING AFFINITY PREDICTED BY RF-SCORE:    0.00 PKD
ROOT
HETATM    1  C   UNL     1     -11.015   7.152  73.292  1.00  0.00    -0.325 C  
HETATM    2  C   UNL     1     -11.278   8.050  72.093  1.00  0.00    -0.319 C  
ENDROOT
BRANCH   2   3
HETATM    3  O   UNL     1     -10.199   7.823  71.194  1.00  0.00    -0.195 OA 
BRANCH   3   4
HETATM    4  C   UNL     1     -10.429   7.513  69.889  1.00  0.00    -0.229 A  
HETATM    5  C   UNL     1     -10.688   6.210  69.442  1.00  0.00    -0.385 A  
HETATM    6  C   UNL     1     -10.891   5.942  68.086  1.00  0.00    -0.323 A  
HETATM    7  C   UNL     1     -10.840   6.979  67.156  1.00  0.00    -0.427 A  
HETATM    8  C   UNL     1     -10.596   8.281  67.589  1.00  0.00    -0.264 A  
HETATM    9  C   UNL     1     -10.396   8.565  68.949  1.00  0.00    -0.210 A  
BRANCH   9  10
HETATM   10  O   UNL     1     -10.185   9.906  69.177  1.00  0.00    -0.183 OA 
BRANCH  10  11
HETATM   11  C   UNL     1     -10.391  10.812  68.095  1.00  0.00    -0.171 C  
BRANCH  11  12
HETATM   12  C   UNL     1     -11.529  11.781  68.441  1.00  0.00    -0.294 C  
BRANCH  12  13
HETATM   13  N   UNL     1     -11.119  13.034  69.094  1.00  0.00    -0.381 NA 
HETATM   14  H   UNL     1     -10.237  12.897  69.590  1.00  0.00     0.000 HD 
BRANCH  13  15
HETATM   15  C   UNL     1     -11.022  14.211  68.209  1.00  0.00    -0.251 C  
HETATM   16  C   UNL     1     -12.036  14.004  67.073  1.00  0.00    -0.472 C  
BRANCH  15  17
HETATM   17  C   UNL     1      -9.592  14.455  67.650  1.00  0.00    -0.214 C  
BRANCH  17  18
HETATM   18  C   UNL     1      -9.049  15.804  68.065  1.00  0.00    -0.187 A  
HETATM   19  C   UNL     1      -9.740  16.966  67.707  1.00  0.00    -0.250 A  
HETATM   20  C   UNL     1      -9.144  18.223  67.875  1.00  0.00    -0.279 A  
HETATM   21  C   UNL     1      -7.899  18.343  68.507  1.00  0.00    -0.306 A  
HETATM   22  C   UNL     1      -7.815  15.921  68.708  1.00  0.00    -0.185 A  
HETATM   23  C   UNL     1      -7.256  17.181  68.946  1.00  0.00    -0.242 A  
BRANCH  20  24
HETATM   24  S   UNL     1      -9.896  19.674  67.178  1.00  0.00    -0.400 S  
HETATM   25  O   UNL     1     -10.260  20.554  68.263  1.00  0.00    -0.243 OA 
HETATM   26  N   UNL     1      -8.647  20.461  66.375  1.00  0.00    -0.551 N  
HETATM   27  O   UNL     1     -10.804  19.265  66.132  1.00  0.00    -0.379 OA 
HETATM   28  H1  UNL     1      -9.078  21.294  65.975  1.00  0.00     0.000 HD 
HETATM   29  H2  UNL     1      -7.672  20.171  66.303  1.00  0.00     0.000 HD 
ENDBRANCH  20  24
BRANCH  21  30
HETATM   30  O   UNL     1      -7.389  19.603  68.649  1.00  0.00    -0.325 OA 
HETATM   31  C   UNL     1      -5.978  19.765  68.588  1.00  0.00    -0.237 C  
ENDBRANCH  21  30
ENDBRANCH  17  18
ENDBRANCH  15  17
ENDBRANCH  13  15
ENDBRANCH  12  13
ENDBRANCH  11  12
ENDBRANCH  10  11
ENDBRANCH   9  10
ENDBRANCH   3   4
ENDBRANCH   2   3
TORSDOF 11
ENDMDL
MODEL      155
REMARK 921   NORMALIZED FREE ENERGY PREDICTED BY IDOCK:   -4.76 KCAL/MOL
REMARK 922        TOTAL FREE ENERGY PREDICTED BY IDOCK:   -9.07 KCAL/MOL
REMARK 923 INTER-LIGAND FREE ENERGY PREDICTED BY IDOCK:   -8.28 KCAL/MOL
REMARK 924 INTRA-LIGAND FREE ENERGY PREDICTED BY IDOCK:   -0.79 KCAL/MOL
REMARK 927      BINDING AFFINITY PREDICTED BY RF-SCORE:    0.00 PKD
ROOT
HETATM    1  C   UNL     1      -7.694   9.065  65.406  1.00  0.00    -0.095 C  
HETATM    2  C   UNL     1      -8.205   9.742  66.669  1.00  0.00    -0.120 C  
ENDROOT
BRANCH   2   3
HETATM    3  O   UNL     1      -8.987   8.764  67.344  1.00  0.00    -0.132 OA 
BRANCH   3   4
HETATM    4  C   UNL     1      -9.510   9.015  68.576  1.00  0.00    -0.143 A  
HETATM    5  C   UNL     1      -8.905   8.592  69.768  1.00  0.00    -0.137 A  
HETATM    6  C   UNL     1      -9.498   8.853  71.006  1.00  0.00    -0.318 A  
HETATM    7  C   UNL     1     -10.706   9.544  71.068  1.00  0.00    -0.411 A  
HETATM    8  C   UNL     1     -11.311   9.981  69.890  1.00  0.00    -0.306 A  
HETATM    9  C   UNL     1     -10.724   9.731  68.640  1.00  0.00    -0.216 A  
BRANCH   9  10
HETATM   10  O   UNL     1     -11.462  10.252  67.602  1.00  0.00    -0.345 OA 
BRANCH  10  11
HETATM   11  C   UNL     1     -11.836  11.627  67.668  1.00  0.00    -0.143 C  
BRANCH  11  12
HETATM   12  C   UNL     1     -11.753  12.253  66.270  1.00  0.00    -0.366 C  
BRANCH  12  13
HETATM   13  N   UNL     1     -12.329  13.602  66.143  1.00  0.00    -0.436 NA 
HETATM   14  H   UNL     1     -13.150  13.688  66.743  1.00  0.00     0.000 HD 
BRANCH  13  15
HETATM   15  C   UNL     1     -11.398  14.717  66.399  1.00  0.00    -0.339 C  
HETATM   16  C   UNL     1     -10.091  14.392  65.659  1.00  0.00    -0.377 C  
BRANCH  15  17
HETATM   17  C   UNL     1     -11.137  14.979  67.910  1.00  0.00    -0.310 C  
BRANCH  17  18
HETATM   18  C   UNL     1     -10.149  16.104  68.123  1.00  0.00    -0.237 A  
HETATM   19  C   UNL     1     -10.421  17.371  67.596  1.00  0.00    -0.368 A  
HETATM   20  C   UNL     1      -9.425  18.357  67.577  1.00  0.00    -0.270 A  
HETATM   21  C   UNL     1      -8.184  18.129  68.187  1.00  0.00    -0.276 A  
HETATM   22  C   UNL     1      -8.919  15.879  68.744  1.00  0.00    -0.216 A  
HETATM   23  C   UNL     1      -7.954  16.891  68.794  1.00  0.00    -0.254 A  
BRANCH  20  24
HETATM   24  S   UNL     1      -9.672  19.866  66.672  1.00  0.00    -0.456 S  
HETATM   25  O   UNL     1      -9.838  20.937  67.626  1.00  0.00    -0.364 OA 
HETATM   26  N   UNL     1      -8.196  20.166  65.927  1.00  0.00    -0.542 N  
HETATM   27  O   UNL     1     -10.587  19.606  65.584  1.00  0.00    -0.503 OA 
HETATM   28  H1  UNL     1      -8.338  21.032  65.407  1.00  0.00     0.000 HD 
HETATM   29  H2  UNL     1      -7.345  19.606  65.982  1.00  0.00     0.000 HD 
ENDBRANCH  20  24
BRANCH  21  30
HETATM   30  O   UNL     1      -7.271  19.145  68.143  1.00  0.00    -0.251 OA 
HETATM   31  C   UNL     1      -6.765  19.644  69.374  1.00  0.00    -0.354 C  
ENDBRANCH  21  30
ENDBRANCH  17  18
ENDBRANCH  15  17
ENDBRANCH  13  15
ENDBRANCH  12  13
ENDBRANCH  11  12
ENDBRANCH  10  11
ENDBRANCH   9  10
ENDBRANCH   3   4
ENDBRANCH   2   3
TORSDOF 11
ENDMDL
MODEL      156
REMARK 921   NORMALIZED FREE ENERGY PREDICTED BY IDOCK:   -4.75 KCAL/MOL
REMARK 922        TOTAL FREE ENERGY PREDICTED BY IDOCK:   -9.05 KCAL/MOL
REMARK 923 INTER-LIGAND FREE ENERGY PREDICTED BY IDOCK:   -7.81 KCAL/MOL
REMARK 924 INTRA-LIGAND FREE ENERGY PREDICTED BY IDOCK:   -1.24 KCAL/MOL
REMARK 927      BINDING AFFINITY PREDICTED BY RF-SCORE:    0.00 PKD
ROOT
HETATM    1  C   UNL     1     -12.567  12.817  64.894  1.00  0.00    -0.541 C  
HETATM    2  C   UNL     1     -11.928  14.160  64.575  1.00  0.00    -0.458 C  
ENDROOT
BRANCH   2   3
HETATM    3  O   UNL     1     -11.725  14.801  65.828  1.00  0.00    -0.336 OA 
BRANCH   3   4
HETATM    4  C   UNL     1     -10.619  15.562  66.054  1.00  0.00    -0.325 A  
HETATM    5  C   UNL     1     -10.599  16.955  65.892  1.00  0.00    -0.239 A  
HETATM    6  C   UNL     1      -9.428  17.686  66.111  1.00  0.00    -0.178 A  
HETATM    7  C   UNL     1      -8.260  17.032  66.496  1.00  0.00    -0.314 A  
HETATM    8  C   UNL     1      -8.271  15.650  66.672  1.00  0.00    -0.284 A  
HETATM    9  C   UNL     1      -9.441  14.903  66.461  1.00  0.00    -0.283 A  
BRANCH   9  10
HETATM   10  O   UNL     1      -9.253  13.560  66.698  1.00  0.00    -0.248 OA 
BRANCH  10  11
HETATM   11  C   UNL     1      -8.191  13.174  67.569  1.00  0.00    -0.183 C  
BRANCH  11  12
HETATM   12  C   UNL     1      -7.898  11.678  67.395  1.00  0.00    -0.147 C  
BRANCH  12  13
HETATM   13  N   UNL     1      -8.102  11.146  66.038  1.00  0.00    -0.310 NA 
HETATM   14  H   UNL     1      -7.207  10.865  65.635  1.00  0.00     0.000 HD 
BRANCH  13  15
HETATM   15  C   UNL     1      -9.074  10.041  65.927  1.00  0.00    -0.159 C  
HETATM   16  C   UNL     1      -9.325   9.812  64.429  1.00  0.00    -0.278 C  
BRANCH  15  17
HETATM   17  C   UNL     1     -10.405  10.302  66.687  1.00  0.00    -0.283 C  
BRANCH  17  18
HETATM   18  C   UNL     1     -10.722   9.191  67.664  1.00  0.00    -0.257 A  
HETATM   19  C   UNL     1     -11.135   9.510  68.962  1.00  0.00    -0.060 A  
HETATM   20  C   UNL     1     -11.207   8.513  69.944  1.00  0.00    -0.032 A  
HETATM   21  C   UNL     1     -10.980   7.170  69.616  1.00  0.00    -0.212 A  
HETATM   22  C   UNL     1     -10.509   7.853  67.330  1.00  0.00    -0.390 A  
HETATM   23  C   UNL     1     -10.658   6.849  68.293  1.00  0.00    -0.258 A  
BRANCH  20  24
HETATM   24  S   UNL     1     -11.464   8.949  71.647  1.00  0.00    -0.364 S  
HETATM   25  O   UNL     1     -12.198  10.192  71.685  1.00  0.00    -0.382 OA 
HETATM   26  N   UNL     1     -12.534   7.791  72.230  1.00  0.00    -0.497 N  
HETATM   27  O   UNL     1     -10.238   8.714  72.373  1.00  0.00    -0.312 OA 
HETATM   28  H1  UNL     1     -12.682   8.041  73.207  1.00  0.00     0.000 HD 
HETATM   29  H2  UNL     1     -12.945   7.009  71.719  1.00  0.00     0.000 HD 
ENDBRANCH  20  24
BRANCH  21  30
HETATM   30  O   UNL     1     -11.085   6.254  70.625  1.00  0.00    -0.284 OA 
HETATM   31  C   UNL     1      -9.962   5.425  70.896  1.00  0.00    -0.202 C  
ENDBRANCH  21  30
ENDBRANCH  17  18
ENDBRANCH  15  17
ENDBRANCH  13  15
ENDBRANCH  12  13
ENDBRANCH  11  12
ENDBRANCH  10  11
ENDBRANCH   9  10
ENDBRANCH   3   4
ENDBRANCH   2   3
TORSDOF 11
ENDMDL
MODEL      157
REMARK 921   NORMALIZED FREE ENERGY PREDICTED BY IDOCK:   -4.75 KCAL/MOL
REMARK 922        TOTAL FREE ENERGY PREDICTED BY IDOCK:   -9.05 KCAL/MOL
REMARK 923 INTER-LIGAND FREE ENERGY PREDICTED BY IDOCK:   -7.62 KCAL/MOL
REMARK 924 INTRA-LIGAND FREE ENERGY PREDICTED BY IDOCK:   -1.43 KCAL/MOL
REMARK 927      BINDING AFFINITY PREDICTED BY RF-SCORE:    0.00 PKD
ROOT
HETATM    1  C   UNL     1     -10.648   5.486  66.721  1.00  0.00    -0.360 C  
HETATM    2  C   UNL     1     -10.076   5.994  68.036  1.00  0.00    -0.159 C  
ENDROOT
BRANCH   2   3
HETATM    3  O   UNL     1     -10.844   7.142  68.375  1.00  0.00    -0.178 OA 
BRANCH   3   4
HETATM    4  C   UNL     1     -11.113   7.445  69.675  1.00  0.00    -0.111 A  
HETATM    5  C   UNL     1     -11.863   6.613  70.518  1.00  0.00    -0.430 A  
HETATM    6  C   UNL     1     -12.133   6.985  71.838  1.00  0.00    -0.358 A  
HETATM    7  C   UNL     1     -11.654   8.196  72.333  1.00  0.00    -0.463 A  
HETATM    8  C   UNL     1     -10.896   9.025  71.508  1.00  0.00    -0.416 A  
HETATM    9  C   UNL     1     -10.612   8.662  70.182  1.00  0.00    -0.225 A  
BRANCH   9  10
HETATM   10  O   UNL     1      -9.842   9.603  69.537  1.00  0.00    -0.182 OA 
BRANCH  10  11
HETATM   11  C   UNL     1      -8.447   9.645  69.831  1.00  0.00    -0.198 C  
BRANCH  11  12
HETATM   12  C   UNL     1      -7.695   8.673  68.912  1.00  0.00    -0.100 C  
BRANCH  12  13
HETATM   13  N   UNL     1      -7.194   9.248  67.654  1.00  0.00    -0.083 NA 
HETATM   14  H   UNL     1      -6.357   8.749  67.351  1.00  0.00     0.000 HD 
BRANCH  13  15
HETATM   15  C   UNL     1      -8.171   9.314  66.550  1.00  0.00    -0.107 C  
HETATM   16  C   UNL     1      -7.961   8.058  65.689  1.00  0.00    -0.114 C  
BRANCH  15  17
HETATM   17  C   UNL     1      -8.060  10.608  65.695  1.00  0.00    -0.146 C  
BRANCH  17  18
HETATM   18  C   UNL     1      -9.018  11.678  66.170  1.00  0.00    -0.180 A  
HETATM   19  C   UNL     1     -10.050  12.105  65.327  1.00  0.00    -0.291 A  
HETATM   20  C   UNL     1     -10.798  13.245  65.647  1.00  0.00    -0.279 A  
HETATM   21  C   UNL     1     -10.603  13.906  66.867  1.00  0.00    -0.280 A  
HETATM   22  C   UNL     1      -8.831  12.325  67.392  1.00  0.00    -0.185 A  
HETATM   23  C   UNL     1      -9.632  13.417  67.747  1.00  0.00    -0.213 A  
BRANCH  20  24
HETATM   24  S   UNL     1     -11.918  13.947  64.460  1.00  0.00    -0.452 S  
HETATM   25  O   UNL     1     -12.113  12.982  63.404  1.00  0.00    -0.546 OA 
HETATM   26  N   UNL     1     -13.394  14.029  65.259  1.00  0.00    -0.580 N  
HETATM   27  O   UNL     1     -11.546  15.324  64.234  1.00  0.00    -0.315 OA 
HETATM   28  H1  UNL     1     -14.037  14.432  64.578  1.00  0.00     0.000 HD 
HETATM   29  H2  UNL     1     -13.602  13.740  66.214  1.00  0.00     0.000 HD 
ENDBRANCH  20  24
BRANCH  21  30
HETATM   30  O   UNL     1     -11.382  15.001  67.116  1.00  0.00    -0.338 OA 
HETATM   31  C   UNL     1     -11.764  15.259  68.461  1.00  0.00    -0.332 C  
ENDBRANCH  21  30
ENDBRANCH  17  18
ENDBRANCH  15  17
ENDBRANCH  13  15
ENDBRANCH  12  13
ENDBRANCH  11  12
ENDBRANCH  10  11
ENDBRANCH   9  10
ENDBRANCH   3   4
ENDBRANCH   2   3
TORSDOF 11
ENDMDL
MODEL      158
REMARK 921   NORMALIZED FREE ENERGY PREDICTED BY IDOCK:   -4.75 KCAL/MOL
REMARK 922        TOTAL FREE ENERGY PREDICTED BY IDOCK:   -9.05 KCAL/MOL
REMARK 923 INTER-LIGAND FREE ENERGY PREDICTED BY IDOCK:   -8.03 KCAL/MOL
REMARK 924 INTRA-LIGAND FREE ENERGY PREDICTED BY IDOCK:   -1.02 KCAL/MOL
REMARK 927      BINDING AFFINITY PREDICTED BY RF-SCORE:    0.00 PKD
ROOT
HETATM    1  C   UNL     1      -7.304   9.605  64.049  1.00  0.00    -0.121 C  
HETATM    2  C   UNL     1      -8.783   9.323  63.833  1.00  0.00    -0.168 C  
ENDROOT
BRANCH   2   3
HETATM    3  O   UNL     1      -9.458   9.922  64.932  1.00  0.00    -0.259 OA 
BRANCH   3   4
HETATM    4  C   UNL     1     -10.307  10.971  64.745  1.00  0.00    -0.324 A  
HETATM    5  C   UNL     1     -10.561  11.539  63.489  1.00  0.00    -0.487 A  
HETATM    6  C   UNL     1     -11.421  12.632  63.357  1.00  0.00    -0.499 A  
HETATM    7  C   UNL     1     -12.040  13.172  64.482  1.00  0.00    -0.462 A  
HETATM    8  C   UNL     1     -11.806  12.607  65.735  1.00  0.00    -0.497 A  
HETATM    9  C   UNL     1     -10.948  11.505  65.882  1.00  0.00    -0.243 A  
BRANCH   9  10
HETATM   10  O   UNL     1     -10.857  11.086  67.189  1.00  0.00    -0.253 OA 
BRANCH  10  11
HETATM   11  C   UNL     1     -11.831  11.562  68.117  1.00  0.00    -0.236 C  
BRANCH  11  12
HETATM   12  C   UNL     1     -11.151  12.443  69.173  1.00  0.00    -0.203 C  
BRANCH  12  13
HETATM   13  N   UNL     1     -12.060  13.146  70.093  1.00  0.00    -0.361 NA 
HETATM   14  H   UNL     1     -12.252  12.562  70.908  1.00  0.00     0.000 HD 
BRANCH  13  15
HETATM   15  C   UNL     1     -11.617  14.485  70.525  1.00  0.00    -0.237 C  
HETATM   16  C   UNL     1     -12.222  14.732  71.916  1.00  0.00    -0.415 C  
BRANCH  15  17
HETATM   17  C   UNL     1     -12.004  15.620  69.535  1.00  0.00    -0.363 C  
BRANCH  17  18
HETATM   18  C   UNL     1     -10.785  16.233  68.880  1.00  0.00    -0.300 A  
HETATM   19  C   UNL     1      -9.536  15.623  69.039  1.00  0.00    -0.243 A  
HETATM   20  C   UNL     1      -8.370  16.290  68.643  1.00  0.00    -0.220 A  
HETATM   21  C   UNL     1      -8.442  17.522  67.980  1.00  0.00    -0.242 A  
HETATM   22  C   UNL     1     -10.863  17.453  68.207  1.00  0.00    -0.256 A  
HETATM   23  C   UNL     1      -9.702  18.081  67.742  1.00  0.00    -0.292 A  
BRANCH  20  24
HETATM   24  S   UNL     1      -6.774  15.647  69.085  1.00  0.00    -0.162 S  
HETATM   25  O   UNL     1      -6.115  16.622  69.922  1.00  0.00    -0.215 OA 
HETATM   26  N   UNL     1      -7.101  14.347  70.099  1.00  0.00    -0.398 N  
HETATM   27  O   UNL     1      -6.173  15.055  67.912  1.00  0.00    -0.136 OA 
HETATM   28  H1  UNL     1      -6.185  13.978  70.354  1.00  0.00     0.000 HD 
HETATM   29  H2  UNL     1      -8.014  14.002  70.396  1.00  0.00     0.000 HD 
ENDBRANCH  20  24
BRANCH  21  30
HETATM   30  O   UNL     1      -7.261  18.103  67.610  1.00  0.00    -0.204 OA 
HETATM   31  C   UNL     1      -7.237  18.860  66.406  1.00  0.00    -0.237 C  
ENDBRANCH  21  30
ENDBRANCH  17  18
ENDBRANCH  15  17
ENDBRANCH  13  15
ENDBRANCH  12  13
ENDBRANCH  11  12
ENDBRANCH  10  11
ENDBRANCH   9  10
ENDBRANCH   3   4
ENDBRANCH   2   3
TORSDOF 11
ENDMDL
MODEL      159
REMARK 921   NORMALIZED FREE ENERGY PREDICTED BY IDOCK:   -4.75 KCAL/MOL
REMARK 922        TOTAL FREE ENERGY PREDICTED BY IDOCK:   -9.04 KCAL/MOL
REMARK 923 INTER-LIGAND FREE ENERGY PREDICTED BY IDOCK:   -8.21 KCAL/MOL
REMARK 924 INTRA-LIGAND FREE ENERGY PREDICTED BY IDOCK:   -0.83 KCAL/MOL
REMARK 927      BINDING AFFINITY PREDICTED BY RF-SCORE:    0.00 PKD
ROOT
HETATM    1  C   UNL     1      -9.090   7.469  73.681  1.00  0.00    -0.305 C  
HETATM    2  C   UNL     1     -10.265   7.201  72.753  1.00  0.00    -0.209 C  
ENDROOT
BRANCH   2   3
HETATM    3  O   UNL     1     -10.102   8.088  71.654  1.00  0.00    -0.173 OA 
BRANCH   3   4
HETATM    4  C   UNL     1     -11.006   9.079  71.415  1.00  0.00    -0.324 A  
HETATM    5  C   UNL     1     -12.175   9.251  72.169  1.00  0.00    -0.377 A  
HETATM    6  C   UNL     1     -13.083  10.269  71.864  1.00  0.00    -0.568 A  
HETATM    7  C   UNL     1     -12.831  11.131  70.799  1.00  0.00    -0.322 A  
HETATM    8  C   UNL     1     -11.666  10.978  70.049  1.00  0.00    -0.437 A  
HETATM    9  C   UNL     1     -10.742   9.963  70.348  1.00  0.00    -0.318 A  
BRANCH   9  10
HETATM   10  O   UNL     1      -9.654   9.984  69.506  1.00  0.00    -0.207 OA 
BRANCH  10  11
HETATM   11  C   UNL     1      -9.526   8.936  68.546  1.00  0.00    -0.147 C  
BRANCH  11  12
HETATM   12  C   UNL     1     -10.159   9.373  67.218  1.00  0.00    -0.226 C  
BRANCH  12  13
HETATM   13  N   UNL     1     -10.086  10.813  66.924  1.00  0.00    -0.204 NA 
HETATM   14  H   UNL     1      -9.183  11.039  66.506  1.00  0.00     0.000 HD 
BRANCH  13  15
HETATM   15  C   UNL     1     -11.177  11.347  66.088  1.00  0.00    -0.137 C  
HETATM   16  C   UNL     1     -10.588  11.611  64.693  1.00  0.00    -0.366 C  
BRANCH  15  17
HETATM   17  C   UNL     1     -11.840  12.629  66.670  1.00  0.00    -0.449 C  
BRANCH  17  18
HETATM   18  C   UNL     1     -11.043  13.871  66.340  1.00  0.00    -0.309 A  
HETATM   19  C   UNL     1      -9.981  14.250  67.168  1.00  0.00    -0.255 A  
HETATM   20  C   UNL     1      -9.384  15.509  67.019  1.00  0.00    -0.224 A  
HETATM   21  C   UNL     1      -9.761  16.358  65.971  1.00  0.00    -0.326 A  
HETATM   22  C   UNL     1     -11.412  14.708  65.286  1.00  0.00    -0.361 A  
HETATM   23  C   UNL     1     -10.761  15.932  65.090  1.00  0.00    -0.449 A  
BRANCH  20  24
HETATM   24  S   UNL     1      -8.227  16.103  68.230  1.00  0.00    -0.168 S  
HETATM   25  O   UNL     1      -7.715  14.964  68.956  1.00  0.00    -0.134 OA 
HETATM   26  N   UNL     1      -6.924  16.675  67.336  1.00  0.00    -0.146 N  
HETATM   27  O   UNL     1      -8.783  17.277  68.861  1.00  0.00    -0.257 OA 
HETATM   28  H1  UNL     1      -6.261  17.016  68.030  1.00  0.00     0.000 HD 
HETATM   29  H2  UNL     1      -6.820  16.681  66.321  1.00  0.00     0.000 HD 
ENDBRANCH  20  24
BRANCH  21  30
HETATM   30  O   UNL     1      -9.122  17.563  65.881  1.00  0.00    -0.512 OA 
HETATM   31  C   UNL     1      -9.875  18.741  66.136  1.00  0.00    -0.299 C  
ENDBRANCH  21  30
ENDBRANCH  17  18
ENDBRANCH  15  17
ENDBRANCH  13  15
ENDBRANCH  12  13
ENDBRANCH  11  12
ENDBRANCH  10  11
ENDBRANCH   9  10
ENDBRANCH   3   4
ENDBRANCH   2   3
TORSDOF 11
ENDMDL
MODEL      160
REMARK 921   NORMALIZED FREE ENERGY PREDICTED BY IDOCK:   -4.74 KCAL/MOL
REMARK 922        TOTAL FREE ENERGY PREDICTED BY IDOCK:   -9.04 KCAL/MOL
REMARK 923 INTER-LIGAND FREE ENERGY PREDICTED BY IDOCK:   -7.46 KCAL/MOL
REMARK 924 INTRA-LIGAND FREE ENERGY PREDICTED BY IDOCK:   -1.58 KCAL/MOL
REMARK 927      BINDING AFFINITY PREDICTED BY RF-SCORE:    0.00 PKD
ROOT
HETATM    1  C   UNL     1     -11.458   8.326  72.488  1.00  0.00    -0.454 C  
HETATM    2  C   UNL     1     -12.944   8.578  72.284  1.00  0.00    -0.341 C  
ENDROOT
BRANCH   2   3
HETATM    3  O   UNL     1     -13.047   9.342  71.089  1.00  0.00    -0.307 OA 
BRANCH   3   4
HETATM    4  C   UNL     1     -12.914  10.697  71.112  1.00  0.00    -0.387 A  
HETATM    5  C   UNL     1     -13.452  11.505  72.123  1.00  0.00    -0.219 A  
HETATM    6  C   UNL     1     -13.309  12.895  72.084  1.00  0.00    -0.615 A  
HETATM    7  C   UNL     1     -12.625  13.496  71.030  1.00  0.00    -0.438 A  
HETATM    8  C   UNL     1     -12.075  12.702  70.024  1.00  0.00    -0.339 A  
HETATM    9  C   UNL     1     -12.205  11.304  70.054  1.00  0.00    -0.314 A  
BRANCH   9  10
HETATM   10  O   UNL     1     -11.585  10.699  68.985  1.00  0.00    -0.275 OA 
BRANCH  10  11
HETATM   11  C   UNL     1     -10.259  10.207  69.168  1.00  0.00    -0.214 C  
BRANCH  11  12
HETATM   12  C   UNL     1      -9.678   9.771  67.816  1.00  0.00    -0.141 C  
BRANCH  12  13
HETATM   13  N   UNL     1     -10.556   9.976  66.653  1.00  0.00    -0.167 NA 
HETATM   14  H   UNL     1     -11.534   9.944  66.944  1.00  0.00     0.000 HD 
BRANCH  13  15
HETATM   15  C   UNL     1     -10.302  11.202  65.872  1.00  0.00    -0.259 C  
HETATM   16  C   UNL     1     -10.372  10.811  64.387  1.00  0.00    -0.405 C  
BRANCH  15  17
HETATM   17  C   UNL     1      -8.947  11.887  66.209  1.00  0.00    -0.157 C  
BRANCH  17  18
HETATM   18  C   UNL     1      -9.143  13.301  66.709  1.00  0.00    -0.216 A  
HETATM   19  C   UNL     1      -8.027  14.092  67.000  1.00  0.00     0.008 A  
HETATM   20  C   UNL     1      -8.180  15.308  67.679  1.00  0.00    -0.161 A  
HETATM   21  C   UNL     1      -9.456  15.805  67.974  1.00  0.00    -0.202 A  
HETATM   22  C   UNL     1     -10.417  13.800  66.988  1.00  0.00    -0.274 A  
HETATM   23  C   UNL     1     -10.572  15.051  67.595  1.00  0.00    -0.267 A  
BRANCH  20  24
HETATM   24  S   UNL     1      -6.757  16.181  68.289  1.00  0.00    -0.129 S  
HETATM   25  O   UNL     1      -5.594  15.682  67.594  1.00  0.00    -0.172 OA 
HETATM   26  N   UNL     1      -6.953  17.758  67.741  1.00  0.00    -0.184 N  
HETATM   27  O   UNL     1      -6.858  16.277  69.727  1.00  0.00    -0.183 OA 
HETATM   28  H1  UNL     1      -6.137  18.259  68.091  1.00  0.00     0.000 HD 
HETATM   29  H2  UNL     1      -7.719  18.132  67.181  1.00  0.00     0.000 HD 
ENDBRANCH  20  24
BRANCH  21  30
HETATM   30  O   UNL     1      -9.525  17.006  68.622  1.00  0.00    -0.258 OA 
HETATM   31  C   UNL     1     -10.382  18.007  68.089  1.00  0.00    -0.388 C  
ENDBRANCH  21  30
ENDBRANCH  17  18
ENDBRANCH  15  17
ENDBRANCH  13  15
ENDBRANCH  12  13
ENDBRANCH  11  12
ENDBRANCH  10  11
ENDBRANCH   9  10
ENDBRANCH   3   4
ENDBRANCH   2   3
TORSDOF 11
ENDMDL
MODEL      161
REMARK 921   NORMALIZED FREE ENERGY PREDICTED BY IDOCK:   -4.74 KCAL/MOL
REMARK 922        TOTAL FREE ENERGY PREDICTED BY IDOCK:   -9.03 KCAL/MOL
REMARK 923 INTER-LIGAND FREE ENERGY PREDICTED BY IDOCK:   -8.27 KCAL/MOL
REMARK 924 INTRA-LIGAND FREE ENERGY PREDICTED BY IDOCK:   -0.76 KCAL/MOL
REMARK 927      BINDING AFFINITY PREDICTED BY RF-SCORE:    0.00 PKD
ROOT
HETATM    1  C   UNL     1     -10.650   6.196  73.640  1.00  0.00    -0.279 C  
HETATM    2  C   UNL     1     -10.456   5.009  72.708  1.00  0.00    -0.211 C  
ENDROOT
BRANCH   2   3
HETATM    3  O   UNL     1     -10.869   5.455  71.421  1.00  0.00    -0.222 OA 
BRANCH   3   4
HETATM    4  C   UNL     1     -10.022   6.160  70.621  1.00  0.00    -0.188 A  
HETATM    5  C   UNL     1      -8.822   5.635  70.120  1.00  0.00    -0.144 A  
HETATM    6  C   UNL     1      -7.976   6.412  69.324  1.00  0.00    -0.110 A  
HETATM    7  C   UNL     1      -8.321   7.726  69.016  1.00  0.00    -0.131 A  
HETATM    8  C   UNL     1      -9.518   8.255  69.498  1.00  0.00    -0.162 A  
HETATM    9  C   UNL     1     -10.380   7.485  70.294  1.00  0.00    -0.213 A  
BRANCH   9  10
HETATM   10  O   UNL     1     -11.512   8.177  70.658  1.00  0.00    -0.278 OA 
BRANCH  10  11
HETATM   11  C   UNL     1     -11.350   9.426  71.327  1.00  0.00    -0.366 C  
BRANCH  11  12
HETATM   12  C   UNL     1     -12.384  10.432  70.802  1.00  0.00    -0.367 C  
BRANCH  12  13
HETATM   13  N   UNL     1     -12.386  10.637  69.345  1.00  0.00    -0.663 NA 
HETATM   14  H   UNL     1     -13.327  10.498  68.975  1.00  0.00     0.000 HD 
BRANCH  13  15
HETATM   15  C   UNL     1     -11.848  11.931  68.884  1.00  0.00    -0.307 C  
HETATM   16  C   UNL     1     -10.316  11.805  68.880  1.00  0.00    -0.151 C  
BRANCH  15  17
HETATM   17  C   UNL     1     -12.311  13.141  69.743  1.00  0.00    -0.164 C  
BRANCH  17  18
HETATM   18  C   UNL     1     -11.827  14.455  69.169  1.00  0.00    -0.359 A  
HETATM   19  C   UNL     1     -11.574  14.557  67.797  1.00  0.00    -0.390 A  
HETATM   20  C   UNL     1     -10.911  15.679  67.283  1.00  0.00    -0.298 A  
HETATM   21  C   UNL     1     -10.593  16.763  68.113  1.00  0.00    -0.350 A  
HETATM   22  C   UNL     1     -11.526  15.538  69.996  1.00  0.00    -0.344 A  
HETATM   23  C   UNL     1     -10.934  16.691  69.468  1.00  0.00    -0.228 A  
BRANCH  20  24
HETATM   24  S   UNL     1     -10.347  15.695  65.598  1.00  0.00    -0.409 S  
HETATM   25  O   UNL     1      -8.915  15.507  65.604  1.00  0.00    -0.130 OA 
HETATM   26  N   UNL     1     -10.972  14.288  64.923  1.00  0.00    -0.383 N  
HETATM   27  O   UNL     1     -11.016  16.766  64.898  1.00  0.00    -0.659 OA 
HETATM   28  H1  UNL     1     -10.648  14.297  63.956  1.00  0.00     0.000 HD 
HETATM   29  H2  UNL     1     -11.547  13.581  65.379  1.00  0.00     0.000 HD 
ENDBRANCH  20  24
BRANCH  21  30
HETATM   30  O   UNL     1      -9.961  17.828  67.535  1.00  0.00    -0.301 OA 
HETATM   31  C   UNL     1     -10.622  19.087  67.550  1.00  0.00    -0.461 C  
ENDBRANCH  21  30
ENDBRANCH  17  18
ENDBRANCH  15  17
ENDBRANCH  13  15
ENDBRANCH  12  13
ENDBRANCH  11  12
ENDBRANCH  10  11
ENDBRANCH   9  10
ENDBRANCH   3   4
ENDBRANCH   2   3
TORSDOF 11
ENDMDL
MODEL      162
REMARK 921   NORMALIZED FREE ENERGY PREDICTED BY IDOCK:   -4.74 KCAL/MOL
REMARK 922        TOTAL FREE ENERGY PREDICTED BY IDOCK:   -9.03 KCAL/MOL
REMARK 923 INTER-LIGAND FREE ENERGY PREDICTED BY IDOCK:   -8.55 KCAL/MOL
REMARK 924 INTRA-LIGAND FREE ENERGY PREDICTED BY IDOCK:   -0.48 KCAL/MOL
REMARK 927      BINDING AFFINITY PREDICTED BY RF-SCORE:    0.00 PKD
ROOT
HETATM    1  C   UNL     1     -11.021   6.386  68.746  1.00  0.00    -0.404 C  
HETATM    2  C   UNL     1     -10.825   5.768  70.122  1.00  0.00    -0.313 C  
ENDROOT
BRANCH   2   3
HETATM    3  O   UNL     1     -10.795   6.857  71.036  1.00  0.00    -0.231 OA 
BRANCH   3   4
HETATM    4  C   UNL     1     -11.937   7.513  71.382  1.00  0.00    -0.309 A  
HETATM    5  C   UNL     1     -13.154   6.860  71.627  1.00  0.00    -0.338 A  
HETATM    6  C   UNL     1     -14.304   7.584  71.952  1.00  0.00    -0.520 A  
HETATM    7  C   UNL     1     -14.252   8.973  72.038  1.00  0.00    -0.384 A  
HETATM    8  C   UNL     1     -13.045   9.633  71.809  1.00  0.00    -0.514 A  
HETATM    9  C   UNL     1     -11.880   8.918  71.487  1.00  0.00    -0.332 A  
BRANCH   9  10
HETATM   10  O   UNL     1     -10.793   9.743  71.313  1.00  0.00    -0.334 OA 
BRANCH  10  11
HETATM   11  C   UNL     1     -10.425  10.097  69.980  1.00  0.00    -0.274 C  
BRANCH  11  12
HETATM   12  C   UNL     1      -9.003   9.601  69.688  1.00  0.00    -0.203 C  
BRANCH  12  13
HETATM   13  N   UNL     1      -7.948  10.626  69.752  1.00  0.00    -0.370 NA 
HETATM   14  H   UNL     1      -7.108  10.235  70.180  1.00  0.00     0.000 HD 
BRANCH  13  15
HETATM   15  C   UNL     1      -7.609  11.270  68.469  1.00  0.00    -0.123 C  
HETATM   16  C   UNL     1      -6.168  10.859  68.126  1.00  0.00    -0.049 C  
BRANCH  15  17
HETATM   17  C   UNL     1      -7.762  12.818  68.488  1.00  0.00    -0.113 C  
BRANCH  17  18
HETATM   18  C   UNL     1      -8.651  13.308  67.367  1.00  0.00    -0.204 A  
HETATM   19  C   UNL     1      -8.821  14.683  67.171  1.00  0.00    -0.238 A  
HETATM   20  C   UNL     1      -9.811  15.155  66.299  1.00  0.00    -0.295 A  
HETATM   21  C   UNL     1     -10.566  14.262  65.527  1.00  0.00    -0.340 A  
HETATM   22  C   UNL     1      -9.391  12.416  66.589  1.00  0.00    -0.227 A  
HETATM   23  C   UNL     1     -10.325  12.891  65.661  1.00  0.00    -0.295 A  
BRANCH  20  24
HETATM   24  S   UNL     1     -10.213  16.885  66.250  1.00  0.00    -0.319 S  
HETATM   25  O   UNL     1     -10.851  17.231  67.498  1.00  0.00    -0.314 OA 
HETATM   26  N   UNL     1      -8.729  17.672  66.281  1.00  0.00    -0.217 N  
HETATM   27  O   UNL     1     -10.764  17.193  64.951  1.00  0.00    -0.737 OA 
HETATM   28  H1  UNL     1      -8.959  18.664  66.254  1.00  0.00     0.000 HD 
HETATM   29  H2  UNL     1      -7.801  17.250  66.320  1.00  0.00     0.000 HD 
ENDBRANCH  20  24
BRANCH  21  30
HETATM   30  O   UNL     1     -11.501  14.799  64.687  1.00  0.00    -0.394 OA 
HETATM   31  C   UNL     1     -12.620  13.997  64.331  1.00  0.00    -0.164 C  
ENDBRANCH  21  30
ENDBRANCH  17  18
ENDBRANCH  15  17
ENDBRANCH  13  15
ENDBRANCH  12  13
ENDBRANCH  11  12
ENDBRANCH  10  11
ENDBRANCH   9  10
ENDBRANCH   3   4
ENDBRANCH   2   3
TORSDOF 11
ENDMDL
MODEL      163
REMARK 921   NORMALIZED FREE ENERGY PREDICTED BY IDOCK:   -4.73 KCAL/MOL
REMARK 922        TOTAL FREE ENERGY PREDICTED BY IDOCK:   -9.02 KCAL/MOL
REMARK 923 INTER-LIGAND FREE ENERGY PREDICTED BY IDOCK:   -8.20 KCAL/MOL
REMARK 924 INTRA-LIGAND FREE ENERGY PREDICTED BY IDOCK:   -0.82 KCAL/MOL
REMARK 927      BINDING AFFINITY PREDICTED BY RF-SCORE:    0.00 PKD
ROOT
HETATM    1  C   UNL     1      -5.963   6.734  64.158  1.00  0.00    -0.035 C  
HETATM    2  C   UNL     1      -6.496   8.065  64.664  1.00  0.00    -0.056 C  
ENDROOT
BRANCH   2   3
HETATM    3  O   UNL     1      -7.909   7.917  64.733  1.00  0.00    -0.110 OA 
BRANCH   3   4
HETATM    4  C   UNL     1      -8.732   8.994  64.606  1.00  0.00    -0.135 A  
HETATM    5  C   UNL     1      -8.953   9.653  63.388  1.00  0.00    -0.246 A  
HETATM    6  C   UNL     1      -9.788  10.772  63.318  1.00  0.00    -0.394 A  
HETATM    7  C   UNL     1     -10.415  11.246  64.468  1.00  0.00    -0.396 A  
HETATM    8  C   UNL     1     -10.213  10.592  65.682  1.00  0.00    -0.319 A  
HETATM    9  C   UNL     1      -9.382   9.464  65.766  1.00  0.00    -0.239 A  
BRANCH   9  10
HETATM   10  O   UNL     1      -9.321   8.954  67.043  1.00  0.00    -0.141 OA 
BRANCH  10  11
HETATM   11  C   UNL     1     -10.549   8.674  67.714  1.00  0.00    -0.183 C  
BRANCH  11  12
HETATM   12  C   UNL     1     -10.378   8.901  69.221  1.00  0.00    -0.213 C  
BRANCH  12  13
HETATM   13  N   UNL     1     -10.145  10.295  69.630  1.00  0.00    -0.288 NA 
HETATM   14  H   UNL     1      -9.571  10.772  68.935  1.00  0.00     0.000 HD 
BRANCH  13  15
HETATM   15  C   UNL     1     -11.359  11.086  69.912  1.00  0.00    -0.287 C  
HETATM   16  C   UNL     1     -12.246  10.236  70.834  1.00  0.00    -0.465 C  
BRANCH  15  17
HETATM   17  C   UNL     1     -12.130  11.521  68.633  1.00  0.00    -0.197 C  
BRANCH  17  18
HETATM   18  C   UNL     1     -11.946  12.994  68.340  1.00  0.00    -0.309 A  
HETATM   19  C   UNL     1     -11.838  13.426  67.014  1.00  0.00    -0.443 A  
HETATM   20  C   UNL     1     -11.438  14.737  66.729  1.00  0.00    -0.338 A  
HETATM   21  C   UNL     1     -11.251  15.667  67.761  1.00  0.00    -0.297 A  
HETATM   22  C   UNL     1     -11.776  13.920  69.370  1.00  0.00    -0.367 A  
HETATM   23  C   UNL     1     -11.452  15.251  69.081  1.00  0.00    -0.330 A  
BRANCH  20  24
HETATM   24  S   UNL     1     -11.037  15.212  65.064  1.00  0.00    -0.419 S  
HETATM   25  O   UNL     1      -9.803  14.558  64.698  1.00  0.00    -0.102 OA 
HETATM   26  N   UNL     1     -12.218  14.486  64.114  1.00  0.00    -0.813 N  
HETATM   27  O   UNL     1     -11.271  16.630  64.920  1.00  0.00    -0.435 OA 
HETATM   28  H1  UNL     1     -11.988  14.758  63.159  1.00  0.00     0.000 HD 
HETATM   29  H2  UNL     1     -12.994  13.902  64.424  1.00  0.00     0.000 HD 
ENDBRANCH  20  24
BRANCH  21  30
HETATM   30  O   UNL     1     -10.876  16.932  67.403  1.00  0.00    -0.278 OA 
HETATM   31  C   UNL     1     -10.076  17.675  68.313  1.00  0.00    -0.362 C  
ENDBRANCH  21  30
ENDBRANCH  17  18
ENDBRANCH  15  17
ENDBRANCH  13  15
ENDBRANCH  12  13
ENDBRANCH  11  12
ENDBRANCH  10  11
ENDBRANCH   9  10
ENDBRANCH   3   4
ENDBRANCH   2   3
TORSDOF 11
ENDMDL
MODEL      164
REMARK 921   NORMALIZED FREE ENERGY PREDICTED BY IDOCK:   -4.73 KCAL/MOL
REMARK 922        TOTAL FREE ENERGY PREDICTED BY IDOCK:   -9.02 KCAL/MOL
REMARK 923 INTER-LIGAND FREE ENERGY PREDICTED BY IDOCK:   -7.30 KCAL/MOL
REMARK 924 INTRA-LIGAND FREE ENERGY PREDICTED BY IDOCK:   -1.72 KCAL/MOL
REMARK 927      BINDING AFFINITY PREDICTED BY RF-SCORE:    0.00 PKD
ROOT
HETATM    1  C   UNL     1     -12.046  14.208  66.699  1.00  0.00    -0.480 C  
HETATM    2  C   UNL     1     -11.902  12.810  67.281  1.00  0.00    -0.350 C  
ENDROOT
BRANCH   2   3
HETATM    3  O   UNL     1     -11.356  12.987  68.583  1.00  0.00    -0.252 OA 
BRANCH   3   4
HETATM    4  C   UNL     1     -11.926  12.392  69.667  1.00  0.00    -0.274 A  
HETATM    5  C   UNL     1     -11.970  11.002  69.846  1.00  0.00    -0.427 A  
HETATM    6  C   UNL     1     -12.592  10.441  70.965  1.00  0.00    -0.491 A  
HETATM    7  C   UNL     1     -13.178  11.266  71.923  1.00  0.00    -0.491 A  
HETATM    8  C   UNL     1     -13.130  12.650  71.762  1.00  0.00    -0.461 A  
HETATM    9  C   UNL     1     -12.503  13.227  70.646  1.00  0.00    -0.298 A  
BRANCH   9  10
HETATM   10  O   UNL     1     -12.548  14.602  70.675  1.00  0.00    -0.323 OA 
BRANCH  10  11
HETATM   11  C   UNL     1     -11.340  15.308  70.954  1.00  0.00    -0.342 C  
BRANCH  11  12
HETATM   12  C   UNL     1     -11.142  16.423  69.918  1.00  0.00    -0.310 C  
BRANCH  12  13
HETATM   13  N   UNL     1     -10.173  16.131  68.849  1.00  0.00    -0.231 NA 
HETATM   14  H   UNL     1     -10.625  15.599  68.104  1.00  0.00     0.000 HD 
BRANCH  13  15
HETATM   15  C   UNL     1      -9.478  17.303  68.283  1.00  0.00    -0.283 C  
HETATM   16  C   UNL     1     -10.508  18.073  67.442  1.00  0.00    -0.399 C  
BRANCH  15  17
HETATM   17  C   UNL     1      -8.224  16.937  67.440  1.00  0.00    -0.199 C  
BRANCH  17  18
HETATM   18  C   UNL     1      -7.576  15.658  67.923  1.00  0.00    -0.143 A  
HETATM   19  C   UNL     1      -7.810  14.463  67.234  1.00  0.00    -0.188 A  
HETATM   20  C   UNL     1      -7.416  13.239  67.790  1.00  0.00    -0.154 A  
HETATM   21  C   UNL     1      -6.683  13.200  68.984  1.00  0.00    -0.103 A  
HETATM   22  C   UNL     1      -6.834  15.625  69.104  1.00  0.00    -0.159 A  
HETATM   23  C   UNL     1      -6.373  14.408  69.618  1.00  0.00    -0.140 A  
BRANCH  20  24
HETATM   24  S   UNL     1      -7.946  11.709  67.060  1.00  0.00    -0.162 S  
HETATM   25  O   UNL     1      -6.776  10.898  66.821  1.00  0.00    -0.102 OA 
HETATM   26  N   UNL     1      -8.787  10.918  68.282  1.00  0.00    -0.134 N  
HETATM   27  O   UNL     1      -8.944  11.998  66.056  1.00  0.00    -0.145 OA 
HETATM   28  H1  UNL     1      -9.091  10.040  67.863  1.00  0.00     0.000 HD 
HETATM   29  H2  UNL     1      -8.956  11.244  69.233  1.00  0.00     0.000 HD 
ENDBRANCH  20  24
BRANCH  21  30
HETATM   30  O   UNL     1      -6.320  11.970  69.455  1.00  0.00    -0.106 OA 
HETATM   31  C   UNL     1      -5.641  11.905  70.702  1.00  0.00    -0.149 C  
ENDBRANCH  21  30
ENDBRANCH  17  18
ENDBRANCH  15  17
ENDBRANCH  13  15
ENDBRANCH  12  13
ENDBRANCH  11  12
ENDBRANCH  10  11
ENDBRANCH   9  10
ENDBRANCH   3   4
ENDBRANCH   2   3
TORSDOF 11
ENDMDL
MODEL      165
REMARK 921   NORMALIZED FREE ENERGY PREDICTED BY IDOCK:   -4.72 KCAL/MOL
REMARK 922        TOTAL FREE ENERGY PREDICTED BY IDOCK:   -9.01 KCAL/MOL
REMARK 923 INTER-LIGAND FREE ENERGY PREDICTED BY IDOCK:   -7.83 KCAL/MOL
REMARK 924 INTRA-LIGAND FREE ENERGY PREDICTED BY IDOCK:   -1.18 KCAL/MOL
REMARK 927      BINDING AFFINITY PREDICTED BY RF-SCORE:    0.00 PKD
ROOT
HETATM    1  C   UNL     1     -10.880  19.634  67.157  1.00  0.00    -0.526 C  
HETATM    2  C   UNL     1      -9.800  19.661  66.087  1.00  0.00    -0.436 C  
ENDROOT
BRANCH   2   3
HETATM    3  O   UNL     1      -9.142  18.402  66.169  1.00  0.00    -0.469 OA 
BRANCH   3   4
HETATM    4  C   UNL     1      -7.872  18.307  66.652  1.00  0.00    -0.251 A  
HETATM    5  C   UNL     1      -6.732  18.470  65.853  1.00  0.00    -0.310 A  
HETATM    6  C   UNL     1      -5.451  18.335  66.394  1.00  0.00    -0.185 A  
HETATM    7  C   UNL     1      -5.294  18.035  67.746  1.00  0.00    -0.146 A  
HETATM    8  C   UNL     1      -6.420  17.883  68.553  1.00  0.00    -0.211 A  
HETATM    9  C   UNL     1      -7.713  18.022  68.024  1.00  0.00    -0.250 A  
BRANCH   9  10
HETATM   10  O   UNL     1      -8.689  17.850  68.978  1.00  0.00    -0.157 OA 
BRANCH  10  11
HETATM   11  C   UNL     1      -9.390  16.607  69.006  1.00  0.00    -0.227 C  
BRANCH  11  12
HETATM   12  C   UNL     1     -10.549  16.690  70.007  1.00  0.00    -0.103 C  
BRANCH  12  13
HETATM   13  N   UNL     1     -10.638  15.578  70.967  1.00  0.00    -0.271 NA 
HETATM   14  H   UNL     1     -10.217  15.850  71.856  1.00  0.00     0.000 HD 
BRANCH  13  15
HETATM   15  C   UNL     1     -11.994  15.041  71.194  1.00  0.00    -0.323 C  
HETATM   16  C   UNL     1     -12.342  15.307  72.667  1.00  0.00    -0.482 C  
BRANCH  15  17
HETATM   17  C   UNL     1     -12.132  13.531  70.847  1.00  0.00    -0.301 C  
BRANCH  17  18
HETATM   18  C   UNL     1     -11.928  13.273  69.371  1.00  0.00    -0.356 A  
HETATM   19  C   UNL     1     -11.160  12.179  68.961  1.00  0.00    -0.290 A  
HETATM   20  C   UNL     1     -10.766  12.054  67.622  1.00  0.00    -0.217 A  
HETATM   21  C   UNL     1     -11.229  12.957  66.655  1.00  0.00    -0.304 A  
HETATM   22  C   UNL     1     -12.403  14.166  68.409  1.00  0.00    -0.018 A  
HETATM   23  C   UNL     1     -12.074  13.996  67.059  1.00  0.00    -0.455 A  
BRANCH  20  24
HETATM   24  S   UNL     1      -9.573  10.826  67.147  1.00  0.00    -0.162 S  
HETATM   25  O   UNL     1     -10.142  10.038  66.080  1.00  0.00    -0.254 OA 
HETATM   26  N   UNL     1      -8.323  11.695  66.434  1.00  0.00    -0.326 N  
HETATM   27  O   UNL     1      -8.991  10.262  68.343  1.00  0.00    -0.125 OA 
HETATM   28  H1  UNL     1      -7.639  10.990  66.161  1.00  0.00     0.000 HD 
HETATM   29  H2  UNL     1      -8.262  12.704  66.302  1.00  0.00     0.000 HD 
ENDBRANCH  20  24
BRANCH  21  30
HETATM   30  O   UNL     1     -10.814  12.761  65.367  1.00  0.00    -0.277 OA 
HETATM   31  C   UNL     1     -10.503  13.905  64.583  1.00  0.00    -0.396 C  
ENDBRANCH  21  30
ENDBRANCH  17  18
ENDBRANCH  15  17
ENDBRANCH  13  15
ENDBRANCH  12  13
ENDBRANCH  11  12
ENDBRANCH  10  11
ENDBRANCH   9  10
ENDBRANCH   3   4
ENDBRANCH   2   3
TORSDOF 11
ENDMDL
MODEL      166
REMARK 921   NORMALIZED FREE ENERGY PREDICTED BY IDOCK:   -4.72 KCAL/MOL
REMARK 922        TOTAL FREE ENERGY PREDICTED BY IDOCK:   -9.00 KCAL/MOL
REMARK 923 INTER-LIGAND FREE ENERGY PREDICTED BY IDOCK:   -7.09 KCAL/MOL
REMARK 924 INTRA-LIGAND FREE ENERGY PREDICTED BY IDOCK:   -1.91 KCAL/MOL
REMARK 927      BINDING AFFINITY PREDICTED BY RF-SCORE:    0.00 PKD
ROOT
HETATM    1  C   UNL     1     -11.934  13.840  65.116  1.00  0.00    -0.393 C  
HETATM    2  C   UNL     1     -11.908  12.734  66.160  1.00  0.00    -0.425 C  
ENDROOT
BRANCH   2   3
HETATM    3  O   UNL     1     -11.629  13.376  67.398  1.00  0.00    -0.314 OA 
BRANCH   3   4
HETATM    4  C   UNL     1     -11.881  12.752  68.582  1.00  0.00    -0.304 A  
HETATM    5  C   UNL     1     -11.925  11.357  68.721  1.00  0.00    -0.353 A  
HETATM    6  C   UNL     1     -12.216  10.768  69.955  1.00  0.00    -0.384 A  
HETATM    7  C   UNL     1     -12.465  11.568  71.068  1.00  0.00    -0.458 A  
HETATM    8  C   UNL     1     -12.412  12.955  70.945  1.00  0.00    -0.383 A  
HETATM    9  C   UNL     1     -12.116  13.561  69.713  1.00  0.00    -0.318 A  
BRANCH   9  10
HETATM   10  O   UNL     1     -12.097  14.934  69.798  1.00  0.00    -0.302 OA 
BRANCH  10  11
HETATM   11  C   UNL     1     -10.952  15.556  70.380  1.00  0.00    -0.339 C  
BRANCH  11  12
HETATM   12  C   UNL     1      -9.863  15.734  69.314  1.00  0.00    -0.265 C  
BRANCH  12  13
HETATM   13  N   UNL     1      -9.049  14.541  69.033  1.00  0.00    -0.368 NA 
HETATM   14  H   UNL     1      -9.652  13.763  68.761  1.00  0.00     0.000 HD 
BRANCH  13  15
HETATM   15  C   UNL     1      -7.978  14.722  68.034  1.00  0.00    -0.136 C  
HETATM   16  C   UNL     1      -8.662  15.030  66.692  1.00  0.00    -0.289 C  
BRANCH  15  17
HETATM   17  C   UNL     1      -7.026  13.498  67.911  1.00  0.00    -0.144 C  
BRANCH  17  18
HETATM   18  C   UNL     1      -7.791  12.194  67.859  1.00  0.00    -0.147 A  
HETATM   19  C   UNL     1      -7.774  11.339  68.966  1.00  0.00    -0.095 A  
HETATM   20  C   UNL     1      -8.276  10.035  68.858  1.00  0.00    -0.121 A  
HETATM   21  C   UNL     1      -8.902   9.606  67.680  1.00  0.00    -0.125 A  
HETATM   22  C   UNL     1      -8.428  11.776  66.689  1.00  0.00    -0.153 A  
HETATM   23  C   UNL     1      -8.998  10.501  66.609  1.00  0.00    -0.155 A  
BRANCH  20  24
HETATM   24  S   UNL     1      -8.013   8.861  70.166  1.00  0.00    -0.125 S  
HETATM   25  O   UNL     1      -7.561   9.584  71.331  1.00  0.00    -0.311 OA 
HETATM   26  N   UNL     1      -9.550   8.309  70.562  1.00  0.00    -0.166 N  
HETATM   27  O   UNL     1      -7.337   7.707  69.621  1.00  0.00    -0.084 OA 
HETATM   28  H1  UNL     1      -9.400   7.636  71.312  1.00  0.00     0.000 HD 
HETATM   29  H2  UNL     1     -10.439   8.586  70.144  1.00  0.00     0.000 HD 
ENDBRANCH  20  24
BRANCH  21  30
HETATM   30  O   UNL     1      -9.381   8.326  67.657  1.00  0.00    -0.136 OA 
HETATM   31  C   UNL     1     -10.600   8.080  66.968  1.00  0.00    -0.294 C  
ENDBRANCH  21  30
ENDBRANCH  17  18
ENDBRANCH  15  17
ENDBRANCH  13  15
ENDBRANCH  12  13
ENDBRANCH  11  12
ENDBRANCH  10  11
ENDBRANCH   9  10
ENDBRANCH   3   4
ENDBRANCH   2   3
TORSDOF 11
ENDMDL
MODEL      167
REMARK 921   NORMALIZED FREE ENERGY PREDICTED BY IDOCK:   -4.72 KCAL/MOL
REMARK 922        TOTAL FREE ENERGY PREDICTED BY IDOCK:   -9.00 KCAL/MOL
REMARK 923 INTER-LIGAND FREE ENERGY PREDICTED BY IDOCK:   -7.47 KCAL/MOL
REMARK 924 INTRA-LIGAND FREE ENERGY PREDICTED BY IDOCK:   -1.53 KCAL/MOL
REMARK 927      BINDING AFFINITY PREDICTED BY RF-SCORE:    0.00 PKD
ROOT
HETATM    1  C   UNL     1      -8.038   9.574  65.810  1.00  0.00    -0.111 C  
HETATM    2  C   UNL     1      -9.426   9.982  65.339  1.00  0.00    -0.250 C  
ENDROOT
BRANCH   2   3
HETATM    3  O   UNL     1      -9.705  11.221  65.978  1.00  0.00    -0.205 OA 
BRANCH   3   4
HETATM    4  C   UNL     1     -10.612  12.090  65.453  1.00  0.00    -0.278 A  
HETATM    5  C   UNL     1     -11.220  11.905  64.203  1.00  0.00    -0.446 A  
HETATM    6  C   UNL     1     -12.124  12.843  63.699  1.00  0.00    -0.611 A  
HETATM    7  C   UNL     1     -12.435  13.981  64.441  1.00  0.00    -0.326 A  
HETATM    8  C   UNL     1     -11.847  14.170  65.691  1.00  0.00    -0.377 A  
HETATM    9  C   UNL     1     -10.941  13.233  66.212  1.00  0.00    -0.284 A  
BRANCH   9  10
HETATM   10  O   UNL     1     -10.482  13.589  67.459  1.00  0.00    -0.235 OA 
BRANCH  10  11
HETATM   11  C   UNL     1     -11.364  13.436  68.570  1.00  0.00    -0.289 C  
BRANCH  11  12
HETATM   12  C   UNL     1     -11.218  12.025  69.155  1.00  0.00    -0.246 C  
BRANCH  12  13
HETATM   13  N   UNL     1      -9.851  11.479  69.161  1.00  0.00    -0.418 NA 
HETATM   14  H   UNL     1      -9.254  12.040  69.770  1.00  0.00     0.000 HD 
BRANCH  13  15
HETATM   15  C   UNL     1      -9.737  10.052  69.517  1.00  0.00    -0.233 C  
HETATM   16  C   UNL     1      -8.245   9.690  69.450  1.00  0.00    -0.132 C  
BRANCH  15  17
HETATM   17  C   UNL     1     -10.585   9.113  68.612  1.00  0.00    -0.207 C  
BRANCH  17  18
HETATM   18  C   UNL     1     -10.572   7.687  69.115  1.00  0.00    -0.195 A  
HETATM   19  C   UNL     1     -10.876   7.425  70.456  1.00  0.00    -0.259 A  
HETATM   20  C   UNL     1     -10.646   6.153  70.996  1.00  0.00    -0.246 A  
HETATM   21  C   UNL     1     -10.219   5.098  70.180  1.00  0.00    -0.278 A  
HETATM   22  C   UNL     1     -10.161   6.635  68.296  1.00  0.00    -0.170 A  
HETATM   23  C   UNL     1     -10.006   5.346  68.820  1.00  0.00    -0.235 A  
BRANCH  20  24
HETATM   24  S   UNL     1     -10.770   5.887  72.749  1.00  0.00    -0.255 S  
HETATM   25  O   UNL     1      -9.432   5.784  73.281  1.00  0.00    -0.142 OA 
HETATM   26  N   UNL     1     -11.377   7.330  73.361  1.00  0.00    -0.534 N  
HETATM   27  O   UNL     1     -11.812   4.917  72.995  1.00  0.00    -0.251 OA 
HETATM   28  H1  UNL     1     -11.448   7.177  74.366  1.00  0.00     0.000 HD 
HETATM   29  H2  UNL     1     -11.620   8.173  72.841  1.00  0.00     0.000 HD 
ENDBRANCH  20  24
BRANCH  21  30
HETATM   30  O   UNL     1     -10.032   3.882  70.777  1.00  0.00    -0.179 OA 
HETATM   31  C   UNL     1      -8.741   3.291  70.701  1.00  0.00    -0.075 C  
ENDBRANCH  21  30
ENDBRANCH  17  18
ENDBRANCH  15  17
ENDBRANCH  13  15
ENDBRANCH  12  13
ENDBRANCH  11  12
ENDBRANCH  10  11
ENDBRANCH   9  10
ENDBRANCH   3   4
ENDBRANCH   2   3
TORSDOF 11
ENDMDL
MODEL      168
REMARK 921   NORMALIZED FREE ENERGY PREDICTED BY IDOCK:   -4.72 KCAL/MOL
REMARK 922        TOTAL FREE ENERGY PREDICTED BY IDOCK:   -8.99 KCAL/MOL
REMARK 923 INTER-LIGAND FREE ENERGY PREDICTED BY IDOCK:   -8.55 KCAL/MOL
REMARK 924 INTRA-LIGAND FREE ENERGY PREDICTED BY IDOCK:   -0.44 KCAL/MOL
REMARK 927      BINDING AFFINITY PREDICTED BY RF-SCORE:    0.00 PKD
ROOT
HETATM    1  C   UNL     1     -11.474  16.091  70.019  1.00  0.00    -0.334 C  
HETATM    2  C   UNL     1     -10.980  15.797  68.611  1.00  0.00    -0.307 C  
ENDROOT
BRANCH   2   3
HETATM    3  O   UNL     1     -11.833  14.777  68.105  1.00  0.00    -0.326 OA 
BRANCH   3   4
HETATM    4  C   UNL     1     -11.656  14.274  66.852  1.00  0.00    -0.387 A  
HETATM    5  C   UNL     1     -11.265  15.059  65.758  1.00  0.00    -0.318 A  
HETATM    6  C   UNL     1     -11.124  14.497  64.486  1.00  0.00    -0.280 A  
HETATM    7  C   UNL     1     -11.371  13.139  64.293  1.00  0.00    -0.427 A  
HETATM    8  C   UNL     1     -11.747  12.347  65.376  1.00  0.00    -0.452 A  
HETATM    9  C   UNL     1     -11.888  12.896  66.660  1.00  0.00    -0.395 A  
BRANCH   9  10
HETATM   10  O   UNL     1     -12.252  11.954  67.594  1.00  0.00    -0.510 OA 
BRANCH  10  11
HETATM   11  C   UNL     1     -11.471  11.851  68.784  1.00  0.00    -0.290 C  
BRANCH  11  12
HETATM   12  C   UNL     1     -10.836  10.456  68.865  1.00  0.00    -0.236 C  
BRANCH  12  13
HETATM   13  N   UNL     1     -11.251   9.508  67.819  1.00  0.00    -0.454 NA 
HETATM   14  H   UNL     1     -11.659  10.014  67.032  1.00  0.00     0.000 HD 
BRANCH  13  15
HETATM   15  C   UNL     1     -10.200   8.590  67.339  1.00  0.00    -0.261 C  
HETATM   16  C   UNL     1      -9.699   9.142  65.996  1.00  0.00    -0.358 C  
BRANCH  15  17
HETATM   17  C   UNL     1     -10.676   7.116  67.199  1.00  0.00    -0.422 C  
BRANCH  17  18
HETATM   18  C   UNL     1     -10.306   6.289  68.410  1.00  0.00    -0.237 A  
HETATM   19  C   UNL     1     -11.088   6.370  69.568  1.00  0.00    -0.460 A  
HETATM   20  C   UNL     1     -10.637   5.800  70.766  1.00  0.00    -0.269 A  
HETATM   21  C   UNL     1      -9.457   5.045  70.797  1.00  0.00    -0.169 A  
HETATM   22  C   UNL     1      -9.137   5.525  68.435  1.00  0.00    -0.117 A  
HETATM   23  C   UNL     1      -8.729   4.891  69.613  1.00  0.00    -0.109 A  
BRANCH  20  24
HETATM   24  S   UNL     1     -11.486   6.129  72.291  1.00  0.00    -0.308 S  
HETATM   25  O   UNL     1     -11.418   4.940  73.107  1.00  0.00    -0.322 OA 
HETATM   26  N   UNL     1     -10.526   7.259  73.082  1.00  0.00    -0.302 N  
HETATM   27  O   UNL     1     -12.712   6.834  71.994  1.00  0.00    -0.301 OA 
HETATM   28  H1  UNL     1     -11.012   7.448  73.958  1.00  0.00     0.000 HD 
HETATM   29  H2  UNL     1      -9.648   7.667  72.758  1.00  0.00     0.000 HD 
ENDBRANCH  20  24
BRANCH  21  30
HETATM   30  O   UNL     1      -9.092   4.507  72.000  1.00  0.00    -0.126 OA 
HETATM   31  C   UNL     1      -8.565   3.187  72.009  1.00  0.00    -0.077 C  
ENDBRANCH  21  30
ENDBRANCH  17  18
ENDBRANCH  15  17
ENDBRANCH  13  15
ENDBRANCH  12  13
ENDBRANCH  11  12
ENDBRANCH  10  11
ENDBRANCH   9  10
ENDBRANCH   3   4
ENDBRANCH   2   3
TORSDOF 11
ENDMDL
MODEL      169
REMARK 921   NORMALIZED FREE ENERGY PREDICTED BY IDOCK:   -4.71 KCAL/MOL
REMARK 922        TOTAL FREE ENERGY PREDICTED BY IDOCK:   -8.99 KCAL/MOL
REMARK 923 INTER-LIGAND FREE ENERGY PREDICTED BY IDOCK:   -7.93 KCAL/MOL
REMARK 924 INTRA-LIGAND FREE ENERGY PREDICTED BY IDOCK:   -1.06 KCAL/MOL
REMARK 927      BINDING AFFINITY PREDICTED BY RF-SCORE:    0.00 PKD
ROOT
HETATM    1  C   UNL     1     -11.936  13.872  64.703  1.00  0.00    -0.443 C  
HETATM    2  C   UNL     1     -12.556  14.204  66.052  1.00  0.00    -0.375 C  
ENDROOT
BRANCH   2   3
HETATM    3  O   UNL     1     -11.474  14.252  66.975  1.00  0.00    -0.328 OA 
BRANCH   3   4
HETATM    4  C   UNL     1     -10.554  15.255  66.922  1.00  0.00    -0.304 A  
HETATM    5  C   UNL     1     -10.893  16.613  66.997  1.00  0.00    -0.091 A  
HETATM    6  C   UNL     1      -9.911  17.603  66.910  1.00  0.00    -0.306 A  
HETATM    7  C   UNL     1      -8.574  17.247  66.749  1.00  0.00    -0.275 A  
HETATM    8  C   UNL     1      -8.223  15.899  66.686  1.00  0.00    -0.317 A  
HETATM    9  C   UNL     1      -9.199  14.893  66.777  1.00  0.00    -0.259 A  
BRANCH   9  10
HETATM   10  O   UNL     1      -8.655  13.631  66.707  1.00  0.00    -0.156 OA 
BRANCH  10  11
HETATM   11  C   UNL     1      -8.271  12.997  67.926  1.00  0.00    -0.166 C  
BRANCH  11  12
HETATM   12  C   UNL     1      -9.302  11.923  68.297  1.00  0.00    -0.193 C  
BRANCH  12  13
HETATM   13  N   UNL     1     -10.299  12.321  69.304  1.00  0.00    -0.402 NA 
HETATM   14  H   UNL     1     -10.512  13.315  69.210  1.00  0.00     0.000 HD 
BRANCH  13  15
HETATM   15  C   UNL     1     -11.548  11.536  69.308  1.00  0.00    -0.322 C  
HETATM   16  C   UNL     1     -12.291  11.880  70.608  1.00  0.00    -0.405 C  
BRANCH  15  17
HETATM   17  C   UNL     1     -11.322  10.003  69.178  1.00  0.00    -0.146 C  
BRANCH  17  18
HETATM   18  C   UNL     1     -11.146   9.345  70.528  1.00  0.00    -0.330 A  
HETATM   19  C   UNL     1      -9.864   9.227  71.077  1.00  0.00    -0.355 A  
HETATM   20  C   UNL     1      -9.650   8.423  72.204  1.00  0.00    -0.297 A  
HETATM   21  C   UNL     1     -10.728   7.819  72.865  1.00  0.00    -0.385 A  
HETATM   22  C   UNL     1     -12.224   8.757  71.192  1.00  0.00    -0.284 A  
HETATM   23  C   UNL     1     -12.018   8.018  72.363  1.00  0.00    -0.405 A  
BRANCH  20  24
HETATM   24  S   UNL     1      -7.997   8.053  72.741  1.00  0.00    -0.158 S  
HETATM   25  O   UNL     1      -7.102   8.999  72.119  1.00  0.00    -0.320 OA 
HETATM   26  N   UNL     1      -7.980   8.441  74.376  1.00  0.00    -0.248 N  
HETATM   27  O   UNL     1      -7.811   6.621  72.703  1.00  0.00    -0.101 OA 
HETATM   28  H1  UNL     1      -7.032   8.229  74.684  1.00  0.00     0.000 HD 
HETATM   29  H2  UNL     1      -8.748   8.809  74.937  1.00  0.00     0.000 HD 
ENDBRANCH  20  24
BRANCH  21  30
HETATM   30  O   UNL     1     -10.441   7.063  73.967  1.00  0.00    -0.366 OA 
HETATM   31  C   UNL     1     -10.747   5.675  73.925  1.00  0.00    -0.193 C  
ENDBRANCH  21  30
ENDBRANCH  17  18
ENDBRANCH  15  17
ENDBRANCH  13  15
ENDBRANCH  12  13
ENDBRANCH  11  12
ENDBRANCH  10  11
ENDBRANCH   9  10
ENDBRANCH   3   4
ENDBRANCH   2   3
TORSDOF 11
ENDMDL
MODEL      170
REMARK 921   NORMALIZED FREE ENERGY PREDICTED BY IDOCK:   -4.71 KCAL/MOL
REMARK 922        TOTAL FREE ENERGY PREDICTED BY IDOCK:   -8.99 KCAL/MOL
REMARK 923 INTER-LIGAND FREE ENERGY PREDICTED BY IDOCK:   -8.27 KCAL/MOL
REMARK 924 INTRA-LIGAND FREE ENERGY PREDICTED BY IDOCK:   -0.71 KCAL/MOL
REMARK 927      BINDING AFFINITY PREDICTED BY RF-SCORE:    0.00 PKD
ROOT
HETATM    1  C   UNL     1     -11.904  15.445  69.458  1.00  0.00    -0.370 C  
HETATM    2  C   UNL     1     -11.074  16.553  70.087  1.00  0.00    -0.182 C  
ENDROOT
BRANCH   2   3
HETATM    3  O   UNL     1      -9.984  16.773  69.200  1.00  0.00    -0.267 OA 
BRANCH   3   4
HETATM    4  C   UNL     1      -9.981  17.834  68.346  1.00  0.00    -0.362 A  
HETATM    5  C   UNL     1      -9.674  19.142  68.746  1.00  0.00    -0.491 A  
HETATM    6  C   UNL     1      -9.712  20.200  67.834  1.00  0.00    -0.499 A  
HETATM    7  C   UNL     1     -10.057  19.962  66.505  1.00  0.00    -0.607 A  
HETATM    8  C   UNL     1     -10.353  18.664  66.092  1.00  0.00    -0.481 A  
HETATM    9  C   UNL     1     -10.313  17.591  66.997  1.00  0.00    -0.324 A  
BRANCH   9  10
HETATM   10  O   UNL     1     -10.622  16.391  66.398  1.00  0.00    -0.301 OA 
BRANCH  10  11
HETATM   11  C   UNL     1      -9.566  15.660  65.774  1.00  0.00    -0.326 C  
BRANCH  11  12
HETATM   12  C   UNL     1     -10.135  14.405  65.099  1.00  0.00    -0.326 C  
BRANCH  12  13
HETATM   13  N   UNL     1      -9.751  13.125  65.714  1.00  0.00    -0.454 NA 
HETATM   14  H   UNL     1      -8.735  13.042  65.743  1.00  0.00     0.000 HD 
BRANCH  13  15
HETATM   15  C   UNL     1     -10.316  12.868  67.053  1.00  0.00    -0.242 C  
HETATM   16  C   UNL     1      -9.141  12.511  67.976  1.00  0.00    -0.200 C  
BRANCH  15  17
HETATM   17  C   UNL     1     -11.401  11.753  67.069  1.00  0.00    -0.387 C  
BRANCH  17  18
HETATM   18  C   UNL     1     -10.787  10.371  67.056  1.00  0.00    -0.269 A  
HETATM   19  C   UNL     1     -10.990   9.515  68.144  1.00  0.00    -0.144 A  
HETATM   20  C   UNL     1     -10.248   8.333  68.261  1.00  0.00    -0.208 A  
HETATM   21  C   UNL     1      -9.378   7.933  67.238  1.00  0.00    -0.148 A  
HETATM   22  C   UNL     1      -9.932   9.969  66.028  1.00  0.00    -0.334 A  
HETATM   23  C   UNL     1      -9.251   8.749  66.109  1.00  0.00    -0.273 A  
BRANCH  20  24
HETATM   24  S   UNL     1     -10.301   7.384  69.762  1.00  0.00    -0.228 S  
HETATM   25  O   UNL     1     -10.794   6.065  69.440  1.00  0.00    -0.293 OA 
HETATM   26  N   UNL     1      -8.690   7.159  70.185  1.00  0.00    -0.140 N  
HETATM   27  O   UNL     1     -10.845   8.213  70.812  1.00  0.00    -0.220 OA 
HETATM   28  H1  UNL     1      -8.721   6.615  71.046  1.00  0.00     0.000 HD 
HETATM   29  H2  UNL     1      -7.864   7.494  69.690  1.00  0.00     0.000 HD 
ENDBRANCH  20  24
BRANCH  21  30
HETATM   30  O   UNL     1      -8.702   6.758  67.416  1.00  0.00    -0.119 OA 
HETATM   31  C   UNL     1      -7.469   6.585  66.729  1.00  0.00    -0.079 C  
ENDBRANCH  21  30
ENDBRANCH  17  18
ENDBRANCH  15  17
ENDBRANCH  13  15
ENDBRANCH  12  13
ENDBRANCH  11  12
ENDBRANCH  10  11
ENDBRANCH   9  10
ENDBRANCH   3   4
ENDBRANCH   2   3
TORSDOF 11
ENDMDL
MODEL      171
REMARK 921   NORMALIZED FREE ENERGY PREDICTED BY IDOCK:   -4.71 KCAL/MOL
REMARK 922        TOTAL FREE ENERGY PREDICTED BY IDOCK:   -8.98 KCAL/MOL
REMARK 923 INTER-LIGAND FREE ENERGY PREDICTED BY IDOCK:   -8.33 KCAL/MOL
REMARK 924 INTRA-LIGAND FREE ENERGY PREDICTED BY IDOCK:   -0.65 KCAL/MOL
REMARK 927      BINDING AFFINITY PREDICTED BY RF-SCORE:    0.00 PKD
ROOT
HETATM    1  C   UNL     1      -6.855  15.183  69.044  1.00  0.00    -0.122 C  
HETATM    2  C   UNL     1      -6.992  16.171  67.895  1.00  0.00    -0.135 C  
ENDROOT
BRANCH   2   3
HETATM    3  O   UNL     1      -7.322  17.419  68.493  1.00  0.00    -0.217 OA 
BRANCH   3   4
HETATM    4  C   UNL     1      -8.290  18.215  67.960  1.00  0.00    -0.261 A  
HETATM    5  C   UNL     1      -8.013  19.401  67.265  1.00  0.00    -0.292 A  
HETATM    6  C   UNL     1      -9.046  20.196  66.762  1.00  0.00    -0.453 A  
HETATM    7  C   UNL     1     -10.373  19.813  66.946  1.00  0.00    -0.601 A  
HETATM    8  C   UNL     1     -10.660  18.630  67.625  1.00  0.00    -0.458 A  
HETATM    9  C   UNL     1      -9.633  17.819  68.131  1.00  0.00    -0.303 A  
BRANCH   9  10
HETATM   10  O   UNL     1     -10.117  16.692  68.755  1.00  0.00    -0.240 OA 
BRANCH  10  11
HETATM   11  C   UNL     1     -11.365  16.162  68.311  1.00  0.00    -0.316 C  
BRANCH  11  12
HETATM   12  C   UNL     1     -11.209  14.669  67.994  1.00  0.00    -0.293 C  
BRANCH  12  13
HETATM   13  N   UNL     1     -12.364  13.823  68.336  1.00  0.00    -0.392 NA 
HETATM   14  H   UNL     1     -12.758  13.411  67.490  1.00  0.00     0.000 HD 
BRANCH  13  15
HETATM   15  C   UNL     1     -12.107  12.771  69.338  1.00  0.00    -0.192 C  
HETATM   16  C   UNL     1     -12.040  13.462  70.709  1.00  0.00    -0.333 C  
BRANCH  15  17
HETATM   17  C   UNL     1     -10.819  11.946  69.060  1.00  0.00    -0.235 C  
BRANCH  17  18
HETATM   18  C   UNL     1     -11.036  10.468  69.299  1.00  0.00    -0.298 A  
HETATM   19  C   UNL     1     -11.686  10.045  70.463  1.00  0.00    -0.400 A  
HETATM   20  C   UNL     1     -11.692   8.689  70.816  1.00  0.00    -0.210 A  
HETATM   21  C   UNL     1     -11.150   7.725  69.955  1.00  0.00    -0.136 A  
HETATM   22  C   UNL     1     -10.509   9.510  68.432  1.00  0.00    -0.261 A  
HETATM   23  C   UNL     1     -10.585   8.149  68.747  1.00  0.00    -0.149 A  
BRANCH  20  24
HETATM   24  S   UNL     1     -12.272   8.180  72.416  1.00  0.00    -0.274 S  
HETATM   25  O   UNL     1     -13.237   9.152  72.872  1.00  0.00    -0.312 OA 
HETATM   26  N   UNL     1     -13.161   6.783  72.126  1.00  0.00    -0.549 N  
HETATM   27  O   UNL     1     -11.141   7.739  73.198  1.00  0.00    -0.409 OA 
HETATM   28  H1  UNL     1     -13.494   6.491  73.044  1.00  0.00     0.000 HD 
HETATM   29  H2  UNL     1     -13.330   6.327  71.230  1.00  0.00     0.000 HD 
ENDBRANCH  20  24
BRANCH  21  30
HETATM   30  O   UNL     1     -11.208   6.421  70.360  1.00  0.00    -0.314 OA 
HETATM   31  C   UNL     1     -10.759   5.419  69.457  1.00  0.00    -0.179 C  
ENDBRANCH  21  30
ENDBRANCH  17  18
ENDBRANCH  15  17
ENDBRANCH  13  15
ENDBRANCH  12  13
ENDBRANCH  11  12
ENDBRANCH  10  11
ENDBRANCH   9  10
ENDBRANCH   3   4
ENDBRANCH   2   3
TORSDOF 11
ENDMDL
MODEL      172
REMARK 921   NORMALIZED FREE ENERGY PREDICTED BY IDOCK:   -4.71 KCAL/MOL
REMARK 922        TOTAL FREE ENERGY PREDICTED BY IDOCK:   -8.98 KCAL/MOL
REMARK 923 INTER-LIGAND FREE ENERGY PREDICTED BY IDOCK:   -7.71 KCAL/MOL
REMARK 924 INTRA-LIGAND FREE ENERGY PREDICTED BY IDOCK:   -1.26 KCAL/MOL
REMARK 927      BINDING AFFINITY PREDICTED BY RF-SCORE:    0.00 PKD
ROOT
HETATM    1  C   UNL     1     -10.860   5.724  66.793  1.00  0.00    -0.327 C  
HETATM    2  C   UNL     1     -10.202   5.938  68.148  1.00  0.00    -0.184 C  
ENDROOT
BRANCH   2   3
HETATM    3  O   UNL     1     -10.818   7.095  68.700  1.00  0.00    -0.187 OA 
BRANCH   3   4
HETATM    4  C   UNL     1     -10.942   7.246  70.047  1.00  0.00    -0.253 A  
HETATM    5  C   UNL     1     -11.343   6.210  70.903  1.00  0.00    -0.355 A  
HETATM    6  C   UNL     1     -11.481   6.427  72.277  1.00  0.00    -0.339 A  
HETATM    7  C   UNL     1     -11.217   7.685  72.814  1.00  0.00    -0.431 A  
HETATM    8  C   UNL     1     -10.805   8.719  71.975  1.00  0.00    -0.428 A  
HETATM    9  C   UNL     1     -10.658   8.515  70.594  1.00  0.00    -0.209 A  
BRANCH   9  10
HETATM   10  O   UNL     1     -10.231   9.649  69.941  1.00  0.00    -0.212 OA 
BRANCH  10  11
HETATM   11  C   UNL     1      -8.838   9.956  69.967  1.00  0.00    -0.160 C  
BRANCH  11  12
HETATM   12  C   UNL     1      -8.179   9.479  68.666  1.00  0.00    -0.112 C  
BRANCH  12  13
HETATM   13  N   UNL     1      -8.250  10.421  67.537  1.00  0.00    -0.114 NA 
HETATM   14  H   UNL     1      -7.462  10.270  66.907  1.00  0.00     0.000 HD 
BRANCH  13  15
HETATM   15  C   UNL     1      -9.514  10.410  66.777  1.00  0.00    -0.166 C  
HETATM   16  C   UNL     1      -9.487   9.164  65.878  1.00  0.00    -0.326 C  
BRANCH  15  17
HETATM   17  C   UNL     1      -9.753  11.701  65.943  1.00  0.00    -0.260 C  
BRANCH  17  18
HETATM   18  C   UNL     1     -10.347  12.810  66.783  1.00  0.00    -0.248 A  
HETATM   19  C   UNL     1      -9.955  14.133  66.556  1.00  0.00    -0.289 A  
HETATM   20  C   UNL     1     -10.309  15.140  67.463  1.00  0.00    -0.242 A  
HETATM   21  C   UNL     1     -11.153  14.860  68.546  1.00  0.00    -0.266 A  
HETATM   22  C   UNL     1     -11.199  12.530  67.852  1.00  0.00    -0.312 A  
HETATM   23  C   UNL     1     -11.616  13.551  68.713  1.00  0.00    -0.362 A  
BRANCH  20  24
HETATM   24  S   UNL     1      -9.593  16.761  67.330  1.00  0.00    -0.240 S  
HETATM   25  O   UNL     1      -9.245  16.984  65.947  1.00  0.00    -0.504 OA 
HETATM   26  N   UNL     1     -10.863  17.818  67.639  1.00  0.00    -0.312 N  
HETATM   27  O   UNL     1      -8.679  16.953  68.432  1.00  0.00    -0.226 OA 
HETATM   28  H1  UNL     1     -10.452  18.748  67.563  1.00  0.00     0.000 HD 
HETATM   29  H2  UNL     1     -11.831  17.582  67.856  1.00  0.00     0.000 HD 
ENDBRANCH  20  24
BRANCH  21  30
HETATM   30  O   UNL     1     -11.466  15.898  69.379  1.00  0.00    -0.317 OA 
HETATM   31  C   UNL     1     -12.528  15.715  70.306  1.00  0.00    -0.334 C  
ENDBRANCH  21  30
ENDBRANCH  17  18
ENDBRANCH  15  17
ENDBRANCH  13  15
ENDBRANCH  12  13
ENDBRANCH  11  12
ENDBRANCH  10  11
ENDBRANCH   9  10
ENDBRANCH   3   4
ENDBRANCH   2   3
TORSDOF 11
ENDMDL
MODEL      173
REMARK 921   NORMALIZED FREE ENERGY PREDICTED BY IDOCK:   -4.71 KCAL/MOL
REMARK 922        TOTAL FREE ENERGY PREDICTED BY IDOCK:   -8.98 KCAL/MOL
REMARK 923 INTER-LIGAND FREE ENERGY PREDICTED BY IDOCK:   -8.59 KCAL/MOL
REMARK 924 INTRA-LIGAND FREE ENERGY PREDICTED BY IDOCK:   -0.38 KCAL/MOL
REMARK 927      BINDING AFFINITY PREDICTED BY RF-SCORE:    0.00 PKD
ROOT
HETATM    1  C   UNL     1      -8.850   9.849  63.630  1.00  0.00    -0.256 C  
HETATM    2  C   UNL     1      -9.406  10.005  65.037  1.00  0.00    -0.256 C  
ENDROOT
BRANCH   2   3
HETATM    3  O   UNL     1      -9.206  11.369  65.385  1.00  0.00    -0.210 OA 
BRANCH   3   4
HETATM    4  C   UNL     1     -10.259  12.225  65.493  1.00  0.00    -0.269 A  
HETATM    5  C   UNL     1     -10.588  13.167  64.508  1.00  0.00    -0.425 A  
HETATM    6  C   UNL     1     -11.665  14.041  64.682  1.00  0.00    -0.417 A  
HETATM    7  C   UNL     1     -12.429  13.983  65.845  1.00  0.00    -0.513 A  
HETATM    8  C   UNL     1     -12.120  13.041  66.826  1.00  0.00    -0.366 A  
HETATM    9  C   UNL     1     -11.045  12.154  66.662  1.00  0.00    -0.306 A  
BRANCH   9  10
HETATM   10  O   UNL     1     -10.910  11.295  67.730  1.00  0.00    -0.205 OA 
BRANCH  10  11
HETATM   11  C   UNL     1     -11.909  11.325  68.747  1.00  0.00    -0.329 C  
BRANCH  11  12
HETATM   12  C   UNL     1     -11.634  10.220  69.775  1.00  0.00    -0.227 C  
BRANCH  12  13
HETATM   13  N   UNL     1     -12.806   9.751  70.532  1.00  0.00    -0.545 NA 
HETATM   14  H   UNL     1     -13.471   9.303  69.902  1.00  0.00     0.000 HD 
BRANCH  13  15
HETATM   15  C   UNL     1     -12.513   8.863  71.672  1.00  0.00    -0.344 C  
HETATM   16  C   UNL     1     -11.025   9.043  72.012  1.00  0.00    -0.355 C  
BRANCH  15  17
HETATM   17  C   UNL     1     -12.851   7.369  71.402  1.00  0.00    -0.408 C  
BRANCH  17  18
HETATM   18  C   UNL     1     -11.617   6.569  71.047  1.00  0.00    -0.405 A  
HETATM   19  C   UNL     1     -11.165   6.549  69.723  1.00  0.00    -0.456 A  
HETATM   20  C   UNL     1     -10.175   5.640  69.328  1.00  0.00    -0.239 A  
HETATM   21  C   UNL     1      -9.543   4.820  70.272  1.00  0.00    -0.199 A  
HETATM   22  C   UNL     1     -10.979   5.765  71.992  1.00  0.00    -0.317 A  
HETATM   23  C   UNL     1      -9.936   4.913  71.611  1.00  0.00    -0.255 A  
BRANCH  20  24
HETATM   24  S   UNL     1      -9.792   5.420  67.607  1.00  0.00    -0.161 S  
HETATM   25  O   UNL     1      -9.857   4.009  67.311  1.00  0.00    -0.189 OA 
HETATM   26  N   UNL     1     -11.092   6.101  66.788  1.00  0.00    -0.725 N  
HETATM   27  O   UNL     1      -8.667   6.263  67.274  1.00  0.00    -0.107 OA 
HETATM   28  H1  UNL     1     -10.873   5.975  65.800  1.00  0.00     0.000 HD 
HETATM   29  H2  UNL     1     -11.919   6.543  67.189  1.00  0.00     0.000 HD 
ENDBRANCH  20  24
BRANCH  21  30
HETATM   30  O   UNL     1      -8.574   3.971  69.813  1.00  0.00    -0.059 OA 
HETATM   31  C   UNL     1      -7.232   4.437  69.790  1.00  0.00    -0.050 C  
ENDBRANCH  21  30
ENDBRANCH  17  18
ENDBRANCH  15  17
ENDBRANCH  13  15
ENDBRANCH  12  13
ENDBRANCH  11  12
ENDBRANCH  10  11
ENDBRANCH   9  10
ENDBRANCH   3   4
ENDBRANCH   2   3
TORSDOF 11
ENDMDL
MODEL      174
REMARK 921   NORMALIZED FREE ENERGY PREDICTED BY IDOCK:   -4.70 KCAL/MOL
REMARK 922        TOTAL FREE ENERGY PREDICTED BY IDOCK:   -8.97 KCAL/MOL
REMARK 923 INTER-LIGAND FREE ENERGY PREDICTED BY IDOCK:   -8.59 KCAL/MOL
REMARK 924 INTRA-LIGAND FREE ENERGY PREDICTED BY IDOCK:   -0.39 KCAL/MOL
REMARK 927      BINDING AFFINITY PREDICTED BY RF-SCORE:    0.00 PKD
ROOT
HETATM    1  C   UNL     1      -8.488   7.950  74.261  1.00  0.00    -0.278 C  
HETATM    2  C   UNL     1      -8.037   8.328  72.858  1.00  0.00    -0.150 C  
ENDROOT
BRANCH   2   3
HETATM    3  O   UNL     1      -9.188   8.856  72.210  1.00  0.00    -0.376 OA 
BRANCH   3   4
HETATM    4  C   UNL     1      -9.954   8.075  71.399  1.00  0.00    -0.178 A  
HETATM    5  C   UNL     1     -11.085   7.379  71.849  1.00  0.00    -0.276 A  
HETATM    6  C   UNL     1     -11.821   6.568  70.981  1.00  0.00    -0.390 A  
HETATM    7  C   UNL     1     -11.436   6.446  69.647  1.00  0.00    -0.446 A  
HETATM    8  C   UNL     1     -10.321   7.144  69.185  1.00  0.00    -0.205 A  
HETATM    9  C   UNL     1      -9.575   7.965  70.045  1.00  0.00    -0.168 A  
BRANCH   9  10
HETATM   10  O   UNL     1      -8.524   8.577  69.401  1.00  0.00    -0.123 OA 
BRANCH  10  11
HETATM   11  C   UNL     1      -7.627   7.759  68.652  1.00  0.00    -0.105 C  
BRANCH  11  12
HETATM   12  C   UNL     1      -7.157   8.517  67.403  1.00  0.00    -0.080 C  
BRANCH  12  13
HETATM   13  N   UNL     1      -7.919   8.247  66.174  1.00  0.00    -0.097 NA 
HETATM   14  H   UNL     1      -8.907   8.122  66.396  1.00  0.00     0.000 HD 
BRANCH  13  15
HETATM   15  C   UNL     1      -7.766   9.245  65.098  1.00  0.00    -0.108 C  
HETATM   16  C   UNL     1      -7.208  10.523  65.746  1.00  0.00    -0.135 C  
BRANCH  15  17
HETATM   17  C   UNL     1      -9.083   9.536  64.325  1.00  0.00    -0.220 C  
BRANCH  17  18
HETATM   18  C   UNL     1     -10.062  10.330  65.161  1.00  0.00    -0.355 A  
HETATM   19  C   UNL     1     -10.707  11.439  64.603  1.00  0.00    -0.378 A  
HETATM   20  C   UNL     1     -11.431  12.319  65.418  1.00  0.00    -0.354 A  
HETATM   21  C   UNL     1     -11.616  12.042  66.779  1.00  0.00    -0.321 A  
HETATM   22  C   UNL     1     -10.257  10.043  66.513  1.00  0.00    -0.291 A  
HETATM   23  C   UNL     1     -11.045  10.880  67.310  1.00  0.00    -0.350 A  
BRANCH  20  24
HETATM   24  S   UNL     1     -12.020  13.865  64.770  1.00  0.00    -0.430 S  
HETATM   25  O   UNL     1     -10.957  14.834  64.890  1.00  0.00    -0.382 OA 
HETATM   26  N   UNL     1     -12.189  13.601  63.118  1.00  0.00    -1.046 N  
HETATM   27  O   UNL     1     -13.366  14.082  65.246  1.00  0.00    -0.741 OA 
HETATM   28  H1  UNL     1     -12.526  14.488  62.746  1.00  0.00     0.000 HD 
HETATM   29  H2  UNL     1     -11.996  12.743  62.602  1.00  0.00     0.000 HD 
ENDBRANCH  20  24
BRANCH  21  30
HETATM   30  O   UNL     1     -12.348  12.939  67.506  1.00  0.00    -0.249 OA 
HETATM   31  C   UNL     1     -11.719  13.580  68.608  1.00  0.00    -0.354 C  
ENDBRANCH  21  30
ENDBRANCH  17  18
ENDBRANCH  15  17
ENDBRANCH  13  15
ENDBRANCH  12  13
ENDBRANCH  11  12
ENDBRANCH  10  11
ENDBRANCH   9  10
ENDBRANCH   3   4
ENDBRANCH   2   3
TORSDOF 11
ENDMDL
MODEL      175
REMARK 921   NORMALIZED FREE ENERGY PREDICTED BY IDOCK:   -4.70 KCAL/MOL
REMARK 922        TOTAL FREE ENERGY PREDICTED BY IDOCK:   -8.97 KCAL/MOL
REMARK 923 INTER-LIGAND FREE ENERGY PREDICTED BY IDOCK:   -8.15 KCAL/MOL
REMARK 924 INTRA-LIGAND FREE ENERGY PREDICTED BY IDOCK:   -0.82 KCAL/MOL
REMARK 927      BINDING AFFINITY PREDICTED BY RF-SCORE:    0.00 PKD
ROOT
HETATM    1  C   UNL     1     -10.465  16.071  66.790  1.00  0.00    -0.308 C  
HETATM    2  C   UNL     1     -11.061  15.236  67.912  1.00  0.00    -0.321 C  
ENDROOT
BRANCH   2   3
HETATM    3  O   UNL     1     -12.149  14.526  67.333  1.00  0.00    -0.380 OA 
BRANCH   3   4
HETATM    4  C   UNL     1     -11.962  13.721  66.251  1.00  0.00    -0.429 A  
HETATM    5  C   UNL     1     -12.386  14.059  64.959  1.00  0.00    -0.458 A  
HETATM    6  C   UNL     1     -12.194  13.183  63.887  1.00  0.00    -0.503 A  
HETATM    7  C   UNL     1     -11.571  11.954  64.096  1.00  0.00    -0.434 A  
HETATM    8  C   UNL     1     -11.133  11.611  65.374  1.00  0.00    -0.299 A  
HETATM    9  C   UNL     1     -11.316  12.484  66.459  1.00  0.00    -0.334 A  
BRANCH   9  10
HETATM   10  O   UNL     1     -10.806  11.974  67.631  1.00  0.00    -0.215 OA 
BRANCH  10  11
HETATM   11  C   UNL     1     -11.380  10.775  68.148  1.00  0.00    -0.308 C  
BRANCH  11  12
HETATM   12  C   UNL     1     -11.629  10.929  69.654  1.00  0.00    -0.322 C  
BRANCH  12  13
HETATM   13  N   UNL     1     -12.847  10.281  70.165  1.00  0.00    -0.562 NA 
HETATM   14  H   UNL     1     -13.423   9.958  69.387  1.00  0.00     0.000 HD 
BRANCH  13  15
HETATM   15  C   UNL     1     -12.628   9.180  71.123  1.00  0.00    -0.233 C  
HETATM   16  C   UNL     1     -13.659   9.352  72.250  1.00  0.00    -0.532 C  
BRANCH  15  17
HETATM   17  C   UNL     1     -11.181   9.123  71.688  1.00  0.00    -0.447 C  
BRANCH  17  18
HETATM   18  C   UNL     1     -10.653   7.707  71.739  1.00  0.00    -0.250 A  
HETATM   19  C   UNL     1      -9.920   7.203  70.660  1.00  0.00    -0.195 A  
HETATM   20  C   UNL     1      -9.624   5.836  70.583  1.00  0.00    -0.174 A  
HETATM   21  C   UNL     1      -9.956   4.974  71.636  1.00  0.00    -0.187 A  
HETATM   22  C   UNL     1     -10.972   6.854  72.797  1.00  0.00    -0.315 A  
HETATM   23  C   UNL     1     -10.608   5.504  72.755  1.00  0.00    -0.266 A  
BRANCH  20  24
HETATM   24  S   UNL     1      -8.937   5.148  69.096  1.00  0.00    -0.102 S  
HETATM   25  O   UNL     1      -8.359   6.227  68.330  1.00  0.00    -0.114 OA 
HETATM   26  N   UNL     1      -7.629   4.227  69.613  1.00  0.00    -0.053 N  
HETATM   27  O   UNL     1      -9.872   4.188  68.557  1.00  0.00    -0.121 OA 
HETATM   28  H1  UNL     1      -7.235   3.833  68.759  1.00  0.00     0.000 HD 
HETATM   29  H2  UNL     1      -7.302   4.093  70.569  1.00  0.00     0.000 HD 
ENDBRANCH  20  24
BRANCH  21  30
HETATM   30  O   UNL     1      -9.620   3.656  71.495  1.00  0.00    -0.142 OA 
HETATM   31  C   UNL     1     -10.230   2.714  72.367  1.00  0.00    -0.145 C  
ENDBRANCH  21  30
ENDBRANCH  17  18
ENDBRANCH  15  17
ENDBRANCH  13  15
ENDBRANCH  12  13
ENDBRANCH  11  12
ENDBRANCH  10  11
ENDBRANCH   9  10
ENDBRANCH   3   4
ENDBRANCH   2   3
TORSDOF 11
ENDMDL
MODEL      176
REMARK 921   NORMALIZED FREE ENERGY PREDICTED BY IDOCK:   -4.70 KCAL/MOL
REMARK 922        TOTAL FREE ENERGY PREDICTED BY IDOCK:   -8.97 KCAL/MOL
REMARK 923 INTER-LIGAND FREE ENERGY PREDICTED BY IDOCK:   -7.55 KCAL/MOL
REMARK 924 INTRA-LIGAND FREE ENERGY PREDICTED BY IDOCK:   -1.42 KCAL/MOL
REMARK 927      BINDING AFFINITY PREDICTED BY RF-SCORE:    0.00 PKD
ROOT
HETATM    1  C   UNL     1      -7.166   9.512  63.663  1.00  0.00    -0.106 C  
HETATM    2  C   UNL     1      -8.660   9.796  63.673  1.00  0.00    -0.201 C  
ENDROOT
BRANCH   2   3
HETATM    3  O   UNL     1      -8.827  10.962  64.471  1.00  0.00    -0.162 OA 
BRANCH   3   4
HETATM    4  C   UNL     1      -9.987  11.675  64.433  1.00  0.00    -0.262 A  
HETATM    5  C   UNL     1     -10.889  11.619  63.361  1.00  0.00    -0.453 A  
HETATM    6  C   UNL     1     -12.052  12.393  63.361  1.00  0.00    -0.620 A  
HETATM    7  C   UNL     1     -12.330  13.235  64.436  1.00  0.00    -0.410 A  
HETATM    8  C   UNL     1     -11.447  13.290  65.513  1.00  0.00    -0.335 A  
HETATM    9  C   UNL     1     -10.277  12.514  65.529  1.00  0.00    -0.275 A  
BRANCH   9  10
HETATM   10  O   UNL     1      -9.545  12.697  66.680  1.00  0.00    -0.236 OA 
BRANCH  10  11
HETATM   11  C   UNL     1      -9.005  13.993  66.935  1.00  0.00    -0.227 C  
BRANCH  11  12
HETATM   12  C   UNL     1      -9.617  14.564  68.220  1.00  0.00    -0.212 C  
BRANCH  12  13
HETATM   13  N   UNL     1     -10.257  13.582  69.110  1.00  0.00    -0.424 NA 
HETATM   14  H   UNL     1      -9.808  13.595  70.026  1.00  0.00     0.000 HD 
BRANCH  13  15
HETATM   15  C   UNL     1     -11.718  13.719  69.262  1.00  0.00    -0.327 C  
HETATM   16  C   UNL     1     -11.982  14.127  70.720  1.00  0.00    -0.377 C  
BRANCH  15  17
HETATM   17  C   UNL     1     -12.508  12.433  68.887  1.00  0.00     0.473 C  
BRANCH  17  18
HETATM   18  C   UNL     1     -11.801  11.182  69.358  1.00  0.00    -0.415 A  
HETATM   19  C   UNL     1     -11.179  10.347  68.424  1.00  0.00    -0.318 A  
HETATM   20  C   UNL     1     -10.725   9.077  68.804  1.00  0.00    -0.108 A  
HETATM   21  C   UNL     1     -10.782   8.670  70.144  1.00  0.00    -0.234 A  
HETATM   22  C   UNL     1     -11.847  10.786  70.696  1.00  0.00    -0.460 A  
HETATM   23  C   UNL     1     -11.322   9.550  71.088  1.00  0.00    -0.440 A  
BRANCH  20  24
HETATM   24  S   UNL     1     -10.184   7.912  67.577  1.00  0.00    -0.266 S  
HETATM   25  O   UNL     1      -8.868   7.449  67.948  1.00  0.00    -0.132 OA 
HETATM   26  N   UNL     1     -11.190   6.580  67.776  1.00  0.00    -0.608 N  
HETATM   27  O   UNL     1     -10.518   8.431  66.270  1.00  0.00    -0.062 OA 
HETATM   28  H1  UNL     1     -10.880   5.912  67.072  1.00  0.00     0.000 HD 
HETATM   29  H2  UNL     1     -11.945   6.466  68.453  1.00  0.00     0.000 HD 
ENDBRANCH  20  24
BRANCH  21  30
HETATM   30  O   UNL     1     -10.305   7.424  70.440  1.00  0.00    -0.204 OA 
HETATM   31  C   UNL     1      -9.101   7.330  71.189  1.00  0.00    -0.152 C  
ENDBRANCH  21  30
ENDBRANCH  17  18
ENDBRANCH  15  17
ENDBRANCH  13  15
ENDBRANCH  12  13
ENDBRANCH  11  12
ENDBRANCH  10  11
ENDBRANCH   9  10
ENDBRANCH   3   4
ENDBRANCH   2   3
TORSDOF 11
ENDMDL
MODEL      177
REMARK 921   NORMALIZED FREE ENERGY PREDICTED BY IDOCK:   -4.68 KCAL/MOL
REMARK 922        TOTAL FREE ENERGY PREDICTED BY IDOCK:   -8.93 KCAL/MOL
REMARK 923 INTER-LIGAND FREE ENERGY PREDICTED BY IDOCK:   -7.67 KCAL/MOL
REMARK 924 INTRA-LIGAND FREE ENERGY PREDICTED BY IDOCK:   -1.27 KCAL/MOL
REMARK 927      BINDING AFFINITY PREDICTED BY RF-SCORE:    0.00 PKD
ROOT
HETATM    1  C   UNL     1      -8.614  13.820  67.415  1.00  0.00    -0.208 C  
HETATM    2  C   UNL     1      -9.686  13.789  68.495  1.00  0.00    -0.193 C  
ENDROOT
BRANCH   2   3
HETATM    3  O   UNL     1     -10.818  14.445  67.937  1.00  0.00    -0.245 OA 
BRANCH   3   4
HETATM    4  C   UNL     1     -10.711  15.695  67.406  1.00  0.00    -0.309 A  
HETATM    5  C   UNL     1     -10.498  16.844  68.180  1.00  0.00    -0.350 A  
HETATM    6  C   UNL     1     -10.423  18.106  67.586  1.00  0.00    -0.432 A  
HETATM    7  C   UNL     1     -10.558  18.236  66.205  1.00  0.00    -0.320 A  
HETATM    8  C   UNL     1     -10.756  17.099  65.423  1.00  0.00    -0.097 A  
HETATM    9  C   UNL     1     -10.828  15.824  66.006  1.00  0.00    -0.255 A  
BRANCH   9  10
HETATM   10  O   UNL     1     -11.014  14.832  65.070  1.00  0.00    -0.365 OA 
BRANCH  10  11
HETATM   11  C   UNL     1     -12.336  14.334  64.872  1.00  0.00    -0.425 C  
BRANCH  11  12
HETATM   12  C   UNL     1     -12.313  12.800  64.853  1.00  0.00    -0.490 C  
BRANCH  12  13
HETATM   13  N   UNL     1     -12.027  12.154  66.144  1.00  0.00    -0.600 NA 
HETATM   14  H   UNL     1     -12.808  11.557  66.417  1.00  0.00     0.000 HD 
BRANCH  13  15
HETATM   15  C   UNL     1     -10.764  11.394  66.209  1.00  0.00    -0.270 C  
HETATM   16  C   UNL     1     -10.112  11.483  64.820  1.00  0.00    -0.316 C  
BRANCH  15  17
HETATM   17  C   UNL     1     -10.949   9.913  66.649  1.00  0.00     0.079 C  
BRANCH  17  18
HETATM   18  C   UNL     1     -10.189   9.607  67.921  1.00  0.00    -0.242 A  
HETATM   19  C   UNL     1     -10.718   8.692  68.838  1.00  0.00    -0.109 A  
HETATM   20  C   UNL     1     -10.157   8.568  70.115  1.00  0.00    -0.190 A  
HETATM   21  C   UNL     1      -8.993   9.271  70.455  1.00  0.00    -0.239 A  
HETATM   22  C   UNL     1      -9.021  10.297  68.250  1.00  0.00    -0.132 A  
HETATM   23  C   UNL     1      -8.417  10.113  69.499  1.00  0.00    -0.179 A  
BRANCH  20  24
HETATM   24  S   UNL     1     -10.981   7.617  71.369  1.00  0.00    -0.234 S  
HETATM   25  O   UNL     1     -11.656   8.535  72.256  1.00  0.00    -0.353 OA 
HETATM   26  N   UNL     1     -12.211   6.808  70.557  1.00  0.00    -0.566 N  
HETATM   27  O   UNL     1     -10.089   6.573  71.817  1.00  0.00    -0.184 OA 
HETATM   28  H1  UNL     1     -12.684   6.263  71.276  1.00  0.00     0.000 HD 
HETATM   29  H2  UNL     1     -12.435   6.853  69.563  1.00  0.00     0.000 HD 
ENDBRANCH  20  24
BRANCH  21  30
HETATM   30  O   UNL     1      -8.496   9.085  71.715  1.00  0.00    -0.351 OA 
HETATM   31  C   UNL     1      -7.170   8.590  71.844  1.00  0.00    -0.091 C  
ENDBRANCH  21  30
ENDBRANCH  17  18
ENDBRANCH  15  17
ENDBRANCH  13  15
ENDBRANCH  12  13
ENDBRANCH  11  12
ENDBRANCH  10  11
ENDBRANCH   9  10
ENDBRANCH   3   4
ENDBRANCH   2   3
TORSDOF 11
ENDMDL
MODEL      178
REMARK 921   NORMALIZED FREE ENERGY PREDICTED BY IDOCK:   -4.68 KCAL/MOL
REMARK 922        TOTAL FREE ENERGY PREDICTED BY IDOCK:   -8.93 KCAL/MOL
REMARK 923 INTER-LIGAND FREE ENERGY PREDICTED BY IDOCK:   -7.94 KCAL/MOL
REMARK 924 INTRA-LIGAND FREE ENERGY PREDICTED BY IDOCK:   -0.98 KCAL/MOL
REMARK 927      BINDING AFFINITY PREDICTED BY RF-SCORE:    0.00 PKD
ROOT
HETATM    1  C   UNL     1      -7.775   2.967  71.013  1.00  0.00    -0.043 C  
HETATM    2  C   UNL     1      -9.281   2.834  70.844  1.00  0.00    -0.136 C  
ENDROOT
BRANCH   2   3
HETATM    3  O   UNL     1      -9.528   2.956  69.449  1.00  0.00    -0.150 OA 
BRANCH   3   4
HETATM    4  C   UNL     1      -9.113   4.054  68.758  1.00  0.00    -0.134 A  
HETATM    5  C   UNL     1      -8.080   4.022  67.812  1.00  0.00    -0.090 A  
HETATM    6  C   UNL     1      -7.675   5.185  67.151  1.00  0.00    -0.092 A  
HETATM    7  C   UNL     1      -8.301   6.398  67.428  1.00  0.00    -0.112 A  
HETATM    8  C   UNL     1      -9.338   6.441  68.359  1.00  0.00    -0.121 A  
HETATM    9  C   UNL     1      -9.759   5.279  69.026  1.00  0.00    -0.156 A  
BRANCH   9  10
HETATM   10  O   UNL     1     -10.801   5.523  69.891  1.00  0.00    -0.326 OA 
BRANCH  10  11
HETATM   11  C   UNL     1     -10.509   6.170  71.129  1.00  0.00    -0.230 C  
BRANCH  11  12
HETATM   12  C   UNL     1     -11.650   7.128  71.494  1.00  0.00    -0.278 C  
BRANCH  12  13
HETATM   13  N   UNL     1     -11.964   8.153  70.486  1.00  0.00    -0.484 NA 
HETATM   14  H   UNL     1     -12.820   8.646  70.744  1.00  0.00     0.000 HD 
BRANCH  13  15
HETATM   15  C   UNL     1     -10.888   9.123  70.208  1.00  0.00    -0.246 C  
HETATM   16  C   UNL     1     -10.110   9.320  71.519  1.00  0.00    -0.306 C  
BRANCH  15  17
HETATM   17  C   UNL     1     -11.400  10.481  69.648  1.00  0.00    -0.345 C  
BRANCH  17  18
HETATM   18  C   UNL     1     -11.011  10.673  68.199  1.00  0.00    -0.321 A  
HETATM   19  C   UNL     1     -11.537  11.752  67.480  1.00  0.00    -0.361 A  
HETATM   20  C   UNL     1     -11.379  11.818  66.090  1.00  0.00    -0.280 A  
HETATM   21  C   UNL     1     -10.597  10.871  65.415  1.00  0.00    -0.173 A  
HETATM   22  C   UNL     1     -10.220   9.736  67.533  1.00  0.00    -0.271 A  
HETATM   23  C   UNL     1      -9.997   9.847  66.155  1.00  0.00    -0.331 A  
BRANCH  20  24
HETATM   24  S   UNL     1     -12.268  13.029  65.142  1.00  0.00    -0.482 S  
HETATM   25  O   UNL     1     -12.707  14.068  66.044  1.00  0.00    -0.475 OA 
HETATM   26  N   UNL     1     -11.103  13.754  64.171  1.00  0.00    -0.587 N  
HETATM   27  O   UNL     1     -13.140  12.342  64.218  1.00  0.00    -0.756 OA 
HETATM   28  H1  UNL     1     -11.614  14.450  63.627  1.00  0.00     0.000 HD 
HETATM   29  H2  UNL     1     -10.106  13.546  64.133  1.00  0.00     0.000 HD 
ENDBRANCH  20  24
BRANCH  21  30
HETATM   30  O   UNL     1     -10.476  11.012  64.060  1.00  0.00    -0.353 OA 
HETATM   31  C   UNL     1      -9.313  10.486  63.435  1.00  0.00    -0.305 C  
ENDBRANCH  21  30
ENDBRANCH  17  18
ENDBRANCH  15  17
ENDBRANCH  13  15
ENDBRANCH  12  13
ENDBRANCH  11  12
ENDBRANCH  10  11
ENDBRANCH   9  10
ENDBRANCH   3   4
ENDBRANCH   2   3
TORSDOF 11
ENDMDL
MODEL      179
REMARK 921   NORMALIZED FREE ENERGY PREDICTED BY IDOCK:   -4.66 KCAL/MOL
REMARK 922        TOTAL FREE ENERGY PREDICTED BY IDOCK:   -8.91 KCAL/MOL
REMARK 923 INTER-LIGAND FREE ENERGY PREDICTED BY IDOCK:   -7.56 KCAL/MOL
REMARK 924 INTRA-LIGAND FREE ENERGY PREDICTED BY IDOCK:   -1.35 KCAL/MOL
REMARK 927      BINDING AFFINITY PREDICTED BY RF-SCORE:    0.00 PKD
ROOT
HETATM    1  C   UNL     1     -10.377   2.545  72.786  1.00  0.00    -0.239 C  
HETATM    2  C   UNL     1      -8.979   3.145  72.815  1.00  0.00    -0.087 C  
ENDROOT
BRANCH   2   3
HETATM    3  O   UNL     1      -9.156   4.550  72.681  1.00  0.00    -0.121 OA 
BRANCH   3   4
HETATM    4  C   UNL     1      -8.381   5.274  71.828  1.00  0.00    -0.119 A  
HETATM    5  C   UNL     1      -7.140   5.817  72.190  1.00  0.00    -0.087 A  
HETATM    6  C   UNL     1      -6.397   6.577  71.282  1.00  0.00    -0.041 A  
HETATM    7  C   UNL     1      -6.886   6.802  69.997  1.00  0.00    -0.057 A  
HETATM    8  C   UNL     1      -8.112   6.256  69.621  1.00  0.00    -0.120 A  
HETATM    9  C   UNL     1      -8.867   5.486  70.521  1.00  0.00    -0.136 A  
BRANCH   9  10
HETATM   10  O   UNL     1     -10.037   5.027  69.961  1.00  0.00    -0.235 OA 
BRANCH  10  11
HETATM   11  C   UNL     1     -11.044   5.982  69.628  1.00  0.00    -0.404 C  
BRANCH  11  12
HETATM   12  C   UNL     1     -11.538   6.678  70.902  1.00  0.00    -0.361 C  
BRANCH  12  13
HETATM   13  N   UNL     1     -12.229   7.961  70.697  1.00  0.00    -0.501 NA 
HETATM   14  H   UNL     1     -12.987   8.060  71.373  1.00  0.00     0.000 HD 
BRANCH  13  15
HETATM   15  C   UNL     1     -11.368   9.159  70.726  1.00  0.00    -0.280 C  
HETATM   16  C   UNL     1     -10.310   8.927  71.816  1.00  0.00    -0.426 C  
BRANCH  15  17
HETATM   17  C   UNL     1     -12.147  10.482  70.971  1.00  0.00    -0.492 C  
BRANCH  17  18
HETATM   18  C   UNL     1     -11.970  11.458  69.829  1.00  0.00    -0.422 A  
HETATM   19  C   UNL     1     -11.518  10.995  68.589  1.00  0.00    -0.375 A  
HETATM   20  C   UNL     1     -11.126  11.902  67.596  1.00  0.00    -0.257 A  
HETATM   21  C   UNL     1     -11.289  13.281  67.786  1.00  0.00    -0.295 A  
HETATM   22  C   UNL     1     -12.147  12.830  70.016  1.00  0.00    -0.355 A  
HETATM   23  C   UNL     1     -11.829  13.732  68.995  1.00  0.00    -0.397 A  
BRANCH  20  24
HETATM   24  S   UNL     1     -10.301  11.329  66.131  1.00  0.00    -0.258 S  
HETATM   25  O   UNL     1     -11.121  11.672  64.993  1.00  0.00    -0.299 OA 
HETATM   26  N   UNL     1      -8.937  12.303  65.998  1.00  0.00    -0.425 N  
HETATM   27  O   UNL     1      -9.783  10.005  66.382  1.00  0.00    -0.187 OA 
HETATM   28  H1  UNL     1      -8.463  11.974  65.157  1.00  0.00     0.000 HD 
HETATM   29  H2  UNL     1      -8.647  13.056  66.621  1.00  0.00     0.000 HD 
ENDBRANCH  20  24
BRANCH  21  30
HETATM   30  O   UNL     1     -10.899  14.103  66.765  1.00  0.00    -0.291 OA 
HETATM   31  C   UNL     1     -10.445  15.409  67.094  1.00  0.00    -0.290 C  
ENDBRANCH  21  30
ENDBRANCH  17  18
ENDBRANCH  15  17
ENDBRANCH  13  15
ENDBRANCH  12  13
ENDBRANCH  11  12
ENDBRANCH  10  11
ENDBRANCH   9  10
ENDBRANCH   3   4
ENDBRANCH   2   3
TORSDOF 11
ENDMDL
MODEL      180
REMARK 921   NORMALIZED FREE ENERGY PREDICTED BY IDOCK:   -4.65 KCAL/MOL
REMARK 922        TOTAL FREE ENERGY PREDICTED BY IDOCK:   -8.89 KCAL/MOL
REMARK 923 INTER-LIGAND FREE ENERGY PREDICTED BY IDOCK:   -7.47 KCAL/MOL
REMARK 924 INTRA-LIGAND FREE ENERGY PREDICTED BY IDOCK:   -1.42 KCAL/MOL
REMARK 927      BINDING AFFINITY PREDICTED BY RF-SCORE:    0.00 PKD
ROOT
HETATM    1  C   UNL     1     -10.819   5.876  68.102  1.00  0.00    -0.323 C  
HETATM    2  C   UNL     1     -10.867   6.714  66.833  1.00  0.00    -0.345 C  
ENDROOT
BRANCH   2   3
HETATM    3  O   UNL     1     -10.054   7.853  67.090  1.00  0.00    -0.203 OA 
BRANCH   3   4
HETATM    4  C   UNL     1      -8.765   7.905  66.653  1.00  0.00    -0.142 A  
HETATM    5  C   UNL     1      -8.416   8.090  65.308  1.00  0.00    -0.133 A  
HETATM    6  C   UNL     1      -7.077   8.108  64.910  1.00  0.00    -0.079 A  
HETATM    7  C   UNL     1      -6.067   7.943  65.855  1.00  0.00    -0.038 A  
HETATM    8  C   UNL     1      -6.401   7.771  67.198  1.00  0.00    -0.055 A  
HETATM    9  C   UNL     1      -7.742   7.756  67.613  1.00  0.00    -0.121 A  
BRANCH   9  10
HETATM   10  O   UNL     1      -7.866   7.589  68.973  1.00  0.00    -0.115 OA 
BRANCH  10  11
HETATM   11  C   UNL     1      -7.248   8.551  69.827  1.00  0.00    -0.052 C  
BRANCH  11  12
HETATM   12  C   UNL     1      -8.263   9.639  70.200  1.00  0.00    -0.187 C  
BRANCH  12  13
HETATM   13  N   UNL     1      -9.101   9.349  71.374  1.00  0.00    -0.314 NA 
HETATM   14  H   UNL     1      -8.802   9.921  72.165  1.00  0.00     0.000 HD 
BRANCH  13  15
HETATM   15  C   UNL     1     -10.555   9.491  71.170  1.00  0.00    -0.318 C  
HETATM   16  C   UNL     1     -11.238   8.424  72.039  1.00  0.00    -0.404 C  
BRANCH  15  17
HETATM   17  C   UNL     1     -10.991   9.367  69.682  1.00  0.00    -0.216 C  
BRANCH  17  18
HETATM   18  C   UNL     1     -11.404  10.703  69.105  1.00  0.00    -0.338 A  
HETATM   19  C   UNL     1     -11.412  10.884  67.718  1.00  0.00    -0.323 A  
HETATM   20  C   UNL     1     -11.563  12.166  67.173  1.00  0.00    -0.335 A  
HETATM   21  C   UNL     1     -11.822  13.266  68.000  1.00  0.00    -0.355 A  
HETATM   22  C   UNL     1     -11.677  11.794  69.931  1.00  0.00    -0.399 A  
HETATM   23  C   UNL     1     -11.905  13.061  69.382  1.00  0.00    -0.380 A  
BRANCH  20  24
HETATM   24  S   UNL     1     -11.302  12.440  65.437  1.00  0.00    -0.349 S  
HETATM   25  O   UNL     1     -11.091  11.157  64.809  1.00  0.00    -0.208 OA 
HETATM   26  N   UNL     1     -12.788  12.973  64.859  1.00  0.00    -0.747 N  
HETATM   27  O   UNL     1     -10.419  13.571  65.276  1.00  0.00    -0.307 OA 
HETATM   28  H1  UNL     1     -12.639  13.130  63.863  1.00  0.00     0.000 HD 
HETATM   29  H2  UNL     1     -13.650  13.109  65.388  1.00  0.00     0.000 HD 
ENDBRANCH  20  24
BRANCH  21  30
HETATM   30  O   UNL     1     -11.974  14.482  67.394  1.00  0.00    -0.394 OA 
HETATM   31  C   UNL     1     -11.455  15.629  68.056  1.00  0.00    -0.291 C  
ENDBRANCH  21  30
ENDBRANCH  17  18
ENDBRANCH  15  17
ENDBRANCH  13  15
ENDBRANCH  12  13
ENDBRANCH  11  12
ENDBRANCH  10  11
ENDBRANCH   9  10
ENDBRANCH   3   4
ENDBRANCH   2   3
TORSDOF 11
ENDMDL
MODEL      181
REMARK 921   NORMALIZED FREE ENERGY PREDICTED BY IDOCK:   -4.65 KCAL/MOL
REMARK 922        TOTAL FREE ENERGY PREDICTED BY IDOCK:   -8.88 KCAL/MOL
REMARK 923 INTER-LIGAND FREE ENERGY PREDICTED BY IDOCK:   -8.33 KCAL/MOL
REMARK 924 INTRA-LIGAND FREE ENERGY PREDICTED BY IDOCK:   -0.55 KCAL/MOL
REMARK 927      BINDING AFFINITY PREDICTED BY RF-SCORE:    0.00 PKD
ROOT
HETATM    1  C   UNL     1      -7.194   9.564  64.883  1.00  0.00    -0.111 C  
HETATM    2  C   UNL     1      -8.430  10.109  64.182  1.00  0.00    -0.180 C  
ENDROOT
BRANCH   2   3
HETATM    3  O   UNL     1      -9.364  10.402  65.214  1.00  0.00    -0.182 OA 
BRANCH   3   4
HETATM    4  C   UNL     1     -10.352  11.319  65.024  1.00  0.00    -0.301 A  
HETATM    5  C   UNL     1     -10.804  11.710  63.755  1.00  0.00    -0.493 A  
HETATM    6  C   UNL     1     -11.803  12.677  63.615  1.00  0.00    -0.606 A  
HETATM    7  C   UNL     1     -12.366  13.265  64.746  1.00  0.00    -0.454 A  
HETATM    8  C   UNL     1     -11.935  12.876  66.013  1.00  0.00    -0.505 A  
HETATM    9  C   UNL     1     -10.935  11.902  66.168  1.00  0.00    -0.308 A  
BRANCH   9  10
HETATM   10  O   UNL     1     -10.658  11.645  67.491  1.00  0.00    -0.197 OA 
BRANCH  10  11
HETATM   11  C   UNL     1     -11.281  10.516  68.102  1.00  0.00    -0.293 C  
BRANCH  11  12
HETATM   12  C   UNL     1     -11.576  10.823  69.576  1.00  0.00    -0.303 C  
BRANCH  12  13
HETATM   13  N   UNL     1     -12.683  10.059  70.173  1.00  0.00    -0.532 NA 
HETATM   14  H   UNL     1     -13.049   9.388  69.497  1.00  0.00     0.000 HD 
BRANCH  13  15
HETATM   15  C   UNL     1     -12.372   9.376  71.443  1.00  0.00    -0.357 C  
HETATM   16  C   UNL     1     -10.843   9.235  71.516  1.00  0.00    -0.442 C  
BRANCH  15  17
HETATM   17  C   UNL     1     -13.071   7.995  71.597  1.00  0.00    -0.354 C  
BRANCH  17  18
HETATM   18  C   UNL     1     -12.147   6.854  71.233  1.00  0.00    -0.419 A  
HETATM   19  C   UNL     1     -11.652   6.019  72.240  1.00  0.00    -0.359 A  
HETATM   20  C   UNL     1     -10.622   5.111  71.961  1.00  0.00    -0.200 A  
HETATM   21  C   UNL     1     -10.153   4.944  70.651  1.00  0.00    -0.236 A  
HETATM   22  C   UNL     1     -11.694   6.680  69.925  1.00  0.00    -0.333 A  
HETATM   23  C   UNL     1     -10.721   5.718  69.633  1.00  0.00    -0.416 A  
BRANCH  20  24
HETATM   24  S   UNL     1      -9.805   4.247  73.281  1.00  0.00    -0.135 S  
HETATM   25  O   UNL     1     -10.655   4.304  74.447  1.00  0.00    -0.239 OA 
HETATM   26  N   UNL     1      -9.815   2.633  72.809  1.00  0.00    -0.120 N  
HETATM   27  O   UNL     1      -8.409   4.620  73.282  1.00  0.00    -0.102 OA 
HETATM   28  H1  UNL     1      -9.346   2.137  73.567  1.00  0.00     0.000 HD 
HETATM   29  H2  UNL     1     -10.204   2.237  71.954  1.00  0.00     0.000 HD 
ENDBRANCH  20  24
BRANCH  21  30
HETATM   30  O   UNL     1      -9.159   4.027  70.455  1.00  0.00    -0.093 OA 
HETATM   31  C   UNL     1      -8.218   4.272  69.418  1.00  0.00    -0.062 C  
ENDBRANCH  21  30
ENDBRANCH  17  18
ENDBRANCH  15  17
ENDBRANCH  13  15
ENDBRANCH  12  13
ENDBRANCH  11  12
ENDBRANCH  10  11
ENDBRANCH   9  10
ENDBRANCH   3   4
ENDBRANCH   2   3
TORSDOF 11
ENDMDL
MODEL      182
REMARK 921   NORMALIZED FREE ENERGY PREDICTED BY IDOCK:   -4.64 KCAL/MOL
REMARK 922        TOTAL FREE ENERGY PREDICTED BY IDOCK:   -8.87 KCAL/MOL
REMARK 923 INTER-LIGAND FREE ENERGY PREDICTED BY IDOCK:   -8.02 KCAL/MOL
REMARK 924 INTRA-LIGAND FREE ENERGY PREDICTED BY IDOCK:   -0.85 KCAL/MOL
REMARK 927      BINDING AFFINITY PREDICTED BY RF-SCORE:    0.00 PKD
ROOT
HETATM    1  C   UNL     1      -6.381  14.089  67.863  1.00  0.00    -0.169 C  
HETATM    2  C   UNL     1      -7.427  14.608  68.837  1.00  0.00    -0.134 C  
ENDROOT
BRANCH   2   3
HETATM    3  O   UNL     1      -8.416  15.248  68.040  1.00  0.00    -0.143 OA 
BRANCH   3   4
HETATM    4  C   UNL     1      -8.656  16.583  68.161  1.00  0.00    -0.193 A  
HETATM    5  C   UNL     1      -7.639  17.537  68.309  1.00  0.00    -0.240 A  
HETATM    6  C   UNL     1      -7.943  18.893  68.458  1.00  0.00    -0.382 A  
HETATM    7  C   UNL     1      -9.271  19.314  68.458  1.00  0.00    -0.434 A  
HETATM    8  C   UNL     1     -10.290  18.376  68.299  1.00  0.00    -0.384 A  
HETATM    9  C   UNL     1     -10.000  17.012  68.144  1.00  0.00    -0.287 A  
BRANCH   9  10
HETATM   10  O   UNL     1     -11.136  16.250  67.987  1.00  0.00    -0.340 OA 
BRANCH  10  11
HETATM   11  C   UNL     1     -11.804  15.791  69.161  1.00  0.00    -0.354 C  
BRANCH  11  12
HETATM   12  C   UNL     1     -12.084  14.287  69.041  1.00  0.00    -0.285 C  
BRANCH  12  13
HETATM   13  N   UNL     1     -11.513  13.449  70.107  1.00  0.00    -0.513 NA 
HETATM   14  H   UNL     1     -11.966  13.659  70.997  1.00  0.00     0.000 HD 
BRANCH  13  15
HETATM   15  C   UNL     1     -11.543  11.995  69.857  1.00  0.00    -0.238 C  
HETATM   16  C   UNL     1     -11.722  11.802  68.343  1.00  0.00    -0.389 C  
BRANCH  15  17
HETATM   17  C   UNL     1     -12.649  11.247  70.654  1.00  0.00    -0.377 C  
BRANCH  17  18
HETATM   18  C   UNL     1     -12.178   9.890  71.129  1.00  0.00    -0.468 A  
HETATM   19  C   UNL     1     -10.816   9.576  71.081  1.00  0.00    -0.425 A  
HETATM   20  C   UNL     1     -10.387   8.259  71.293  1.00  0.00    -0.205 A  
HETATM   21  C   UNL     1     -11.298   7.263  71.667  1.00  0.00    -0.254 A  
HETATM   22  C   UNL     1     -13.087   8.904  71.517  1.00  0.00    -0.376 A  
HETATM   23  C   UNL     1     -12.647   7.607  71.804  1.00  0.00    -0.359 A  
BRANCH  20  24
HETATM   24  S   UNL     1      -8.701   7.801  70.968  1.00  0.00    -0.138 S  
HETATM   25  O   UNL     1      -8.684   6.971  69.786  1.00  0.00    -0.140 OA 
HETATM   26  N   UNL     1      -7.948   9.232  70.511  1.00  0.00    -0.153 N  
HETATM   27  O   UNL     1      -8.073   7.438  72.217  1.00  0.00    -0.098 OA 
HETATM   28  H1  UNL     1      -6.981   8.969  70.324  1.00  0.00     0.000 HD 
HETATM   29  H2  UNL     1      -8.365  10.159  70.436  1.00  0.00     0.000 HD 
ENDBRANCH  20  24
BRANCH  21  30
HETATM   30  O   UNL     1     -10.802   6.006  71.872  1.00  0.00    -0.235 OA 
HETATM   31  C   UNL     1     -11.115   5.355  73.097  1.00  0.00    -0.308 C  
ENDBRANCH  21  30
ENDBRANCH  17  18
ENDBRANCH  15  17
ENDBRANCH  13  15
ENDBRANCH  12  13
ENDBRANCH  11  12
ENDBRANCH  10  11
ENDBRANCH   9  10
ENDBRANCH   3   4
ENDBRANCH   2   3
TORSDOF 11
ENDMDL
MODEL      183
REMARK 921   NORMALIZED FREE ENERGY PREDICTED BY IDOCK:   -4.63 KCAL/MOL
REMARK 922        TOTAL FREE ENERGY PREDICTED BY IDOCK:   -8.86 KCAL/MOL
REMARK 923 INTER-LIGAND FREE ENERGY PREDICTED BY IDOCK:   -8.13 KCAL/MOL
REMARK 924 INTRA-LIGAND FREE ENERGY PREDICTED BY IDOCK:   -0.73 KCAL/MOL
REMARK 927      BINDING AFFINITY PREDICTED BY RF-SCORE:    0.00 PKD
ROOT
HETATM    1  C   UNL     1      -9.553   3.243  71.596  1.00  0.00    -0.230 C  
HETATM    2  C   UNL     1      -9.363   4.247  70.469  1.00  0.00    -0.145 C  
ENDROOT
BRANCH   2   3
HETATM    3  O   UNL     1     -10.597   4.946  70.360  1.00  0.00    -0.175 OA 
BRANCH   3   4
HETATM    4  C   UNL     1     -10.768   6.159  70.954  1.00  0.00    -0.258 A  
HETATM    5  C   UNL     1     -11.431   6.329  72.178  1.00  0.00    -0.354 A  
HETATM    6  C   UNL     1     -11.603   7.602  72.731  1.00  0.00    -0.334 A  
HETATM    7  C   UNL     1     -11.112   8.723  72.065  1.00  0.00    -0.441 A  
HETATM    8  C   UNL     1     -10.440   8.565  70.854  1.00  0.00    -0.248 A  
HETATM    9  C   UNL     1     -10.255   7.293  70.289  1.00  0.00    -0.199 A  
BRANCH   9  10
HETATM   10  O   UNL     1      -9.560   7.344  69.103  1.00  0.00    -0.156 OA 
BRANCH  10  11
HETATM   11  C   UNL     1     -10.285   7.645  67.912  1.00  0.00    -0.198 C  
BRANCH  11  12
HETATM   12  C   UNL     1      -9.638   8.840  67.201  1.00  0.00    -0.175 C  
BRANCH  12  13
HETATM   13  N   UNL     1     -10.280   9.254  65.943  1.00  0.00    -0.310 NA 
HETATM   14  H   UNL     1     -11.040   9.907  66.138  1.00  0.00     0.000 HD 
BRANCH  13  15
HETATM   15  C   UNL     1      -9.377   9.821  64.923  1.00  0.00    -0.265 C  
HETATM   16  C   UNL     1      -8.545   8.657  64.362  1.00  0.00    -0.068 C  
BRANCH  15  17
HETATM   17  C   UNL     1      -8.463  10.958  65.463  1.00  0.00    -0.115 C  
BRANCH  17  18
HETATM   18  C   UNL     1      -9.267  12.083  66.075  1.00  0.00    -0.152 A  
HETATM   19  C   UNL     1     -10.351  12.619  65.371  1.00  0.00    -0.311 A  
HETATM   20  C   UNL     1     -10.960  13.803  65.807  1.00  0.00    -0.280 A  
HETATM   21  C   UNL     1     -10.570  14.404  67.011  1.00  0.00    -0.274 A  
HETATM   22  C   UNL     1      -8.886  12.670  67.282  1.00  0.00    -0.196 A  
HETATM   23  C   UNL     1      -9.547  13.809  67.757  1.00  0.00    -0.219 A  
BRANCH  20  24
HETATM   24  S   UNL     1     -12.148  14.633  64.779  1.00  0.00    -0.389 S  
HETATM   25  O   UNL     1     -11.608  15.924  64.424  1.00  0.00    -0.409 OA 
HETATM   26  N   UNL     1     -12.165  13.754  63.347  1.00  0.00    -1.075 N  
HETATM   27  O   UNL     1     -13.463  14.437  65.345  1.00  0.00    -0.485 OA 
HETATM   28  H1  UNL     1     -12.846  14.230  62.757  1.00  0.00     0.000 HD 
HETATM   29  H2  UNL     1     -11.614  12.927  63.117  1.00  0.00     0.000 HD 
ENDBRANCH  20  24
BRANCH  21  30
HETATM   30  O   UNL     1     -11.222  15.548  67.379  1.00  0.00    -0.315 OA 
HETATM   31  C   UNL     1     -11.782  15.609  68.684  1.00  0.00    -0.352 C  
ENDBRANCH  21  30
ENDBRANCH  17  18
ENDBRANCH  15  17
ENDBRANCH  13  15
ENDBRANCH  12  13
ENDBRANCH  11  12
ENDBRANCH  10  11
ENDBRANCH   9  10
ENDBRANCH   3   4
ENDBRANCH   2   3
TORSDOF 11
ENDMDL
MODEL      184
REMARK 921   NORMALIZED FREE ENERGY PREDICTED BY IDOCK:   -4.63 KCAL/MOL
REMARK 922        TOTAL FREE ENERGY PREDICTED BY IDOCK:   -8.85 KCAL/MOL
REMARK 923 INTER-LIGAND FREE ENERGY PREDICTED BY IDOCK:   -7.99 KCAL/MOL
REMARK 924 INTRA-LIGAND FREE ENERGY PREDICTED BY IDOCK:   -0.85 KCAL/MOL
REMARK 927      BINDING AFFINITY PREDICTED BY RF-SCORE:    0.00 PKD
ROOT
HETATM    1  C   UNL     1      -9.055   7.714  68.134  1.00  0.00    -0.132 C  
HETATM    2  C   UNL     1     -10.181   7.900  67.128  1.00  0.00    -0.290 C  
ENDROOT
BRANCH   2   3
HETATM    3  O   UNL     1     -10.685   9.212  67.349  1.00  0.00    -0.277 OA 
BRANCH   3   4
HETATM    4  C   UNL     1     -10.581  10.172  66.390  1.00  0.00    -0.085 A  
HETATM    5  C   UNL     1      -9.813  10.017  65.227  1.00  0.00    -0.388 A  
HETATM    6  C   UNL     1      -9.718  11.047  64.287  1.00  0.00    -0.333 A  
HETATM    7  C   UNL     1     -10.394  12.247  64.497  1.00  0.00    -0.339 A  
HETATM    8  C   UNL     1     -11.171  12.408  65.642  1.00  0.00    -0.360 A  
HETATM    9  C   UNL     1     -11.280  11.381  66.593  1.00  0.00    -0.231 A  
BRANCH   9  10
HETATM   10  O   UNL     1     -12.100  11.725  67.643  1.00  0.00    -0.598 OA 
BRANCH  10  11
HETATM   11  C   UNL     1     -11.504  11.928  68.923  1.00  0.00    -0.301 C  
BRANCH  11  12
HETATM   12  C   UNL     1     -10.967  13.362  69.021  1.00  0.00    -0.224 C  
BRANCH  12  13
HETATM   13  N   UNL     1     -11.249  14.060  70.286  1.00  0.00    -0.479 NA 
HETATM   14  H   UNL     1     -10.656  13.688  71.029  1.00  0.00     0.000 HD 
BRANCH  13  15
HETATM   15  C   UNL     1     -11.138  15.530  70.240  1.00  0.00    -0.328 C  
HETATM   16  C   UNL     1     -11.892  16.077  71.463  1.00  0.00    -0.554 C  
BRANCH  15  17
HETATM   17  C   UNL     1     -11.677  16.156  68.922  1.00  0.00    -0.250 C  
BRANCH  17  18
HETATM   18  C   UNL     1     -10.640  17.028  68.250  1.00  0.00    -0.372 A  
HETATM   19  C   UNL     1      -9.385  16.495  67.940  1.00  0.00    -0.216 A  
HETATM   20  C   UNL     1      -8.340  17.336  67.536  1.00  0.00    -0.196 A  
HETATM   21  C   UNL     1      -8.565  18.703  67.325  1.00  0.00    -0.266 A  
HETATM   22  C   UNL     1     -10.873  18.386  68.027  1.00  0.00    -0.170 A  
HETATM   23  C   UNL     1      -9.849  19.212  67.547  1.00  0.00    -0.406 A  
BRANCH  20  24
HETATM   24  S   UNL     1      -6.682  16.710  67.405  1.00  0.00    -0.187 S  
HETATM   25  O   UNL     1      -5.975  17.063  68.613  1.00  0.00    -0.142 OA 
HETATM   26  N   UNL     1      -6.849  15.038  67.465  1.00  0.00    -0.180 N  
HETATM   27  O   UNL     1      -6.191  16.982  66.074  1.00  0.00    -0.164 OA 
HETATM   28  H1  UNL     1      -5.898  14.679  67.391  1.00  0.00     0.000 HD 
HETATM   29  H2  UNL     1      -7.711  14.501  67.557  1.00  0.00     0.000 HD 
ENDBRANCH  20  24
BRANCH  21  30
HETATM   30  O   UNL     1      -7.501  19.456  66.914  1.00  0.00    -0.217 OA 
HETATM   31  C   UNL     1      -6.972  20.416  67.820  1.00  0.00    -0.311 C  
ENDBRANCH  21  30
ENDBRANCH  17  18
ENDBRANCH  15  17
ENDBRANCH  13  15
ENDBRANCH  12  13
ENDBRANCH  11  12
ENDBRANCH  10  11
ENDBRANCH   9  10
ENDBRANCH   3   4
ENDBRANCH   2   3
TORSDOF 11
ENDMDL
MODEL      185
REMARK 921   NORMALIZED FREE ENERGY PREDICTED BY IDOCK:   -4.61 KCAL/MOL
REMARK 922        TOTAL FREE ENERGY PREDICTED BY IDOCK:   -8.81 KCAL/MOL
REMARK 923 INTER-LIGAND FREE ENERGY PREDICTED BY IDOCK:   -7.81 KCAL/MOL
REMARK 924 INTRA-LIGAND FREE ENERGY PREDICTED BY IDOCK:   -1.00 KCAL/MOL
REMARK 927      BINDING AFFINITY PREDICTED BY RF-SCORE:    0.00 PKD
ROOT
HETATM    1  C   UNL     1     -11.998   9.486  71.554  1.00  0.00    -0.475 C  
HETATM    2  C   UNL     1     -11.919   8.207  72.373  1.00  0.00    -0.372 C  
ENDROOT
BRANCH   2   3
HETATM    3  O   UNL     1     -11.070   7.330  71.643  1.00  0.00    -0.230 OA 
BRANCH   3   4
HETATM    4  C   UNL     1      -9.732   7.565  71.555  1.00  0.00    -0.165 A  
HETATM    5  C   UNL     1      -8.993   8.191  72.569  1.00  0.00    -0.286 A  
HETATM    6  C   UNL     1      -7.625   8.433  72.416  1.00  0.00    -0.138 A  
HETATM    7  C   UNL     1      -6.977   8.049  71.244  1.00  0.00    -0.056 A  
HETATM    8  C   UNL     1      -7.698   7.414  70.234  1.00  0.00    -0.093 A  
HETATM    9  C   UNL     1      -9.071   7.160  70.376  1.00  0.00    -0.156 A  
BRANCH   9  10
HETATM   10  O   UNL     1      -9.599   6.516  69.281  1.00  0.00    -0.139 OA 
BRANCH  10  11
HETATM   11  C   UNL     1     -10.867   6.950  68.793  1.00  0.00    -0.192 C  
BRANCH  11  12
HETATM   12  C   UNL     1     -10.695   7.596  67.412  1.00  0.00    -0.248 C  
BRANCH  12  13
HETATM   13  N   UNL     1      -9.472   8.395  67.233  1.00  0.00    -0.148 NA 
HETATM   14  H   UNL     1      -9.023   8.153  66.349  1.00  0.00     0.000 HD 
BRANCH  13  15
HETATM   15  C   UNL     1      -9.648   9.857  67.325  1.00  0.00    -0.160 C  
HETATM   16  C   UNL     1      -8.519  10.391  68.221  1.00  0.00    -0.123 C  
BRANCH  15  17
HETATM   17  C   UNL     1     -11.043  10.286  67.863  1.00  0.00    -0.341 C  
BRANCH  17  18
HETATM   18  C   UNL     1     -11.115  11.776  68.112  1.00  0.00    -0.297 A  
HETATM   19  C   UNL     1     -11.451  12.247  69.386  1.00  0.00    -0.341 A  
HETATM   20  C   UNL     1     -11.750  13.602  69.581  1.00  0.00    -0.320 A  
HETATM   21  C   UNL     1     -11.607  14.523  68.534  1.00  0.00    -0.313 A  
HETATM   22  C   UNL     1     -10.957  12.692  67.071  1.00  0.00    -0.300 A  
HETATM   23  C   UNL     1     -11.180  14.056  67.286  1.00  0.00    -0.328 A  
BRANCH  20  24
HETATM   24  S   UNL     1     -12.437  14.157  71.123  1.00  0.00    -0.387 S  
HETATM   25  O   UNL     1     -11.452  14.983  71.780  1.00  0.00    -0.381 OA 
HETATM   26  N   UNL     1     -13.673  15.210  70.688  1.00  0.00    -0.698 N  
HETATM   27  O   UNL     1     -13.108  13.045  71.755  1.00  0.00    -0.399 OA 
HETATM   28  H1  UNL     1     -14.067  15.528  71.572  1.00  0.00     0.000 HD 
HETATM   29  H2  UNL     1     -13.965  15.473  69.747  1.00  0.00     0.000 HD 
ENDBRANCH  20  24
BRANCH  21  30
HETATM   30  O   UNL     1     -11.902  15.829  68.806  1.00  0.00    -0.387 OA 
HETATM   31  C   UNL     1     -10.871  16.795  68.645  1.00  0.00    -0.336 C  
ENDBRANCH  21  30
ENDBRANCH  17  18
ENDBRANCH  15  17
ENDBRANCH  13  15
ENDBRANCH  12  13
ENDBRANCH  11  12
ENDBRANCH  10  11
ENDBRANCH   9  10
ENDBRANCH   3   4
ENDBRANCH   2   3
TORSDOF 11
ENDMDL
MODEL      186
REMARK 921   NORMALIZED FREE ENERGY PREDICTED BY IDOCK:   -4.60 KCAL/MOL
REMARK 922        TOTAL FREE ENERGY PREDICTED BY IDOCK:   -8.81 KCAL/MOL
REMARK 923 INTER-LIGAND FREE ENERGY PREDICTED BY IDOCK:   -7.58 KCAL/MOL
REMARK 924 INTRA-LIGAND FREE ENERGY PREDICTED BY IDOCK:   -1.23 KCAL/MOL
REMARK 927      BINDING AFFINITY PREDICTED BY RF-SCORE:    0.00 PKD
ROOT
HETATM    1  C   UNL     1      -7.817   8.231  74.462  1.00  0.00    -0.300 C  
HETATM    2  C   UNL     1      -7.708   8.100  72.951  1.00  0.00    -0.140 C  
ENDROOT
BRANCH   2   3
HETATM    3  O   UNL     1      -8.812   8.821  72.418  1.00  0.00    -0.391 OA 
BRANCH   3   4
HETATM    4  C   UNL     1      -9.883   8.167  71.888  1.00  0.00    -0.212 A  
HETATM    5  C   UNL     1     -11.059   7.909  72.606  1.00  0.00    -0.447 A  
HETATM    6  C   UNL     1     -12.118   7.210  72.022  1.00  0.00    -0.329 A  
HETATM    7  C   UNL     1     -12.016   6.760  70.707  1.00  0.00    -0.433 A  
HETATM    8  C   UNL     1     -10.857   7.022  69.978  1.00  0.00    -0.290 A  
HETATM    9  C   UNL     1      -9.787   7.728  70.551  1.00  0.00    -0.182 A  
BRANCH   9  10
HETATM   10  O   UNL     1      -8.742   7.897  69.671  1.00  0.00    -0.133 OA 
BRANCH  10  11
HETATM   11  C   UNL     1      -8.216   6.740  69.023  1.00  0.00    -0.117 C  
BRANCH  11  12
HETATM   12  C   UNL     1      -7.525   7.150  67.715  1.00  0.00    -0.098 C  
BRANCH  12  13
HETATM   13  N   UNL     1      -8.390   7.185  66.525  1.00  0.00    -0.113 NA 
HETATM   14  H   UNL     1      -9.225   6.621  66.684  1.00  0.00     0.000 HD 
BRANCH  13  15
HETATM   15  C   UNL     1      -8.772   8.531  66.056  1.00  0.00    -0.161 C  
HETATM   16  C   UNL     1      -7.627   9.482  66.438  1.00  0.00    -0.097 C  
BRANCH  15  17
HETATM   17  C   UNL     1     -10.130   9.029  66.626  1.00  0.00    -0.355 C  
BRANCH  17  18
HETATM   18  C   UNL     1     -10.307  10.519  66.436  1.00  0.00    -0.283 A  
HETATM   19  C   UNL     1     -10.400  11.352  67.557  1.00  0.00    -0.224 A  
HETATM   20  C   UNL     1     -10.793  12.688  67.412  1.00  0.00    -0.243 A  
HETATM   21  C   UNL     1     -10.987  13.242  66.140  1.00  0.00    -0.279 A  
HETATM   22  C   UNL     1     -10.484  11.070  65.166  1.00  0.00    -0.329 A  
HETATM   23  C   UNL     1     -10.800  12.426  65.019  1.00  0.00    -0.331 A  
BRANCH  20  24
HETATM   24  S   UNL     1     -11.177  13.671  68.842  1.00  0.00    -0.282 S  
HETATM   25  O   UNL     1     -10.092  14.602  69.048  1.00  0.00    -0.229 OA 
HETATM   26  N   UNL     1     -12.485  14.617  68.375  1.00  0.00    -0.512 N  
HETATM   27  O   UNL     1     -11.700  12.803  69.871  1.00  0.00    -0.302 OA 
HETATM   28  H1  UNL     1     -12.705  15.181  69.195  1.00  0.00     0.000 HD 
HETATM   29  H2  UNL     1     -12.956  14.626  67.470  1.00  0.00     0.000 HD 
ENDBRANCH  20  24
BRANCH  21  30
HETATM   30  O   UNL     1     -11.354  14.557  66.079  1.00  0.00    -0.333 OA 
HETATM   31  C   UNL     1     -10.579  15.431  65.269  1.00  0.00    -0.428 C  
ENDBRANCH  21  30
ENDBRANCH  17  18
ENDBRANCH  15  17
ENDBRANCH  13  15
ENDBRANCH  12  13
ENDBRANCH  11  12
ENDBRANCH  10  11
ENDBRANCH   9  10
ENDBRANCH   3   4
ENDBRANCH   2   3
TORSDOF 11
ENDMDL
MODEL      187
REMARK 921   NORMALIZED FREE ENERGY PREDICTED BY IDOCK:   -4.60 KCAL/MOL
REMARK 922        TOTAL FREE ENERGY PREDICTED BY IDOCK:   -8.79 KCAL/MOL
REMARK 923 INTER-LIGAND FREE ENERGY PREDICTED BY IDOCK:   -7.15 KCAL/MOL
REMARK 924 INTRA-LIGAND FREE ENERGY PREDICTED BY IDOCK:   -1.65 KCAL/MOL
REMARK 927      BINDING AFFINITY PREDICTED BY RF-SCORE:    0.00 PKD
ROOT
HETATM    1  C   UNL     1     -10.728   7.327  66.901  1.00  0.00    -0.346 C  
HETATM    2  C   UNL     1      -9.911   6.940  68.124  1.00  0.00    -0.155 C  
ENDROOT
BRANCH   2   3
HETATM    3  O   UNL     1     -10.014   8.037  69.023  1.00  0.00    -0.175 OA 
BRANCH   3   4
HETATM    4  C   UNL     1     -10.844   7.982  70.102  1.00  0.00    -0.242 A  
HETATM    5  C   UNL     1     -11.210   6.783  70.729  1.00  0.00    -0.352 A  
HETATM    6  C   UNL     1     -12.087   6.780  71.817  1.00  0.00    -0.393 A  
HETATM    7  C   UNL     1     -12.608   7.981  72.294  1.00  0.00    -0.270 A  
HETATM    8  C   UNL     1     -12.241   9.181  71.687  1.00  0.00    -0.433 A  
HETATM    9  C   UNL     1     -11.357   9.199  70.597  1.00  0.00    -0.273 A  
BRANCH   9  10
HETATM   10  O   UNL     1     -11.108  10.475  70.147  1.00  0.00    -0.285 OA 
BRANCH  10  11
HETATM   11  C   UNL     1     -12.100  11.109  69.340  1.00  0.00    -0.326 C  
BRANCH  11  12
HETATM   12  C   UNL     1     -11.673  11.065  67.867  1.00  0.00    -0.135 C  
BRANCH  12  13
HETATM   13  N   UNL     1     -10.252  10.766  67.628  1.00  0.00    -0.182 NA 
HETATM   14  H   UNL     1     -10.120   9.760  67.523  1.00  0.00     0.000 HD 
BRANCH  13  15
HETATM   15  C   UNL     1      -9.635  11.477  66.491  1.00  0.00    -0.205 C  
HETATM   16  C   UNL     1      -9.075  10.407  65.541  1.00  0.00    -0.208 C  
BRANCH  15  17
HETATM   17  C   UNL     1      -8.531  12.488  66.913  1.00  0.00    -0.130 C  
BRANCH  17  18
HETATM   18  C   UNL     1      -9.108  13.852  67.222  1.00  0.00    -0.230 A  
HETATM   19  C   UNL     1      -9.703  14.085  68.467  1.00  0.00    -0.215 A  
HETATM   20  C   UNL     1     -10.443  15.253  68.689  1.00  0.00    -0.235 A  
HETATM   21  C   UNL     1     -10.504  16.256  67.711  1.00  0.00    -0.295 A  
HETATM   22  C   UNL     1      -9.153  14.855  66.252  1.00  0.00    -0.262 A  
HETATM   23  C   UNL     1      -9.827  16.055  66.503  1.00  0.00    -0.284 A  
BRANCH  20  24
HETATM   24  S   UNL     1     -11.421  15.430  70.161  1.00  0.00    -0.351 S  
HETATM   25  O   UNL     1     -10.965  16.607  70.862  1.00  0.00    -0.052 OA 
HETATM   26  N   UNL     1     -12.961  15.817  69.609  1.00  0.00    -0.363 N  
HETATM   27  O   UNL     1     -11.568  14.131  70.776  1.00  0.00    -0.215 OA 
HETATM   28  H1  UNL     1     -13.523  15.919  70.454  1.00  0.00     0.000 HD 
HETATM   29  H2  UNL     1     -13.267  15.926  68.643  1.00  0.00     0.000 HD 
ENDBRANCH  20  24
BRANCH  21  30
HETATM   30  O   UNL     1     -11.232  17.374  68.008  1.00  0.00    -0.157 OA 
HETATM   31  C   UNL     1     -10.711  18.636  67.611  1.00  0.00    -0.376 C  
ENDBRANCH  21  30
ENDBRANCH  17  18
ENDBRANCH  15  17
ENDBRANCH  13  15
ENDBRANCH  12  13
ENDBRANCH  11  12
ENDBRANCH  10  11
ENDBRANCH   9  10
ENDBRANCH   3   4
ENDBRANCH   2   3
TORSDOF 11
ENDMDL
MODEL      188
REMARK 921   NORMALIZED FREE ENERGY PREDICTED BY IDOCK:   -4.59 KCAL/MOL
REMARK 922        TOTAL FREE ENERGY PREDICTED BY IDOCK:   -8.79 KCAL/MOL
REMARK 923 INTER-LIGAND FREE ENERGY PREDICTED BY IDOCK:   -7.69 KCAL/MOL
REMARK 924 INTRA-LIGAND FREE ENERGY PREDICTED BY IDOCK:   -1.09 KCAL/MOL
REMARK 927      BINDING AFFINITY PREDICTED BY RF-SCORE:    0.00 PKD
ROOT
HETATM    1  C   UNL     1      -6.959  15.397  69.323  1.00  0.00    -0.168 C  
HETATM    2  C   UNL     1      -7.089  16.596  68.396  1.00  0.00    -0.167 C  
ENDROOT
BRANCH   2   3
HETATM    3  O   UNL     1      -8.310  17.232  68.753  1.00  0.00    -0.266 OA 
BRANCH   3   4
HETATM    4  C   UNL     1      -8.935  18.081  67.890  1.00  0.00    -0.265 A  
HETATM    5  C   UNL     1      -8.669  19.456  67.837  1.00  0.00    -0.359 A  
HETATM    6  C   UNL     1      -9.359  20.287  66.950  1.00  0.00    -0.505 A  
HETATM    7  C   UNL     1     -10.325  19.751  66.102  1.00  0.00    -0.627 A  
HETATM    8  C   UNL     1     -10.590  18.383  66.137  1.00  0.00    -0.346 A  
HETATM    9  C   UNL     1      -9.901  17.536  67.018  1.00  0.00    -0.295 A  
BRANCH   9  10
HETATM   10  O   UNL     1     -10.292  16.222  66.893  1.00  0.00    -0.290 OA 
BRANCH  10  11
HETATM   11  C   UNL     1     -10.538  15.716  65.582  1.00  0.00    -0.378 C  
BRANCH  11  12
HETATM   12  C   UNL     1      -9.714  14.442  65.357  1.00  0.00    -0.121 C  
BRANCH  12  13
HETATM   13  N   UNL     1     -10.154  13.590  64.241  1.00  0.00    -0.771 NA 
HETATM   14  H   UNL     1      -9.373  13.411  63.609  1.00  0.00     0.000 HD 
BRANCH  13  15
HETATM   15  C   UNL     1     -10.795  12.318  64.625  1.00  0.00    -0.308 C  
HETATM   16  C   UNL     1     -12.114  12.224  63.841  1.00  0.00    -0.598 C  
BRANCH  15  17
HETATM   17  C   UNL     1     -11.039  12.179  66.155  1.00  0.00    -0.354 C  
BRANCH  17  18
HETATM   18  C   UNL     1     -10.315  10.984  66.732  1.00  0.00    -0.284 A  
HETATM   19  C   UNL     1      -9.049  10.641  66.245  1.00  0.00    -0.186 A  
HETATM   20  C   UNL     1      -8.465   9.417  66.594  1.00  0.00    -0.126 A  
HETATM   21  C   UNL     1      -9.084   8.570  67.523  1.00  0.00    -0.134 A  
HETATM   22  C   UNL     1     -10.928  10.150  67.669  1.00  0.00    -0.331 A  
HETATM   23  C   UNL     1     -10.307   8.964  68.077  1.00  0.00    -0.271 A  
BRANCH  20  24
HETATM   24  S   UNL     1      -6.993   8.857  65.771  1.00  0.00    -0.081 S  
HETATM   25  O   UNL     1      -6.356  10.003  65.167  1.00  0.00    -0.098 OA 
HETATM   26  N   UNL     1      -5.962   8.384  67.011  1.00  0.00    -0.052 N  
HETATM   27  O   UNL     1      -7.298   7.636  65.062  1.00  0.00    -0.066 OA 
HETATM   28  H1  UNL     1      -5.117   8.063  66.539  1.00  0.00     0.000 HD 
HETATM   29  H2  UNL     1      -6.140   8.412  68.015  1.00  0.00     0.000 HD 
ENDBRANCH  20  24
BRANCH  21  30
HETATM   30  O   UNL     1      -8.445   7.400  67.825  1.00  0.00    -0.118 OA 
HETATM   31  C   UNL     1      -8.438   6.973  69.181  1.00  0.00    -0.129 C  
ENDBRANCH  21  30
ENDBRANCH  17  18
ENDBRANCH  15  17
ENDBRANCH  13  15
ENDBRANCH  12  13
ENDBRANCH  11  12
ENDBRANCH  10  11
ENDBRANCH   9  10
ENDBRANCH   3   4
ENDBRANCH   2   3
TORSDOF 11
ENDMDL
MODEL      189
REMARK 921   NORMALIZED FREE ENERGY PREDICTED BY IDOCK:   -4.59 KCAL/MOL
REMARK 922        TOTAL FREE ENERGY PREDICTED BY IDOCK:   -8.78 KCAL/MOL
REMARK 923 INTER-LIGAND FREE ENERGY PREDICTED BY IDOCK:   -7.88 KCAL/MOL
REMARK 924 INTRA-LIGAND FREE ENERGY PREDICTED BY IDOCK:   -0.90 KCAL/MOL
REMARK 927      BINDING AFFINITY PREDICTED BY RF-SCORE:    0.00 PKD
ROOT
HETATM    1  C   UNL     1      -7.088  14.012  67.646  1.00  0.00    -0.193 C  
HETATM    2  C   UNL     1      -8.369  14.648  68.163  1.00  0.00    -0.144 C  
ENDROOT
BRANCH   2   3
HETATM    3  O   UNL     1      -8.933  15.341  67.055  1.00  0.00    -0.204 OA 
BRANCH   3   4
HETATM    4  C   UNL     1      -9.094  16.693  67.084  1.00  0.00    -0.214 A  
HETATM    5  C   UNL     1      -8.133  17.592  66.601  1.00  0.00    -0.289 A  
HETATM    6  C   UNL     1      -8.337  18.972  66.680  1.00  0.00    -0.310 A  
HETATM    7  C   UNL     1      -9.509  19.472  67.244  1.00  0.00    -0.422 A  
HETATM    8  C   UNL     1     -10.477  18.588  67.716  1.00  0.00    -0.443 A  
HETATM    9  C   UNL     1     -10.288  17.199  67.638  1.00  0.00    -0.344 A  
BRANCH   9  10
HETATM   10  O   UNL     1     -11.359  16.497  68.143  1.00  0.00    -0.308 OA 
BRANCH  10  11
HETATM   11  C   UNL     1     -11.324  16.113  69.516  1.00  0.00    -0.321 C  
BRANCH  11  12
HETATM   12  C   UNL     1     -12.186  14.862  69.726  1.00  0.00    -0.287 C  
BRANCH  12  13
HETATM   13  N   UNL     1     -11.466  13.665  70.190  1.00  0.00    -0.505 NA 
HETATM   14  H   UNL     1     -11.884  13.320  71.055  1.00  0.00     0.000 HD 
BRANCH  13  15
HETATM   15  C   UNL     1     -11.356  12.568  69.210  1.00  0.00    -0.245 C  
HETATM   16  C   UNL     1     -11.846  13.119  67.861  1.00  0.00    -0.390 C  
BRANCH  15  17
HETATM   17  C   UNL     1     -12.143  11.289  69.614  1.00  0.00    -0.391 C  
BRANCH  17  18
HETATM   18  C   UNL     1     -11.222  10.109  69.832  1.00  0.00    -0.343 A  
HETATM   19  C   UNL     1     -10.753   9.387  68.730  1.00  0.00    -0.200 A  
HETATM   20  C   UNL     1     -10.096   8.163  68.916  1.00  0.00    -0.202 A  
HETATM   21  C   UNL     1      -9.798   7.701  70.205  1.00  0.00    -0.184 A  
HETATM   22  C   UNL     1     -10.915   9.660  71.118  1.00  0.00    -0.430 A  
HETATM   23  C   UNL     1     -10.190   8.477  71.301  1.00  0.00    -0.287 A  
BRANCH  20  24
HETATM   24  S   UNL     1      -9.740   7.115  67.526  1.00  0.00    -0.151 S  
HETATM   25  O   UNL     1     -10.685   6.023  67.536  1.00  0.00    -0.247 OA 
HETATM   26  N   UNL     1     -10.148   8.035  66.179  1.00  0.00    -0.442 N  
HETATM   27  O   UNL     1      -8.309   6.942  67.433  1.00  0.00    -0.120 OA 
HETATM   28  H1  UNL     1      -9.944   7.433  65.382  1.00  0.00     0.000 HD 
HETATM   29  H2  UNL     1     -10.518   8.985  66.163  1.00  0.00     0.000 HD 
ENDBRANCH  20  24
BRANCH  21  30
HETATM   30  O   UNL     1      -9.141   6.507  70.305  1.00  0.00    -0.153 OA 
HETATM   31  C   UNL     1      -7.978   6.450  71.121  1.00  0.00    -0.116 C  
ENDBRANCH  21  30
ENDBRANCH  17  18
ENDBRANCH  15  17
ENDBRANCH  13  15
ENDBRANCH  12  13
ENDBRANCH  11  12
ENDBRANCH  10  11
ENDBRANCH   9  10
ENDBRANCH   3   4
ENDBRANCH   2   3
TORSDOF 11
ENDMDL
MODEL      190
REMARK 921   NORMALIZED FREE ENERGY PREDICTED BY IDOCK:   -4.58 KCAL/MOL
REMARK 922        TOTAL FREE ENERGY PREDICTED BY IDOCK:   -8.77 KCAL/MOL
REMARK 923 INTER-LIGAND FREE ENERGY PREDICTED BY IDOCK:   -7.83 KCAL/MOL
REMARK 924 INTRA-LIGAND FREE ENERGY PREDICTED BY IDOCK:   -0.94 KCAL/MOL
REMARK 927      BINDING AFFINITY PREDICTED BY RF-SCORE:    0.00 PKD
ROOT
HETATM    1  C   UNL     1     -11.704  15.659  71.532  1.00  0.00    -0.504 C  
HETATM    2  C   UNL     1     -11.888  15.908  70.043  1.00  0.00    -0.311 C  
ENDROOT
BRANCH   2   3
HETATM    3  O   UNL     1     -10.699  16.556  69.608  1.00  0.00    -0.322 OA 
BRANCH   3   4
HETATM    4  C   UNL     1     -10.623  17.124  68.372  1.00  0.00    -0.371 A  
HETATM    5  C   UNL     1     -10.642  18.509  68.160  1.00  0.00    -0.291 A  
HETATM    6  C   UNL     1     -10.589  19.039  66.868  1.00  0.00    -0.518 A  
HETATM    7  C   UNL     1     -10.515  18.187  65.768  1.00  0.00    -0.215 A  
HETATM    8  C   UNL     1     -10.483  16.807  65.967  1.00  0.00    -0.300 A  
HETATM    9  C   UNL     1     -10.530  16.262  67.260  1.00  0.00    -0.300 A  
BRANCH   9  10
HETATM   10  O   UNL     1     -10.474  14.887  67.248  1.00  0.00    -0.257 OA 
BRANCH  10  11
HETATM   11  C   UNL     1     -10.873  14.208  66.059  1.00  0.00    -0.297 C  
BRANCH  11  12
HETATM   12  C   UNL     1     -11.923  13.142  66.400  1.00  0.00    -0.402 C  
BRANCH  12  13
HETATM   13  N   UNL     1     -11.969  12.725  67.810  1.00  0.00    -0.318 NA 
HETATM   14  H   UNL     1     -12.904  12.879  68.189  1.00  0.00     0.000 HD 
BRANCH  13  15
HETATM   15  C   UNL     1     -11.537  11.341  68.080  1.00  0.00    -0.272 C  
HETATM   16  C   UNL     1     -11.979  11.002  69.512  1.00  0.00    -0.413 C  
BRANCH  15  17
HETATM   17  C   UNL     1     -10.009  11.116  67.894  1.00  0.00    -0.189 C  
BRANCH  17  18
HETATM   18  C   UNL     1      -9.721   9.971  66.949  1.00  0.00    -0.237 A  
HETATM   19  C   UNL     1     -10.170   8.684  67.266  1.00  0.00    -0.337 A  
HETATM   20  C   UNL     1      -9.720   7.579  66.533  1.00  0.00    -0.168 A  
HETATM   21  C   UNL     1      -8.907   7.754  65.405  1.00  0.00     0.049 A  
HETATM   22  C   UNL     1      -8.924  10.150  65.818  1.00  0.00    -0.187 A  
HETATM   23  C   UNL     1      -8.539   9.053  65.040  1.00  0.00    -0.207 A  
BRANCH  20  24
HETATM   24  S   UNL     1     -10.066   5.929  67.093  1.00  0.00    -0.202 S  
HETATM   25  O   UNL     1     -11.057   6.011  68.140  1.00  0.00    -0.306 OA 
HETATM   26  N   UNL     1     -10.851   5.193  65.802  1.00  0.00    -0.712 N  
HETATM   27  O   UNL     1      -8.817   5.213  67.219  1.00  0.00    -0.107 OA 
HETATM   28  H1  UNL     1     -11.050   4.246  66.124  1.00  0.00     0.000 HD 
HETATM   29  H2  UNL     1     -11.079   5.602  64.897  1.00  0.00     0.000 HD 
ENDBRANCH  20  24
BRANCH  21  30
HETATM   30  O   UNL     1      -8.522   6.628  64.731  1.00  0.00    -0.057 OA 
HETATM   31  C   UNL     1      -7.339   6.691  63.945  1.00  0.00    -0.078 C  
ENDBRANCH  21  30
ENDBRANCH  17  18
ENDBRANCH  15  17
ENDBRANCH  13  15
ENDBRANCH  12  13
ENDBRANCH  11  12
ENDBRANCH  10  11
ENDBRANCH   9  10
ENDBRANCH   3   4
ENDBRANCH   2   3
TORSDOF 11
ENDMDL
MODEL      191
REMARK 921   NORMALIZED FREE ENERGY PREDICTED BY IDOCK:   -4.58 KCAL/MOL
REMARK 922        TOTAL FREE ENERGY PREDICTED BY IDOCK:   -8.77 KCAL/MOL
REMARK 923 INTER-LIGAND FREE ENERGY PREDICTED BY IDOCK:   -8.11 KCAL/MOL
REMARK 924 INTRA-LIGAND FREE ENERGY PREDICTED BY IDOCK:   -0.66 KCAL/MOL
REMARK 927      BINDING AFFINITY PREDICTED BY RF-SCORE:    0.00 PKD
ROOT
HETATM    1  C   UNL     1     -11.218  15.539  64.514  1.00  0.00    -0.327 C  
HETATM    2  C   UNL     1     -10.381  16.202  65.597  1.00  0.00    -0.382 C  
ENDROOT
BRANCH   2   3
HETATM    3  O   UNL     1     -10.658  17.594  65.505  1.00  0.00    -0.622 OA 
BRANCH   3   4
HETATM    4  C   UNL     1     -10.259  18.453  66.483  1.00  0.00    -0.401 A  
HETATM    5  C   UNL     1      -9.548  19.634  66.225  1.00  0.00    -0.488 A  
HETATM    6  C   UNL     1      -9.138  20.467  67.270  1.00  0.00    -0.500 A  
HETATM    7  C   UNL     1      -9.437  20.130  68.588  1.00  0.00    -0.092 A  
HETATM    8  C   UNL     1     -10.155  18.966  68.856  1.00  0.00    -0.372 A  
HETATM    9  C   UNL     1     -10.577  18.122  67.816  1.00  0.00    -0.389 A  
BRANCH   9  10
HETATM   10  O   UNL     1     -11.281  17.034  68.280  1.00  0.00    -0.267 OA 
BRANCH  10  11
HETATM   11  C   UNL     1     -10.849  16.423  69.495  1.00  0.00    -0.338 C  
BRANCH  11  12
HETATM   12  C   UNL     1     -10.373  14.992  69.212  1.00  0.00    -0.246 C  
BRANCH  12  13
HETATM   13  N   UNL     1     -11.126  13.927  69.893  1.00  0.00    -0.465 NA 
HETATM   14  H   UNL     1     -11.737  14.331  70.603  1.00  0.00     0.000 HD 
BRANCH  13  15
HETATM   15  C   UNL     1     -11.899  13.032  69.011  1.00  0.00    -0.316 C  
HETATM   16  C   UNL     1     -11.897  11.642  69.667  1.00  0.00    -0.419 C  
BRANCH  15  17
HETATM   17  C   UNL     1     -11.356  12.967  67.555  1.00  0.00    -0.346 C  
BRANCH  17  18
HETATM   18  C   UNL     1     -10.446  11.777  67.348  1.00  0.00    -0.238 A  
HETATM   19  C   UNL     1      -9.061  11.938  67.467  1.00  0.00    -0.178 A  
HETATM   20  C   UNL     1      -8.194  10.918  67.055  1.00  0.00    -0.134 A  
HETATM   21  C   UNL     1      -8.698   9.683  66.626  1.00  0.00    -0.134 A  
HETATM   22  C   UNL     1     -10.951  10.543  66.935  1.00  0.00    -0.199 A  
HETATM   23  C   UNL     1     -10.084   9.498  66.598  1.00  0.00    -0.321 A  
BRANCH  20  24
HETATM   24  S   UNL     1      -6.445  11.215  66.949  1.00  0.00    -0.130 S  
HETATM   25  O   UNL     1      -5.778  10.266  67.809  1.00  0.00    -0.044 OA 
HETATM   26  N   UNL     1      -6.027  10.760  65.386  1.00  0.00    -0.304 N  
HETATM   27  O   UNL     1      -6.216  12.640  66.990  1.00  0.00    -0.250 OA 
HETATM   28  H1  UNL     1      -5.024  10.930  65.325  1.00  0.00     0.000 HD 
HETATM   29  H2  UNL     1      -6.641  10.394  64.658  1.00  0.00     0.000 HD 
ENDBRANCH  20  24
BRANCH  21  30
HETATM   30  O   UNL     1      -7.789   8.731  66.256  1.00  0.00    -0.099 OA 
HETATM   31  C   UNL     1      -7.821   7.478  66.927  1.00  0.00    -0.111 C  
ENDBRANCH  21  30
ENDBRANCH  17  18
ENDBRANCH  15  17
ENDBRANCH  13  15
ENDBRANCH  12  13
ENDBRANCH  11  12
ENDBRANCH  10  11
ENDBRANCH   9  10
ENDBRANCH   3   4
ENDBRANCH   2   3
TORSDOF 11
ENDMDL
MODEL      192
REMARK 921   NORMALIZED FREE ENERGY PREDICTED BY IDOCK:   -4.57 KCAL/MOL
REMARK 922        TOTAL FREE ENERGY PREDICTED BY IDOCK:   -8.76 KCAL/MOL
REMARK 923 INTER-LIGAND FREE ENERGY PREDICTED BY IDOCK:   -7.61 KCAL/MOL
REMARK 924 INTRA-LIGAND FREE ENERGY PREDICTED BY IDOCK:   -1.15 KCAL/MOL
REMARK 927      BINDING AFFINITY PREDICTED BY RF-SCORE:    0.00 PKD
ROOT
HETATM    1  C   UNL     1      -8.830   9.044  65.217  1.00  0.00    -0.234 C  
HETATM    2  C   UNL     1     -10.004   9.578  66.024  1.00  0.00    -0.278 C  
ENDROOT
BRANCH   2   3
HETATM    3  O   UNL     1      -9.719  10.952  66.259  1.00  0.00    -0.191 OA 
BRANCH   3   4
HETATM    4  C   UNL     1     -10.674  11.905  66.077  1.00  0.00    -0.285 A  
HETATM    5  C   UNL     1     -11.186  12.249  64.818  1.00  0.00    -0.364 A  
HETATM    6  C   UNL     1     -12.147  13.255  64.684  1.00  0.00    -0.458 A  
HETATM    7  C   UNL     1     -12.610  13.931  65.810  1.00  0.00    -0.533 A  
HETATM    8  C   UNL     1     -12.117  13.590  67.069  1.00  0.00    -0.401 A  
HETATM    9  C   UNL     1     -11.156  12.577  67.219  1.00  0.00    -0.274 A  
BRANCH   9  10
HETATM   10  O   UNL     1     -10.808  12.379  68.536  1.00  0.00    -0.225 OA 
BRANCH  10  11
HETATM   11  C   UNL     1     -11.850  12.123  69.475  1.00  0.00    -0.321 C  
BRANCH  11  12
HETATM   12  C   UNL     1     -11.804  10.652  69.911  1.00  0.00    -0.315 C  
BRANCH  12  13
HETATM   13  N   UNL     1     -13.076  10.093  70.393  1.00  0.00    -0.583 NA 
HETATM   14  H   UNL     1     -13.734  10.003  69.618  1.00  0.00     0.000 HD 
BRANCH  13  15
HETATM   15  C   UNL     1     -12.974   8.813  71.119  1.00  0.00    -0.095 C  
HETATM   16  C   UNL     1     -14.406   8.383  71.478  1.00  0.00    -0.499 C  
BRANCH  15  17
HETATM   17  C   UNL     1     -12.075   8.884  72.386  1.00  0.00    -0.344 C  
BRANCH  17  18
HETATM   18  C   UNL     1     -10.955   7.868  72.337  1.00  0.00    -0.386 A  
HETATM   19  C   UNL     1     -10.503   7.398  71.100  1.00  0.00    -0.220 A  
HETATM   20  C   UNL     1      -9.638   6.297  71.035  1.00  0.00    -0.175 A  
HETATM   21  C   UNL     1      -9.125   5.724  72.206  1.00  0.00    -0.142 A  
HETATM   22  C   UNL     1     -10.434   7.309  73.505  1.00  0.00    -0.421 A  
HETATM   23  C   UNL     1      -9.510   6.260  73.439  1.00  0.00    -0.146 A  
BRANCH  20  24
HETATM   24  S   UNL     1      -9.278   5.529  69.474  1.00  0.00    -0.124 S  
HETATM   25  O   UNL     1      -7.893   5.790  69.157  1.00  0.00    -0.088 OA 
HETATM   26  N   UNL     1      -9.355   3.878  69.780  1.00  0.00    -0.155 N  
HETATM   27  O   UNL     1     -10.374   5.786  68.570  1.00  0.00    -0.178 OA 
HETATM   28  H1  UNL     1      -9.148   3.438  68.885  1.00  0.00     0.000 HD 
HETATM   29  H2  UNL     1      -9.563   3.418  70.666  1.00  0.00     0.000 HD 
ENDBRANCH  20  24
BRANCH  21  30
HETATM   30  O   UNL     1      -8.274   4.664  72.062  1.00  0.00    -0.101 OA 
HETATM   31  C   UNL     1      -6.940   4.808  72.530  1.00  0.00    -0.074 C  
ENDBRANCH  21  30
ENDBRANCH  17  18
ENDBRANCH  15  17
ENDBRANCH  13  15
ENDBRANCH  12  13
ENDBRANCH  11  12
ENDBRANCH  10  11
ENDBRANCH   9  10
ENDBRANCH   3   4
ENDBRANCH   2   3
TORSDOF 11
ENDMDL
MODEL      193
REMARK 921   NORMALIZED FREE ENERGY PREDICTED BY IDOCK:   -4.57 KCAL/MOL
REMARK 922        TOTAL FREE ENERGY PREDICTED BY IDOCK:   -8.75 KCAL/MOL
REMARK 923 INTER-LIGAND FREE ENERGY PREDICTED BY IDOCK:   -7.85 KCAL/MOL
REMARK 924 INTRA-LIGAND FREE ENERGY PREDICTED BY IDOCK:   -0.91 KCAL/MOL
REMARK 927      BINDING AFFINITY PREDICTED BY RF-SCORE:    0.00 PKD
ROOT
HETATM    1  C   UNL     1      -8.984   6.292  67.398  1.00  0.00    -0.109 C  
HETATM    2  C   UNL     1      -8.573   7.006  66.119  1.00  0.00    -0.143 C  
ENDROOT
BRANCH   2   3
HETATM    3  O   UNL     1      -8.527   8.390  66.445  1.00  0.00    -0.114 OA 
BRANCH   3   4
HETATM    4  C   UNL     1      -9.117   9.318  65.642  1.00  0.00    -0.216 A  
HETATM    5  C   UNL     1      -8.891   9.394  64.261  1.00  0.00    -0.220 A  
HETATM    6  C   UNL     1      -9.502  10.384  63.487  1.00  0.00    -0.356 A  
HETATM    7  C   UNL     1     -10.350  11.312  64.086  1.00  0.00    -0.410 A  
HETATM    8  C   UNL     1     -10.593  11.239  65.456  1.00  0.00    -0.306 A  
HETATM    9  C   UNL     1      -9.991  10.247  66.246  1.00  0.00    -0.235 A  
BRANCH   9  10
HETATM   10  O   UNL     1     -10.364  10.332  67.567  1.00  0.00    -0.200 OA 
BRANCH  10  11
HETATM   11  C   UNL     1     -11.530  11.089  67.888  1.00  0.00    -0.282 C  
BRANCH  11  12
HETATM   12  C   UNL     1     -11.148  12.268  68.793  1.00  0.00    -0.251 C  
BRANCH  12  13
HETATM   13  N   UNL     1     -12.017  13.452  68.693  1.00  0.00    -0.351 NA 
HETATM   14  H   UNL     1     -12.496  13.608  69.580  1.00  0.00     0.000 HD 
BRANCH  13  15
HETATM   15  C   UNL     1     -11.353  14.693  68.252  1.00  0.00    -0.297 C  
HETATM   16  C   UNL     1     -11.235  14.622  66.722  1.00  0.00    -0.344 C  
BRANCH  15  17
HETATM   17  C   UNL     1      -9.964  14.927  68.912  1.00  0.00    -0.233 C  
BRANCH  17  18
HETATM   18  C   UNL     1      -9.162  15.978  68.177  1.00  0.00    -0.195 A  
HETATM   19  C   UNL     1      -9.677  17.272  68.046  1.00  0.00    -0.277 A  
HETATM   20  C   UNL     1      -9.069  18.189  67.179  1.00  0.00    -0.257 A  
HETATM   21  C   UNL     1      -7.875  17.865  66.520  1.00  0.00    -0.264 A  
HETATM   22  C   UNL     1      -7.966  15.656  67.534  1.00  0.00    -0.184 A  
HETATM   23  C   UNL     1      -7.317  16.600  66.730  1.00  0.00    -0.283 A  
BRANCH  20  24
HETATM   24  S   UNL     1      -9.866  19.731  66.801  1.00  0.00    -0.447 S  
HETATM   25  O   UNL     1     -10.892  19.959  67.791  1.00  0.00    -0.318 OA 
HETATM   26  N   UNL     1      -8.699  20.903  67.100  1.00  0.00    -0.555 N  
HETATM   27  O   UNL     1     -10.093  19.796  65.375  1.00  0.00    -0.309 OA 
HETATM   28  H1  UNL     1      -9.156  21.788  66.883  1.00  0.00     0.000 HD 
HETATM   29  H2  UNL     1      -7.743  20.761  67.427  1.00  0.00     0.000 HD 
ENDBRANCH  20  24
BRANCH  21  30
HETATM   30  O   UNL     1      -7.334  18.818  65.703  1.00  0.00    -0.474 OA 
HETATM   31  C   UNL     1      -5.929  18.791  65.484  1.00  0.00    -0.220 C  
ENDBRANCH  21  30
ENDBRANCH  17  18
ENDBRANCH  15  17
ENDBRANCH  13  15
ENDBRANCH  12  13
ENDBRANCH  11  12
ENDBRANCH  10  11
ENDBRANCH   9  10
ENDBRANCH   3   4
ENDBRANCH   2   3
TORSDOF 11
ENDMDL
MODEL      194
REMARK 921   NORMALIZED FREE ENERGY PREDICTED BY IDOCK:   -4.56 KCAL/MOL
REMARK 922        TOTAL FREE ENERGY PREDICTED BY IDOCK:   -8.74 KCAL/MOL
REMARK 923 INTER-LIGAND FREE ENERGY PREDICTED BY IDOCK:   -7.93 KCAL/MOL
REMARK 924 INTRA-LIGAND FREE ENERGY PREDICTED BY IDOCK:   -0.82 KCAL/MOL
REMARK 927      BINDING AFFINITY PREDICTED BY RF-SCORE:    0.00 PKD
ROOT
HETATM    1  C   UNL     1      -9.277  10.427  62.493  1.00  0.00    -0.318 C  
HETATM    2  C   UNL     1      -8.371   9.275  62.899  1.00  0.00    -0.193 C  
ENDROOT
BRANCH   2   3
HETATM    3  O   UNL     1      -8.137   9.438  64.293  1.00  0.00    -0.124 OA 
BRANCH   3   4
HETATM    4  C   UNL     1      -8.712   8.603  65.202  1.00  0.00    -0.144 A  
HETATM    5  C   UNL     1      -8.316   7.269  65.377  1.00  0.00    -0.127 A  
HETATM    6  C   UNL     1      -8.959   6.446  66.306  1.00  0.00    -0.166 A  
HETATM    7  C   UNL     1     -10.007   6.948  67.074  1.00  0.00    -0.257 A  
HETATM    8  C   UNL     1     -10.401   8.276  66.918  1.00  0.00    -0.391 A  
HETATM    9  C   UNL     1      -9.761   9.116  65.993  1.00  0.00    -0.287 A  
BRANCH   9  10
HETATM   10  O   UNL     1     -10.283  10.389  65.996  1.00  0.00    -0.243 OA 
BRANCH  10  11
HETATM   11  C   UNL     1     -11.230  10.725  67.009  1.00  0.00    -0.089 C  
BRANCH  11  12
HETATM   12  C   UNL     1     -10.643  11.805  67.927  1.00  0.00    -0.201 C  
BRANCH  12  13
HETATM   13  N   UNL     1     -11.582  12.390  68.898  1.00  0.00    -0.293 NA 
HETATM   14  H   UNL     1     -11.504  11.906  69.793  1.00  0.00     0.000 HD 
BRANCH  13  15
HETATM   15  C   UNL     1     -11.463  13.847  69.099  1.00  0.00    -0.299 C  
HETATM   16  C   UNL     1     -12.430  14.224  70.233  1.00  0.00    -0.422 C  
BRANCH  15  17
HETATM   17  C   UNL     1     -11.749  14.680  67.817  1.00  0.00    -0.386 C  
BRANCH  17  18
HETATM   18  C   UNL     1     -10.567  15.543  67.434  1.00  0.00    -0.292 A  
HETATM   19  C   UNL     1     -10.582  16.909  67.739  1.00  0.00    -0.340 A  
HETATM   20  C   UNL     1      -9.616  17.765  67.194  1.00  0.00    -0.276 A  
HETATM   21  C   UNL     1      -8.557  17.253  66.433  1.00  0.00    -0.259 A  
HETATM   22  C   UNL     1      -9.506  15.028  66.689  1.00  0.00    -0.288 A  
HETATM   23  C   UNL     1      -8.498  15.873  66.211  1.00  0.00    -0.302 A  
BRANCH  20  24
HETATM   24  S   UNL     1      -9.786  19.526  67.353  1.00  0.00    -0.363 S  
HETATM   25  O   UNL     1     -10.478  19.799  68.590  1.00  0.00    -0.385 OA 
HETATM   26  N   UNL     1      -8.220  20.088  67.593  1.00  0.00    -0.308 N  
HETATM   27  O   UNL     1     -10.178  20.068  66.073  1.00  0.00    -0.474 OA 
HETATM   28  H1  UNL     1      -8.317  21.099  67.684  1.00  0.00     0.000 HD 
HETATM   29  H2  UNL     1      -7.361  19.540  67.638  1.00  0.00     0.000 HD 
ENDBRANCH  20  24
BRANCH  21  30
HETATM   30  O   UNL     1      -7.645  18.148  65.949  1.00  0.00    -0.471 OA 
HETATM   31  C   UNL     1      -6.271  17.782  65.972  1.00  0.00    -0.228 C  
ENDBRANCH  21  30
ENDBRANCH  17  18
ENDBRANCH  15  17
ENDBRANCH  13  15
ENDBRANCH  12  13
ENDBRANCH  11  12
ENDBRANCH  10  11
ENDBRANCH   9  10
ENDBRANCH   3   4
ENDBRANCH   2   3
TORSDOF 11
ENDMDL
MODEL      195
REMARK 921   NORMALIZED FREE ENERGY PREDICTED BY IDOCK:   -4.56 KCAL/MOL
REMARK 922        TOTAL FREE ENERGY PREDICTED BY IDOCK:   -8.73 KCAL/MOL
REMARK 923 INTER-LIGAND FREE ENERGY PREDICTED BY IDOCK:   -6.99 KCAL/MOL
REMARK 924 INTRA-LIGAND FREE ENERGY PREDICTED BY IDOCK:   -1.74 KCAL/MOL
REMARK 927      BINDING AFFINITY PREDICTED BY RF-SCORE:    0.00 PKD
ROOT
HETATM    1  C   UNL     1     -12.071  15.920  71.488  1.00  0.00    -0.533 C  
HETATM    2  C   UNL     1     -11.392  15.199  70.334  1.00  0.00    -0.290 C  
ENDROOT
BRANCH   2   3
HETATM    3  O   UNL     1     -12.083  15.609  69.160  1.00  0.00    -0.344 OA 
BRANCH   3   4
HETATM    4  C   UNL     1     -11.631  15.258  67.924  1.00  0.00    -0.289 A  
HETATM    5  C   UNL     1     -12.029  14.087  67.265  1.00  0.00    -0.448 A  
HETATM    6  C   UNL     1     -11.513  13.761  66.007  1.00  0.00    -0.336 A  
HETATM    7  C   UNL     1     -10.592  14.605  65.392  1.00  0.00    -0.390 A  
HETATM    8  C   UNL     1     -10.198  15.779  66.032  1.00  0.00    -0.352 A  
HETATM    9  C   UNL     1     -10.712  16.122  67.293  1.00  0.00    -0.277 A  
BRANCH   9  10
HETATM   10  O   UNL     1     -10.214  17.320  67.751  1.00  0.00    -0.303 OA 
BRANCH  10  11
HETATM   11  C   UNL     1      -8.897  17.697  67.352  1.00  0.00    -0.235 C  
BRANCH  11  12
HETATM   12  C   UNL     1      -7.899  17.341  68.461  1.00  0.00    -0.266 C  
BRANCH  12  13
HETATM   13  N   UNL     1      -8.289  16.218  69.329  1.00  0.00    -0.200 NA 
HETATM   14  H   UNL     1      -9.260  15.961  69.151  1.00  0.00     0.000 HD 
BRANCH  13  15
HETATM   15  C   UNL     1      -7.428  15.022  69.248  1.00  0.00    -0.188 C  
HETATM   16  C   UNL     1      -6.100  15.377  69.935  1.00  0.00    -0.152 C  
BRANCH  15  17
HETATM   17  C   UNL     1      -7.193  14.520  67.795  1.00  0.00    -0.192 C  
BRANCH  17  18
HETATM   18  C   UNL     1      -7.503  13.046  67.654  1.00  0.00    -0.156 A  
HETATM   19  C   UNL     1      -8.713  12.545  68.145  1.00  0.00    -0.190 A  
HETATM   20  C   UNL     1      -8.920  11.162  68.236  1.00  0.00    -0.166 A  
HETATM   21  C   UNL     1      -7.970  10.264  67.732  1.00  0.00    -0.102 A  
HETATM   22  C   UNL     1      -6.561  12.155  67.137  1.00  0.00    -0.127 A  
HETATM   23  C   UNL     1      -6.803  10.777  67.157  1.00  0.00    -0.086 A  
BRANCH  20  24
HETATM   24  S   UNL     1     -10.331  10.521  69.104  1.00  0.00    -0.231 S  
HETATM   25  O   UNL     1      -9.855   9.811  70.268  1.00  0.00    -0.250 OA 
HETATM   26  N   UNL     1     -11.117  11.878  69.709  1.00  0.00    -0.475 N  
HETATM   27  O   UNL     1     -11.252   9.964  68.140  1.00  0.00    -0.207 OA 
HETATM   28  H1  UNL     1     -11.926  11.510  70.207  1.00  0.00     0.000 HD 
HETATM   29  H2  UNL     1     -10.844  12.855  69.601  1.00  0.00     0.000 HD 
ENDBRANCH  20  24
BRANCH  21  30
HETATM   30  O   UNL     1      -8.251   8.931  67.841  1.00  0.00    -0.109 OA 
HETATM   31  C   UNL     1      -7.202   8.057  68.238  1.00  0.00    -0.093 C  
ENDBRANCH  21  30
ENDBRANCH  17  18
ENDBRANCH  15  17
ENDBRANCH  13  15
ENDBRANCH  12  13
ENDBRANCH  11  12
ENDBRANCH  10  11
ENDBRANCH   9  10
ENDBRANCH   3   4
ENDBRANCH   2   3
TORSDOF 11
ENDMDL
MODEL      196
REMARK 921   NORMALIZED FREE ENERGY PREDICTED BY IDOCK:   -4.55 KCAL/MOL
REMARK 922        TOTAL FREE ENERGY PREDICTED BY IDOCK:   -8.73 KCAL/MOL
REMARK 923 INTER-LIGAND FREE ENERGY PREDICTED BY IDOCK:   -7.24 KCAL/MOL
REMARK 924 INTRA-LIGAND FREE ENERGY PREDICTED BY IDOCK:   -1.48 KCAL/MOL
REMARK 927      BINDING AFFINITY PREDICTED BY RF-SCORE:    0.00 PKD
ROOT
HETATM    1  C   UNL     1     -10.069   6.126  72.253  1.00  0.00    -0.201 C  
HETATM    2  C   UNL     1     -11.585   6.028  72.330  1.00  0.00    -0.307 C  
ENDROOT
BRANCH   2   3
HETATM    3  O   UNL     1     -12.076   6.706  71.180  1.00  0.00    -0.360 OA 
BRANCH   3   4
HETATM    4  C   UNL     1     -12.166   8.065  71.155  1.00  0.00    -0.245 A  
HETATM    5  C   UNL     1     -13.035   8.793  71.980  1.00  0.00    -0.437 A  
HETATM    6  C   UNL     1     -13.107  10.186  71.893  1.00  0.00    -0.571 A  
HETATM    7  C   UNL     1     -12.307  10.870  70.980  1.00  0.00    -0.498 A  
HETATM    8  C   UNL     1     -11.430  10.158  70.164  1.00  0.00    -0.368 A  
HETATM    9  C   UNL     1     -11.343   8.759  70.243  1.00  0.00    -0.147 A  
BRANCH   9  10
HETATM   10  O   UNL     1     -10.414   8.243  69.369  1.00  0.00    -0.220 OA 
BRANCH  10  11
HETATM   11  C   UNL     1      -9.051   8.634  69.529  1.00  0.00    -0.146 C  
BRANCH  11  12
HETATM   12  C   UNL     1      -8.379   8.740  68.154  1.00  0.00    -0.122 C  
BRANCH  12  13
HETATM   13  N   UNL     1      -9.291   8.943  67.016  1.00  0.00    -0.146 NA 
HETATM   14  H   UNL     1     -10.219   8.586  67.245  1.00  0.00     0.000 HD 
BRANCH  13  15
HETATM   15  C   UNL     1      -9.391  10.329  66.520  1.00  0.00    -0.166 C  
HETATM   16  C   UNL     1      -9.947  10.255  65.089  1.00  0.00    -0.395 C  
BRANCH  15  17
HETATM   17  C   UNL     1      -8.044  11.105  66.561  1.00  0.00    -0.163 C  
BRANCH  17  18
HETATM   18  C   UNL     1      -8.171  12.409  67.318  1.00  0.00    -0.184 A  
HETATM   19  C   UNL     1      -9.428  13.008  67.456  1.00  0.00    -0.198 A  
HETATM   20  C   UNL     1      -9.537  14.317  67.943  1.00  0.00    -0.221 A  
HETATM   21  C   UNL     1      -8.406  15.002  68.406  1.00  0.00    -0.154 A  
HETATM   22  C   UNL     1      -7.044  13.083  67.791  1.00  0.00    -0.139 A  
HETATM   23  C   UNL     1      -7.164  14.360  68.350  1.00  0.00    -0.114 A  
BRANCH  20  24
HETATM   24  S   UNL     1     -11.089  15.177  67.867  1.00  0.00    -0.331 S  
HETATM   25  O   UNL     1     -12.138  14.195  67.725  1.00  0.00    -0.367 OA 
HETATM   26  N   UNL     1     -11.298  15.824  69.404  1.00  0.00    -0.321 N  
HETATM   27  O   UNL     1     -10.938  16.325  67.003  1.00  0.00    -0.231 OA 
HETATM   28  H1  UNL     1     -12.189  16.317  69.360  1.00  0.00     0.000 HD 
HETATM   29  H2  UNL     1     -10.672  15.741  70.205  1.00  0.00     0.000 HD 
ENDBRANCH  20  24
BRANCH  21  30
HETATM   30  O   UNL     1      -8.594  16.270  68.882  1.00  0.00    -0.236 OA 
HETATM   31  C   UNL     1      -7.788  17.312  68.348  1.00  0.00    -0.254 C  
ENDBRANCH  21  30
ENDBRANCH  17  18
ENDBRANCH  15  17
ENDBRANCH  13  15
ENDBRANCH  12  13
ENDBRANCH  11  12
ENDBRANCH  10  11
ENDBRANCH   9  10
ENDBRANCH   3   4
ENDBRANCH   2   3
TORSDOF 11
ENDMDL
MODEL      197
REMARK 921   NORMALIZED FREE ENERGY PREDICTED BY IDOCK:   -4.53 KCAL/MOL
REMARK 922        TOTAL FREE ENERGY PREDICTED BY IDOCK:   -8.68 KCAL/MOL
REMARK 923 INTER-LIGAND FREE ENERGY PREDICTED BY IDOCK:   -7.52 KCAL/MOL
REMARK 924 INTRA-LIGAND FREE ENERGY PREDICTED BY IDOCK:   -1.17 KCAL/MOL
REMARK 927      BINDING AFFINITY PREDICTED BY RF-SCORE:    0.00 PKD
ROOT
HETATM    1  C   UNL     1     -11.838  10.625  70.258  1.00  0.00    -0.430 C  
HETATM    2  C   UNL     1     -11.442   9.532  71.238  1.00  0.00    -0.377 C  
ENDROOT
BRANCH   2   3
HETATM    3  O   UNL     1     -11.214   8.369  70.451  1.00  0.00    -0.256 OA 
BRANCH   3   4
HETATM    4  C   UNL     1     -11.060   7.149  71.035  1.00  0.00    -0.260 A  
HETATM    5  C   UNL     1     -11.487   6.861  72.339  1.00  0.00    -0.297 A  
HETATM    6  C   UNL     1     -11.280   5.598  72.900  1.00  0.00    -0.338 A  
HETATM    7  C   UNL     1     -10.642   4.604  72.162  1.00  0.00    -0.175 A  
HETATM    8  C   UNL     1     -10.223   4.874  70.860  1.00  0.00    -0.272 A  
HETATM    9  C   UNL     1     -10.430   6.136  70.281  1.00  0.00    -0.229 A  
BRANCH   9  10
HETATM   10  O   UNL     1      -9.961   6.201  68.989  1.00  0.00    -0.141 OA 
BRANCH  10  11
HETATM   11  C   UNL     1     -10.906   6.406  67.941  1.00  0.00    -0.322 C  
BRANCH  11  12
HETATM   12  C   UNL     1     -10.344   7.411  66.927  1.00  0.00    -0.296 C  
BRANCH  12  13
HETATM   13  N   UNL     1     -10.029   8.744  67.463  1.00  0.00    -0.183 NA 
HETATM   14  H   UNL     1     -10.523   8.892  68.344  1.00  0.00     0.000 HD 
BRANCH  13  15
HETATM   15  C   UNL     1      -8.593   9.038  67.635  1.00  0.00    -0.120 C  
HETATM   16  C   UNL     1      -8.414   9.593  69.057  1.00  0.00    -0.131 C  
BRANCH  15  17
HETATM   17  C   UNL     1      -8.025  10.021  66.572  1.00  0.00    -0.115 C  
BRANCH  17  18
HETATM   18  C   UNL     1      -8.415  11.452  66.867  1.00  0.00    -0.157 A  
HETATM   19  C   UNL     1      -9.729  11.873  66.632  1.00  0.00    -0.220 A  
HETATM   20  C   UNL     1     -10.052  13.235  66.675  1.00  0.00    -0.266 A  
HETATM   21  C   UNL     1      -9.097  14.184  67.063  1.00  0.00    -0.243 A  
HETATM   22  C   UNL     1      -7.465  12.393  67.268  1.00  0.00    -0.135 A  
HETATM   23  C   UNL     1      -7.809  13.744  67.386  1.00  0.00    -0.167 A  
BRANCH  20  24
HETATM   24  S   UNL     1     -11.642  13.798  66.115  1.00  0.00    -0.369 S  
HETATM   25  O   UNL     1     -12.513  12.651  66.016  1.00  0.00    -0.555 OA 
HETATM   26  N   UNL     1     -12.251  14.703  67.394  1.00  0.00    -0.556 N  
HETATM   27  O   UNL     1     -11.444  14.754  65.051  1.00  0.00    -0.361 OA 
HETATM   28  H1  UNL     1     -13.164  15.026  67.073  1.00  0.00     0.000 HD 
HETATM   29  H2  UNL     1     -11.807  14.889  68.293  1.00  0.00     0.000 HD 
ENDBRANCH  20  24
BRANCH  21  30
HETATM   30  O   UNL     1      -9.493  15.492  67.096  1.00  0.00    -0.209 OA 
HETATM   31  C   UNL     1      -8.781  16.426  66.295  1.00  0.00    -0.334 C  
ENDBRANCH  21  30
ENDBRANCH  17  18
ENDBRANCH  15  17
ENDBRANCH  13  15
ENDBRANCH  12  13
ENDBRANCH  11  12
ENDBRANCH  10  11
ENDBRANCH   9  10
ENDBRANCH   3   4
ENDBRANCH   2   3
TORSDOF 11
ENDMDL
MODEL      198
REMARK 921   NORMALIZED FREE ENERGY PREDICTED BY IDOCK:   -4.53 KCAL/MOL
REMARK 922        TOTAL FREE ENERGY PREDICTED BY IDOCK:   -8.68 KCAL/MOL
REMARK 923 INTER-LIGAND FREE ENERGY PREDICTED BY IDOCK:   -8.00 KCAL/MOL
REMARK 924 INTRA-LIGAND FREE ENERGY PREDICTED BY IDOCK:   -0.69 KCAL/MOL
REMARK 927      BINDING AFFINITY PREDICTED BY RF-SCORE:    0.00 PKD
ROOT
HETATM    1  C   UNL     1     -11.049   6.392  68.741  1.00  0.00    -0.404 C  
HETATM    2  C   UNL     1     -10.709   5.804  70.102  1.00  0.00    -0.320 C  
ENDROOT
BRANCH   2   3
HETATM    3  O   UNL     1     -10.717   6.898  71.011  1.00  0.00    -0.225 OA 
BRANCH   3   4
HETATM    4  C   UNL     1     -11.885   7.493  71.379  1.00  0.00    -0.294 A  
HETATM    5  C   UNL     1     -13.076   6.784  71.589  1.00  0.00    -0.258 A  
HETATM    6  C   UNL     1     -14.254   7.448  71.940  1.00  0.00    -0.474 A  
HETATM    7  C   UNL     1     -14.256   8.833  72.088  1.00  0.00    -0.504 A  
HETATM    8  C   UNL     1     -13.075   9.548  71.894  1.00  0.00    -0.517 A  
HETATM    9  C   UNL     1     -11.883   8.894  71.547  1.00  0.00    -0.332 A  
BRANCH   9  10
HETATM   10  O   UNL     1     -10.827   9.767  71.414  1.00  0.00    -0.308 OA 
BRANCH  10  11
HETATM   11  C   UNL     1     -10.334  10.030  70.101  1.00  0.00    -0.266 C  
BRANCH  11  12
HETATM   12  C   UNL     1      -8.871   9.579  69.999  1.00  0.00    -0.223 C  
BRANCH  12  13
HETATM   13  N   UNL     1      -7.869  10.655  70.070  1.00  0.00    -0.382 NA 
HETATM   14  H   UNL     1      -7.056  10.340  70.600  1.00  0.00     0.000 HD 
BRANCH  13  15
HETATM   15  C   UNL     1      -7.442  11.213  68.773  1.00  0.00    -0.118 C  
HETATM   16  C   UNL     1      -6.011  10.714  68.518  1.00  0.00    -0.039 C  
BRANCH  15  17
HETATM   17  C   UNL     1      -7.516  12.765  68.707  1.00  0.00    -0.048 C  
BRANCH  17  18
HETATM   18  C   UNL     1      -8.494  13.236  67.653  1.00  0.00    -0.191 A  
HETATM   19  C   UNL     1      -9.109  12.299  66.814  1.00  0.00    -0.211 A  
HETATM   20  C   UNL     1      -9.830  12.724  65.691  1.00  0.00    -0.179 A  
HETATM   21  C   UNL     1     -10.043  14.088  65.453  1.00  0.00    -0.319 A  
HETATM   22  C   UNL     1      -8.716  14.595  67.427  1.00  0.00    -0.209 A  
HETATM   23  C   UNL     1      -9.502  15.016  66.349  1.00  0.00    -0.325 A  
BRANCH  20  24
HETATM   24  S   UNL     1     -10.379  11.546  64.479  1.00  0.00    -0.325 S  
HETATM   25  O   UNL     1      -9.432  11.550  63.390  1.00  0.00    -0.287 OA 
HETATM   26  N   UNL     1     -10.191  10.049  65.220  1.00  0.00    -0.244 N  
HETATM   27  O   UNL     1     -11.806  11.693  64.307  1.00  0.00    -0.250 OA 
HETATM   28  H1  UNL     1     -10.506   9.373  64.525  1.00  0.00     0.000 HD 
HETATM   29  H2  UNL     1      -9.840   9.858  66.158  1.00  0.00     0.000 HD 
ENDBRANCH  20  24
BRANCH  21  30
HETATM   30  O   UNL     1     -10.770  14.423  64.345  1.00  0.00    -0.296 OA 
HETATM   31  C   UNL     1     -12.129  14.802  64.526  1.00  0.00    -0.446 C  
ENDBRANCH  21  30
ENDBRANCH  17  18
ENDBRANCH  15  17
ENDBRANCH  13  15
ENDBRANCH  12  13
ENDBRANCH  11  12
ENDBRANCH  10  11
ENDBRANCH   9  10
ENDBRANCH   3   4
ENDBRANCH   2   3
TORSDOF 11
ENDMDL
MODEL      199
REMARK 921   NORMALIZED FREE ENERGY PREDICTED BY IDOCK:   -4.51 KCAL/MOL
REMARK 922        TOTAL FREE ENERGY PREDICTED BY IDOCK:   -8.66 KCAL/MOL
REMARK 923 INTER-LIGAND FREE ENERGY PREDICTED BY IDOCK:   -7.62 KCAL/MOL
REMARK 924 INTRA-LIGAND FREE ENERGY PREDICTED BY IDOCK:   -1.04 KCAL/MOL
REMARK 927      BINDING AFFINITY PREDICTED BY RF-SCORE:    0.00 PKD
ROOT
HETATM    1  C   UNL     1      -9.218   3.170  71.317  1.00  0.00    -0.193 C  
HETATM    2  C   UNL     1      -9.151   4.405  70.431  1.00  0.00    -0.106 C  
ENDROOT
BRANCH   2   3
HETATM    3  O   UNL     1     -10.414   5.045  70.561  1.00  0.00    -0.240 OA 
BRANCH   3   4
HETATM    4  C   UNL     1     -10.517   6.279  71.128  1.00  0.00    -0.223 A  
HETATM    5  C   UNL     1     -11.190   6.517  72.335  1.00  0.00    -0.310 A  
HETATM    6  C   UNL     1     -11.290   7.808  72.858  1.00  0.00    -0.406 A  
HETATM    7  C   UNL     1     -10.715   8.882  72.181  1.00  0.00    -0.323 A  
HETATM    8  C   UNL     1     -10.033   8.656  70.986  1.00  0.00    -0.272 A  
HETATM    9  C   UNL     1      -9.920   7.363  70.451  1.00  0.00    -0.188 A  
BRANCH   9  10
HETATM   10  O   UNL     1      -9.201   7.345  69.278  1.00  0.00    -0.148 OA 
BRANCH  10  11
HETATM   11  C   UNL     1      -9.921   7.245  68.050  1.00  0.00    -0.157 C  
BRANCH  11  12
HETATM   12  C   UNL     1      -9.537   8.411  67.130  1.00  0.00    -0.179 C  
BRANCH  12  13
HETATM   13  N   UNL     1     -10.650   9.028  66.391  1.00  0.00    -0.114 NA 
HETATM   14  H   UNL     1     -11.513   8.953  66.932  1.00  0.00     0.000 HD 
BRANCH  13  15
HETATM   15  C   UNL     1     -10.438  10.426  65.970  1.00  0.00    -0.140 C  
HETATM   16  C   UNL     1      -9.695  10.383  64.625  1.00  0.00    -0.392 C  
BRANCH  15  17
HETATM   17  C   UNL     1      -9.663  11.281  67.013  1.00  0.00    -0.208 C  
BRANCH  17  18
HETATM   18  C   UNL     1     -10.591  11.884  68.044  1.00  0.00    -0.234 A  
HETATM   19  C   UNL     1     -10.697  13.275  68.148  1.00  0.00    -0.264 A  
HETATM   20  C   UNL     1     -11.363  13.854  69.237  1.00  0.00    -0.272 A  
HETATM   21  C   UNL     1     -12.028  13.052  70.174  1.00  0.00    -0.303 A  
HETATM   22  C   UNL     1     -11.266  11.083  68.967  1.00  0.00    -0.320 A  
HETATM   23  C   UNL     1     -11.996  11.664  70.010  1.00  0.00    -0.429 A  
BRANCH  20  24
HETATM   24  S   UNL     1     -11.268  15.605  69.519  1.00  0.00    -0.344 S  
HETATM   25  O   UNL     1     -10.972  16.246  68.259  1.00  0.00    -0.323 OA 
HETATM   26  N   UNL     1     -12.842  16.067  69.887  1.00  0.00    -0.555 N  
HETATM   27  O   UNL     1     -10.524  15.837  70.735  1.00  0.00    -0.116 OA 
HETATM   28  H1  UNL     1     -12.788  17.072  70.048  1.00  0.00     0.000 HD 
HETATM   29  H2  UNL     1     -13.670  15.473  69.937  1.00  0.00     0.000 HD 
ENDBRANCH  20  24
BRANCH  21  30
HETATM   30  O   UNL     1     -12.669  13.691  71.199  1.00  0.00    -0.341 OA 
HETATM   31  C   UNL     1     -13.357  12.895  72.156  1.00  0.00    -0.515 C  
ENDBRANCH  21  30
ENDBRANCH  17  18
ENDBRANCH  15  17
ENDBRANCH  13  15
ENDBRANCH  12  13
ENDBRANCH  11  12
ENDBRANCH  10  11
ENDBRANCH   9  10
ENDBRANCH   3   4
ENDBRANCH   2   3
TORSDOF 11
ENDMDL
MODEL      200
REMARK 921   NORMALIZED FREE ENERGY PREDICTED BY IDOCK:   -4.51 KCAL/MOL
REMARK 922        TOTAL FREE ENERGY PREDICTED BY IDOCK:   -8.66 KCAL/MOL
REMARK 923 INTER-LIGAND FREE ENERGY PREDICTED BY IDOCK:   -7.80 KCAL/MOL
REMARK 924 INTRA-LIGAND FREE ENERGY PREDICTED BY IDOCK:   -0.86 KCAL/MOL
REMARK 927      BINDING AFFINITY PREDICTED BY RF-SCORE:    0.00 PKD
ROOT
HETATM    1  C   UNL     1      -9.385   2.934  68.208  1.00  0.00    -0.253 C  
HETATM    2  C   UNL     1      -9.067   4.420  68.157  1.00  0.00    -0.127 C  
ENDROOT
BRANCH   2   3
HETATM    3  O   UNL     1      -9.824   4.942  67.071  1.00  0.00    -0.162 OA 
BRANCH   3   4
HETATM    4  C   UNL     1      -9.228   5.242  65.884  1.00  0.00    -0.159 A  
HETATM    5  C   UNL     1      -9.094   4.319  64.837  1.00  0.00    -0.148 A  
HETATM    6  C   UNL     1      -8.449   4.672  63.648  1.00  0.00    -0.125 A  
HETATM    7  C   UNL     1      -7.931   5.955  63.490  1.00  0.00    -0.113 A  
HETATM    8  C   UNL     1      -8.070   6.885  64.519  1.00  0.00    -0.069 A  
HETATM    9  C   UNL     1      -8.720   6.547  65.717  1.00  0.00    -0.120 A  
BRANCH   9  10
HETATM   10  O   UNL     1      -8.767   7.601  66.601  1.00  0.00    -0.129 OA 
BRANCH  10  11
HETATM   11  C   UNL     1      -9.987   8.332  66.709  1.00  0.00    -0.285 C  
BRANCH  11  12
HETATM   12  C   UNL     1     -10.320   8.567  68.188  1.00  0.00    -0.206 C  
BRANCH  12  13
HETATM   13  N   UNL     1      -9.720   9.769  68.790  1.00  0.00    -0.157 NA 
HETATM   14  H   UNL     1      -9.393  10.400  68.058  1.00  0.00     0.000 HD 
BRANCH  13  15
HETATM   15  C   UNL     1     -10.580  10.500  69.741  1.00  0.00    -0.227 C  
HETATM   16  C   UNL     1     -10.865   9.549  70.914  1.00  0.00    -0.407 C  
BRANCH  15  17
HETATM   17  C   UNL     1     -11.900  11.028  69.110  1.00  0.00    -0.407 C  
BRANCH  17  18
HETATM   18  C   UNL     1     -11.690  12.337  68.381  1.00  0.00    -0.390 A  
HETATM   19  C   UNL     1     -12.032  12.436  67.029  1.00  0.00    -0.257 A  
HETATM   20  C   UNL     1     -11.635  13.552  66.280  1.00  0.00    -0.345 A  
HETATM   21  C   UNL     1     -10.993  14.634  66.898  1.00  0.00    -0.324 A  
HETATM   22  C   UNL     1     -11.064  13.418  69.003  1.00  0.00    -0.293 A  
HETATM   23  C   UNL     1     -10.738  14.566  68.271  1.00  0.00    -0.243 A  
BRANCH  20  24
HETATM   24  S   UNL     1     -11.826  13.563  64.514  1.00  0.00    -0.425 S  
HETATM   25  O   UNL     1     -10.584  13.115  63.928  1.00  0.00    -0.361 OA 
HETATM   26  N   UNL     1     -12.930  12.336  64.194  1.00  0.00    -0.721 N  
HETATM   27  O   UNL     1     -12.506  14.778  64.130  1.00  0.00    -0.758 OA 
HETATM   28  H1  UNL     1     -13.039  12.342  63.180  1.00  0.00     0.000 HD 
HETATM   29  H2  UNL     1     -13.389  11.721  64.865  1.00  0.00     0.000 HD 
ENDBRANCH  20  24
BRANCH  21  30
HETATM   30  O   UNL     1     -10.652  15.694  66.105  1.00  0.00    -0.305 OA 
HETATM   31  C   UNL     1      -9.270  15.970  65.916  1.00  0.00    -0.286 C  
ENDBRANCH  21  30
ENDBRANCH  17  18
ENDBRANCH  15  17
ENDBRANCH  13  15
ENDBRANCH  12  13
ENDBRANCH  11  12
ENDBRANCH  10  11
ENDBRANCH   9  10
ENDBRANCH   3   4
ENDBRANCH   2   3
TORSDOF 11
ENDMDL
MODEL      201
REMARK 921   NORMALIZED FREE ENERGY PREDICTED BY IDOCK:   -4.51 KCAL/MOL
REMARK 922        TOTAL FREE ENERGY PREDICTED BY IDOCK:   -8.65 KCAL/MOL
REMARK 923 INTER-LIGAND FREE ENERGY PREDICTED BY IDOCK:   -7.60 KCAL/MOL
REMARK 924 INTRA-LIGAND FREE ENERGY PREDICTED BY IDOCK:   -1.05 KCAL/MOL
REMARK 927      BINDING AFFINITY PREDICTED BY RF-SCORE:    0.00 PKD
ROOT
HETATM    1  C   UNL     1     -11.651   7.938  72.594  1.00  0.00    -0.435 C  
HETATM    2  C   UNL     1     -10.433   7.218  73.150  1.00  0.00    -0.339 C  
ENDROOT
BRANCH   2   3
HETATM    3  O   UNL     1     -10.117   6.202  72.205  1.00  0.00    -0.182 OA 
BRANCH   3   4
HETATM    4  C   UNL     1     -10.294   4.886  72.507  1.00  0.00    -0.201 A  
HETATM    5  C   UNL     1     -10.768   4.440  73.749  1.00  0.00    -0.344 A  
HETATM    6  C   UNL     1     -10.905   3.075  74.016  1.00  0.00    -0.267 A  
HETATM    7  C   UNL     1     -10.570   2.137  73.042  1.00  0.00    -0.245 A  
HETATM    8  C   UNL     1     -10.110   2.569  71.799  1.00  0.00    -0.122 A  
HETATM    9  C   UNL     1      -9.972   3.937  71.515  1.00  0.00    -0.139 A  
BRANCH   9  10
HETATM   10  O   UNL     1      -9.519   4.161  70.235  1.00  0.00    -0.145 OA 
BRANCH  10  11
HETATM   11  C   UNL     1      -8.331   4.933  70.069  1.00  0.00    -0.073 C  
BRANCH  11  12
HETATM   12  C   UNL     1      -8.567   6.024  69.016  1.00  0.00    -0.120 C  
BRANCH  12  13
HETATM   13  N   UNL     1      -8.973   7.337  69.542  1.00  0.00    -0.144 NA 
HETATM   14  H   UNL     1      -8.259   8.034  69.330  1.00  0.00     0.000 HD 
BRANCH  13  15
HETATM   15  C   UNL     1     -10.295   7.818  69.099  1.00  0.00    -0.215 C  
HETATM   16  C   UNL     1     -11.128   6.578  68.739  1.00  0.00    -0.357 C  
BRANCH  15  17
HETATM   17  C   UNL     1     -10.229   8.817  67.909  1.00  0.00    -0.272 C  
BRANCH  17  18
HETATM   18  C   UNL     1     -10.873  10.142  68.251  1.00  0.00    -0.297 A  
HETATM   19  C   UNL     1     -11.138  11.065  67.234  1.00  0.00    -0.359 A  
HETATM   20  C   UNL     1     -11.513  12.377  67.550  1.00  0.00    -0.346 A  
HETATM   21  C   UNL     1     -11.740  12.753  68.881  1.00  0.00    -0.326 A  
HETATM   22  C   UNL     1     -11.112  10.508  69.577  1.00  0.00    -0.320 A  
HETATM   23  C   UNL     1     -11.563  11.796  69.886  1.00  0.00    -0.351 A  
BRANCH  20  24
HETATM   24  S   UNL     1     -11.586  13.621  66.284  1.00  0.00    -0.366 S  
HETATM   25  O   UNL     1     -12.976  13.881  65.992  1.00  0.00    -0.378 OA 
HETATM   26  N   UNL     1     -11.023  15.021  67.024  1.00  0.00    -0.313 N  
HETATM   27  O   UNL     1     -10.595  13.313  65.278  1.00  0.00    -0.295 OA 
HETATM   28  H1  UNL     1     -11.064  15.734  66.297  1.00  0.00     0.000 HD 
HETATM   29  H2  UNL     1     -10.708  15.133  67.987  1.00  0.00     0.000 HD 
ENDBRANCH  20  24
BRANCH  21  30
HETATM   30  O   UNL     1     -12.120  14.046  69.109  1.00  0.00    -0.346 OA 
HETATM   31  C   UNL     1     -12.752  14.349  70.346  1.00  0.00    -0.304 C  
ENDBRANCH  21  30
ENDBRANCH  17  18
ENDBRANCH  15  17
ENDBRANCH  13  15
ENDBRANCH  12  13
ENDBRANCH  11  12
ENDBRANCH  10  11
ENDBRANCH   9  10
ENDBRANCH   3   4
ENDBRANCH   2   3
TORSDOF 11
ENDMDL
MODEL      202
REMARK 921   NORMALIZED FREE ENERGY PREDICTED BY IDOCK:   -4.51 KCAL/MOL
REMARK 922        TOTAL FREE ENERGY PREDICTED BY IDOCK:   -8.65 KCAL/MOL
REMARK 923 INTER-LIGAND FREE ENERGY PREDICTED BY IDOCK:   -6.66 KCAL/MOL
REMARK 924 INTRA-LIGAND FREE ENERGY PREDICTED BY IDOCK:   -1.99 KCAL/MOL
REMARK 927      BINDING AFFINITY PREDICTED BY RF-SCORE:    0.00 PKD
ROOT
HETATM    1  C   UNL     1      -7.657  11.904  67.295  1.00  0.00    -0.154 C  
HETATM    2  C   UNL     1      -7.466  10.548  67.957  1.00  0.00    -0.090 C  
ENDROOT
BRANCH   2   3
HETATM    3  O   UNL     1      -8.734   9.905  67.898  1.00  0.00    -0.128 OA 
BRANCH   3   4
HETATM    4  C   UNL     1      -8.840   8.600  67.524  1.00  0.00    -0.135 A  
HETATM    5  C   UNL     1      -8.810   8.179  66.187  1.00  0.00    -0.194 A  
HETATM    6  C   UNL     1      -8.951   6.828  65.857  1.00  0.00    -0.095 A  
HETATM    7  C   UNL     1      -9.122   5.879  66.862  1.00  0.00    -0.120 A  
HETATM    8  C   UNL     1      -9.140   6.284  68.196  1.00  0.00    -0.112 A  
HETATM    9  C   UNL     1      -8.994   7.637  68.543  1.00  0.00    -0.129 A  
BRANCH   9  10
HETATM   10  O   UNL     1      -9.025   7.833  69.905  1.00  0.00    -0.145 OA 
BRANCH  10  11
HETATM   11  C   UNL     1     -10.226   7.508  70.603  1.00  0.00    -0.202 C  
BRANCH  11  12
HETATM   12  C   UNL     1     -11.195   8.697  70.546  1.00  0.00    -0.241 C  
BRANCH  12  13
HETATM   13  N   UNL     1     -10.569  10.028  70.600  1.00  0.00    -0.376 NA 
HETATM   14  H   UNL     1      -9.687  10.020  70.088  1.00  0.00     0.000 HD 
BRANCH  13  15
HETATM   15  C   UNL     1     -11.412  11.146  70.135  1.00  0.00    -0.272 C  
HETATM   16  C   UNL     1     -12.605  11.241  71.099  1.00  0.00    -0.501 C  
BRANCH  15  17
HETATM   17  C   UNL     1     -11.890  10.997  68.662  1.00  0.00    -0.318 C  
BRANCH  17  18
HETATM   18  C   UNL     1     -11.358  12.108  67.785  1.00  0.00    -0.371 A  
HETATM   19  C   UNL     1     -10.952  13.314  68.367  1.00  0.00    -0.289 A  
HETATM   20  C   UNL     1     -10.678  14.429  67.564  1.00  0.00    -0.271 A  
HETATM   21  C   UNL     1     -10.695  14.324  66.167  1.00  0.00    -0.295 A  
HETATM   22  C   UNL     1     -11.361  11.995  66.394  1.00  0.00    -0.411 A  
HETATM   23  C   UNL     1     -11.011  13.088  65.592  1.00  0.00    -0.296 A  
BRANCH  20  24
HETATM   24  S   UNL     1     -10.429  16.026  68.301  1.00  0.00    -0.281 S  
HETATM   25  O   UNL     1     -10.231  15.839  69.719  1.00  0.00    -0.271 OA 
HETATM   26  N   UNL     1      -8.941  16.542  67.715  1.00  0.00    -0.201 N  
HETATM   27  O   UNL     1     -11.386  16.949  67.736  1.00  0.00    -0.111 OA 
HETATM   28  H1  UNL     1      -8.797  17.459  68.138  1.00  0.00     0.000 HD 
HETATM   29  H2  UNL     1      -8.317  16.048  67.077  1.00  0.00     0.000 HD 
ENDBRANCH  20  24
BRANCH  21  30
HETATM   30  O   UNL     1     -10.401  15.451  65.452  1.00  0.00    -0.345 OA 
HETATM   31  C   UNL     1     -11.384  15.948  64.554  1.00  0.00    -0.309 C  
ENDBRANCH  21  30
ENDBRANCH  17  18
ENDBRANCH  15  17
ENDBRANCH  13  15
ENDBRANCH  12  13
ENDBRANCH  11  12
ENDBRANCH  10  11
ENDBRANCH   9  10
ENDBRANCH   3   4
ENDBRANCH   2   3
TORSDOF 11
ENDMDL
MODEL      203
REMARK 921   NORMALIZED FREE ENERGY PREDICTED BY IDOCK:   -4.49 KCAL/MOL
REMARK 922        TOTAL FREE ENERGY PREDICTED BY IDOCK:   -8.63 KCAL/MOL
REMARK 923 INTER-LIGAND FREE ENERGY PREDICTED BY IDOCK:   -7.01 KCAL/MOL
REMARK 924 INTRA-LIGAND FREE ENERGY PREDICTED BY IDOCK:   -1.62 KCAL/MOL
REMARK 927      BINDING AFFINITY PREDICTED BY RF-SCORE:    0.00 PKD
ROOT
HETATM    1  C   UNL     1     -14.333  15.217  71.923  1.00  0.00    -0.691 C  
HETATM    2  C   UNL     1     -13.695  13.857  72.159  1.00  0.00    -0.525 C  
ENDROOT
BRANCH   2   3
HETATM    3  O   UNL     1     -12.409  13.921  71.554  1.00  0.00    -0.323 OA 
BRANCH   3   4
HETATM    4  C   UNL     1     -12.151  13.266  70.389  1.00  0.00    -0.327 A  
HETATM    5  C   UNL     1     -12.057  13.913  69.148  1.00  0.00    -0.377 A  
HETATM    6  C   UNL     1     -11.818  13.188  67.977  1.00  0.00    -0.398 A  
HETATM    7  C   UNL     1     -11.667  11.805  68.033  1.00  0.00    -0.363 A  
HETATM    8  C   UNL     1     -11.745  11.152  69.262  1.00  0.00    -0.401 A  
HETATM    9  C   UNL     1     -11.980  11.867  70.447  1.00  0.00    -0.311 A  
BRANCH   9  10
HETATM   10  O   UNL     1     -12.010  11.050  71.553  1.00  0.00    -0.095 OA 
BRANCH  10  11
HETATM   11  C   UNL     1     -13.158  10.226  71.750  1.00  0.00    -0.465 C  
BRANCH  11  12
HETATM   12  C   UNL     1     -12.722   8.840  72.243  1.00  0.00    -0.402 C  
BRANCH  12  13
HETATM   13  N   UNL     1     -11.863   8.080  71.320  1.00  0.00    -0.292 NA 
HETATM   14  H   UNL     1     -11.693   8.624  70.474  1.00  0.00     0.000 HD 
BRANCH  13  15
HETATM   15  C   UNL     1     -10.583   7.610  71.884  1.00  0.00    -0.218 C  
HETATM   16  C   UNL     1     -10.846   7.243  73.353  1.00  0.00    -0.370 C  
BRANCH  15  17
HETATM   17  C   UNL     1      -9.429   8.646  71.761  1.00  0.00    -0.354 C  
BRANCH  17  18
HETATM   18  C   UNL     1      -8.776   8.599  70.397  1.00  0.00    -0.165 A  
HETATM   19  C   UNL     1      -8.358   7.371  69.874  1.00  0.00    -0.134 A  
HETATM   20  C   UNL     1      -7.549   7.329  68.730  1.00  0.00    -0.104 A  
HETATM   21  C   UNL     1      -7.243   8.503  68.030  1.00  0.00    -0.087 A  
HETATM   22  C   UNL     1      -8.486   9.769  69.694  1.00  0.00    -0.194 A  
HETATM   23  C   UNL     1      -7.743   9.719  68.509  1.00  0.00    -0.081 A  
BRANCH  20  24
HETATM   24  S   UNL     1      -6.794   5.804  68.220  1.00  0.00    -0.065 S  
HETATM   25  O   UNL     1      -7.493   4.720  68.868  1.00  0.00    -0.060 OA 
HETATM   26  N   UNL     1      -7.176   5.660  66.589  1.00  0.00    -0.073 N  
HETATM   27  O   UNL     1      -5.359   5.968  68.248  1.00  0.00    -0.004 OA 
HETATM   28  H1  UNL     1      -6.743   4.785  66.297  1.00  0.00     0.000 HD 
HETATM   29  H2  UNL     1      -7.721   6.306  66.018  1.00  0.00     0.000 HD 
ENDBRANCH  20  24
BRANCH  21  30
HETATM   30  O   UNL     1      -6.462   8.380  66.914  1.00  0.00    -0.055 OA 
HETATM   31  C   UNL     1      -6.658   9.308  65.856  1.00  0.00    -0.076 C  
ENDBRANCH  21  30
ENDBRANCH  17  18
ENDBRANCH  15  17
ENDBRANCH  13  15
ENDBRANCH  12  13
ENDBRANCH  11  12
ENDBRANCH  10  11
ENDBRANCH   9  10
ENDBRANCH   3   4
ENDBRANCH   2   3
TORSDOF 11
ENDMDL
MODEL      204
REMARK 921   NORMALIZED FREE ENERGY PREDICTED BY IDOCK:   -4.49 KCAL/MOL
REMARK 922        TOTAL FREE ENERGY PREDICTED BY IDOCK:   -8.62 KCAL/MOL
REMARK 923 INTER-LIGAND FREE ENERGY PREDICTED BY IDOCK:   -8.68 KCAL/MOL
REMARK 924 INTRA-LIGAND FREE ENERGY PREDICTED BY IDOCK:    0.06 KCAL/MOL
REMARK 927      BINDING AFFINITY PREDICTED BY RF-SCORE:    0.00 PKD
ROOT
HETATM    1  C   UNL     1     -10.793  14.771  64.914  1.00  0.00    -0.433 C  
HETATM    2  C   UNL     1      -9.958  15.993  65.266  1.00  0.00    -0.029 C  
ENDROOT
BRANCH   2   3
HETATM    3  O   UNL     1     -10.879  16.971  65.731  1.00  0.00    -0.209 OA 
BRANCH   3   4
HETATM    4  C   UNL     1     -10.474  17.980  66.551  1.00  0.00    -0.334 A  
HETATM    5  C   UNL     1     -10.346  19.310  66.128  1.00  0.00    -0.578 A  
HETATM    6  C   UNL     1      -9.899  20.302  67.005  1.00  0.00    -0.607 A  
HETATM    7  C   UNL     1      -9.575  19.976  68.320  1.00  0.00    -0.381 A  
HETATM    8  C   UNL     1      -9.710  18.659  68.756  1.00  0.00    -0.407 A  
HETATM    9  C   UNL     1     -10.163  17.653  67.888  1.00  0.00    -0.357 A  
BRANCH   9  10
HETATM   10  O   UNL     1     -10.241  16.426  68.506  1.00  0.00    -0.235 OA 
BRANCH  10  11
HETATM   11  C   UNL     1      -9.061  15.904  69.115  1.00  0.00    -0.255 C  
BRANCH  11  12
HETATM   12  C   UNL     1      -8.724  14.538  68.502  1.00  0.00    -0.177 C  
BRANCH  12  13
HETATM   13  N   UNL     1      -9.679  13.458  68.796  1.00  0.00    -0.418 NA 
HETATM   14  H   UNL     1     -10.270  13.720  69.586  1.00  0.00     0.000 HD 
BRANCH  13  15
HETATM   15  C   UNL     1     -10.517  13.023  67.662  1.00  0.00    -0.225 C  
HETATM   16  C   UNL     1     -11.968  13.391  68.007  1.00  0.00    -0.357 C  
BRANCH  15  17
HETATM   17  C   UNL     1     -10.383  11.509  67.332  1.00  0.00    -0.235 C  
BRANCH  17  18
HETATM   18  C   UNL     1     -10.469  10.654  68.577  1.00  0.00    -0.212 A  
HETATM   19  C   UNL     1     -11.687  10.542  69.256  1.00  0.00    -0.281 A  
HETATM   20  C   UNL     1     -11.737   9.953  70.526  1.00  0.00    -0.295 A  
HETATM   21  C   UNL     1     -10.594   9.366  71.085  1.00  0.00    -0.333 A  
HETATM   22  C   UNL     1      -9.332  10.057  69.124  1.00  0.00    -0.200 A  
HETATM   23  C   UNL     1      -9.400   9.400  70.358  1.00  0.00    -0.317 A  
BRANCH  20  24
HETATM   24  S   UNL     1     -13.217  10.052  71.504  1.00  0.00    -0.390 S  
HETATM   25  O   UNL     1     -14.314   9.556  70.706  1.00  0.00     0.167 OA 
HETATM   26  N   UNL     1     -13.006   8.909  72.718  1.00  0.00    -0.536 N  
HETATM   27  O   UNL     1     -13.231  11.321  72.193  1.00  0.00    -0.481 OA 
HETATM   28  H1  UNL     1     -13.855   8.965  73.279  1.00  0.00     0.000 HD 
HETATM   29  H2  UNL     1     -12.205   8.294  72.863  1.00  0.00     0.000 HD 
ENDBRANCH  20  24
BRANCH  21  30
HETATM   30  O   UNL     1     -10.725   8.796  72.321  1.00  0.00    -0.344 OA 
HETATM   31  C   UNL     1      -9.550   8.332  72.971  1.00  0.00    -0.225 C  
ENDBRANCH  21  30
ENDBRANCH  17  18
ENDBRANCH  15  17
ENDBRANCH  13  15
ENDBRANCH  12  13
ENDBRANCH  11  12
ENDBRANCH  10  11
ENDBRANCH   9  10
ENDBRANCH   3   4
ENDBRANCH   2   3
TORSDOF 11
ENDMDL
MODEL      205
REMARK 921   NORMALIZED FREE ENERGY PREDICTED BY IDOCK:   -4.49 KCAL/MOL
REMARK 922        TOTAL FREE ENERGY PREDICTED BY IDOCK:   -8.62 KCAL/MOL
REMARK 923 INTER-LIGAND FREE ENERGY PREDICTED BY IDOCK:   -7.54 KCAL/MOL
REMARK 924 INTRA-LIGAND FREE ENERGY PREDICTED BY IDOCK:   -1.07 KCAL/MOL
REMARK 927      BINDING AFFINITY PREDICTED BY RF-SCORE:    0.00 PKD
ROOT
HETATM    1  C   UNL     1      -8.526   9.017  64.618  1.00  0.00    -0.194 C  
HETATM    2  C   UNL     1      -8.740  10.121  63.594  1.00  0.00    -0.212 C  
ENDROOT
BRANCH   2   3
HETATM    3  O   UNL     1      -9.100  11.277  64.340  1.00  0.00    -0.113 OA 
BRANCH   3   4
HETATM    4  C   UNL     1     -10.278  11.920  64.108  1.00  0.00    -0.330 A  
HETATM    5  C   UNL     1     -11.326  11.359  63.363  1.00  0.00    -0.190 A  
HETATM    6  C   UNL     1     -12.504  12.073  63.131  1.00  0.00    -0.387 A  
HETATM    7  C   UNL     1     -12.652  13.360  63.645  1.00  0.00    -0.166 A  
HETATM    8  C   UNL     1     -11.623  13.923  64.398  1.00  0.00    -0.401 A  
HETATM    9  C   UNL     1     -10.435  13.215  64.643  1.00  0.00    -0.392 A  
BRANCH   9  10
HETATM   10  O   UNL     1      -9.550  13.932  65.415  1.00  0.00    -0.108 OA 
BRANCH  10  11
HETATM   11  C   UNL     1      -9.989  14.389  66.693  1.00  0.00    -0.272 C  
BRANCH  11  12
HETATM   12  C   UNL     1     -10.263  13.186  67.605  1.00  0.00    -0.224 C  
BRANCH  12  13
HETATM   13  N   UNL     1      -9.235  12.915  68.623  1.00  0.00    -0.397 NA 
HETATM   14  H   UNL     1      -9.638  13.000  69.557  1.00  0.00     0.000 HD 
BRANCH  13  15
HETATM   15  C   UNL     1      -8.534  11.623  68.491  1.00  0.00    -0.135 C  
HETATM   16  C   UNL     1      -7.508  11.782  67.358  1.00  0.00    -0.143 C  
BRANCH  15  17
HETATM   17  C   UNL     1      -9.485  10.422  68.225  1.00  0.00    -0.153 C  
BRANCH  17  18
HETATM   18  C   UNL     1     -10.329  10.094  69.437  1.00  0.00    -0.251 A  
HETATM   19  C   UNL     1      -9.932   9.065  70.297  1.00  0.00    -0.229 A  
HETATM   20  C   UNL     1     -10.807   8.592  71.283  1.00  0.00    -0.260 A  
HETATM   21  C   UNL     1     -12.043   9.216  71.499  1.00  0.00    -0.351 A  
HETATM   22  C   UNL     1     -11.553  10.728  69.658  1.00  0.00    -0.388 A  
HETATM   23  C   UNL     1     -12.393  10.306  70.695  1.00  0.00    -0.416 A  
BRANCH  20  24
HETATM   24  S   UNL     1     -10.421   7.116  72.194  1.00  0.00    -0.210 S  
HETATM   25  O   UNL     1     -10.414   7.446  73.599  1.00  0.00    -0.360 OA 
HETATM   26  N   UNL     1     -11.758   6.119  71.983  1.00  0.00    -0.316 N  
HETATM   27  O   UNL     1      -9.342   6.429  71.522  1.00  0.00    -0.149 OA 
HETATM   28  H1  UNL     1     -11.536   5.272  72.506  1.00  0.00     0.000 HD 
HETATM   29  H2  UNL     1     -12.605   6.317  71.450  1.00  0.00     0.000 HD 
ENDBRANCH  20  24
BRANCH  21  30
HETATM   30  O   UNL     1     -12.835   8.708  72.491  1.00  0.00    -0.379 OA 
HETATM   31  C   UNL     1     -14.240   8.676  72.275  1.00  0.00    -0.417 C  
ENDBRANCH  21  30
ENDBRANCH  17  18
ENDBRANCH  15  17
ENDBRANCH  13  15
ENDBRANCH  12  13
ENDBRANCH  11  12
ENDBRANCH  10  11
ENDBRANCH   9  10
ENDBRANCH   3   4
ENDBRANCH   2   3
TORSDOF 11
ENDMDL
MODEL      206
REMARK 921   NORMALIZED FREE ENERGY PREDICTED BY IDOCK:   -4.47 KCAL/MOL
REMARK 922        TOTAL FREE ENERGY PREDICTED BY IDOCK:   -8.58 KCAL/MOL
REMARK 923 INTER-LIGAND FREE ENERGY PREDICTED BY IDOCK:   -7.73 KCAL/MOL
REMARK 924 INTRA-LIGAND FREE ENERGY PREDICTED BY IDOCK:   -0.85 KCAL/MOL
REMARK 927      BINDING AFFINITY PREDICTED BY RF-SCORE:    0.00 PKD
ROOT
HETATM    1  C   UNL     1     -10.162   3.107  72.349  1.00  0.00    -0.197 C  
HETATM    2  C   UNL     1      -8.877   3.920  72.354  1.00  0.00    -0.105 C  
ENDROOT
BRANCH   2   3
HETATM    3  O   UNL     1      -9.258   5.249  72.687  1.00  0.00    -0.135 OA 
BRANCH   3   4
HETATM    4  C   UNL     1      -8.342   6.255  72.710  1.00  0.00    -0.119 A  
HETATM    5  C   UNL     1      -7.598   6.592  73.849  1.00  0.00    -0.083 A  
HETATM    6  C   UNL     1      -6.688   7.653  73.826  1.00  0.00    -0.095 A  
HETATM    7  C   UNL     1      -6.510   8.392  72.658  1.00  0.00    -0.099 A  
HETATM    8  C   UNL     1      -7.234   8.059  71.515  1.00  0.00    -0.071 A  
HETATM    9  C   UNL     1      -8.147   6.992  71.522  1.00  0.00    -0.104 A  
BRANCH   9  10
HETATM   10  O   UNL     1      -8.751   6.813  70.299  1.00  0.00    -0.142 OA 
BRANCH  10  11
HETATM   11  C   UNL     1      -8.885   7.947  69.443  1.00  0.00    -0.145 C  
BRANCH  11  12
HETATM   12  C   UNL     1     -10.371   8.220  69.177  1.00  0.00    -0.217 C  
BRANCH  12  13
HETATM   13  N   UNL     1     -10.697   9.590  68.747  1.00  0.00    -0.312 NA 
HETATM   14  H   UNL     1     -11.511   9.578  68.133  1.00  0.00     0.000 HD 
BRANCH  13  15
HETATM   15  C   UNL     1     -10.898  10.566  69.835  1.00  0.00    -0.276 C  
HETATM   16  C   UNL     1     -11.206   9.764  71.109  1.00  0.00    -0.444 C  
BRANCH  15  17
HETATM   17  C   UNL     1     -12.017  11.606  69.540  1.00  0.00    -0.383 C  
BRANCH  17  18
HETATM   18  C   UNL     1     -11.571  12.640  68.530  1.00  0.00    -0.363 A  
HETATM   19  C   UNL     1     -12.008  12.544  67.205  1.00  0.00    -0.286 A  
HETATM   20  C   UNL     1     -11.430  13.344  66.211  1.00  0.00    -0.325 A  
HETATM   21  C   UNL     1     -10.490  14.328  66.544  1.00  0.00    -0.287 A  
HETATM   22  C   UNL     1     -10.646  13.629  68.868  1.00  0.00    -0.211 A  
HETATM   23  C   UNL     1     -10.126  14.480  67.886  1.00  0.00    -0.227 A  
BRANCH  20  24
HETATM   24  S   UNL     1     -11.783  13.040  64.496  1.00  0.00    -0.394 S  
HETATM   25  O   UNL     1     -12.984  12.243  64.421  1.00  0.00    -0.719 OA 
HETATM   26  N   UNL     1     -12.212  14.541  63.873  1.00  0.00    -1.006 N  
HETATM   27  O   UNL     1     -10.549  12.703  63.824  1.00  0.00    -0.417 OA 
HETATM   28  H1  UNL     1     -12.415  14.367  62.890  1.00  0.00     0.000 HD 
HETATM   29  H2  UNL     1     -12.260  15.430  64.370  1.00  0.00     0.000 HD 
ENDBRANCH  20  24
BRANCH  21  30
HETATM   30  O   UNL     1      -9.982  15.079  65.521  1.00  0.00    -0.338 OA 
HETATM   31  C   UNL     1      -9.135  16.172  65.851  1.00  0.00    -0.233 C  
ENDBRANCH  21  30
ENDBRANCH  17  18
ENDBRANCH  15  17
ENDBRANCH  13  15
ENDBRANCH  12  13
ENDBRANCH  11  12
ENDBRANCH  10  11
ENDBRANCH   9  10
ENDBRANCH   3   4
ENDBRANCH   2   3
TORSDOF 11
ENDMDL
MODEL      207
REMARK 921   NORMALIZED FREE ENERGY PREDICTED BY IDOCK:   -4.47 KCAL/MOL
REMARK 922        TOTAL FREE ENERGY PREDICTED BY IDOCK:   -8.58 KCAL/MOL
REMARK 923 INTER-LIGAND FREE ENERGY PREDICTED BY IDOCK:   -7.77 KCAL/MOL
REMARK 924 INTRA-LIGAND FREE ENERGY PREDICTED BY IDOCK:   -0.81 KCAL/MOL
REMARK 927      BINDING AFFINITY PREDICTED BY RF-SCORE:    0.00 PKD
ROOT
HETATM    1  C   UNL     1     -10.353  15.920  66.255  1.00  0.00    -0.324 C  
HETATM    2  C   UNL     1     -11.063  15.221  67.404  1.00  0.00    -0.326 C  
ENDROOT
BRANCH   2   3
HETATM    3  O   UNL     1     -12.075  14.421  66.805  1.00  0.00    -0.424 OA 
BRANCH   3   4
HETATM    4  C   UNL     1     -11.787  13.592  65.763  1.00  0.00    -0.371 A  
HETATM    5  C   UNL     1     -12.087  13.902  64.429  1.00  0.00    -0.477 A  
HETATM    6  C   UNL     1     -11.795  13.003  63.400  1.00  0.00    -0.543 A  
HETATM    7  C   UNL     1     -11.194  11.780  63.693  1.00  0.00    -0.519 A  
HETATM    8  C   UNL     1     -10.879  11.466  65.014  1.00  0.00    -0.311 A  
HETATM    9  C   UNL     1     -11.163  12.362  66.057  1.00  0.00    -0.335 A  
BRANCH   9  10
HETATM   10  O   UNL     1     -10.766  11.879  67.283  1.00  0.00    -0.220 OA 
BRANCH  10  11
HETATM   11  C   UNL     1     -11.506  10.801  67.853  1.00  0.00    -0.227 C  
BRANCH  11  12
HETATM   12  C   UNL     1     -11.931  11.164  69.282  1.00  0.00    -0.351 C  
BRANCH  12  13
HETATM   13  N   UNL     1     -13.059  10.390  69.824  1.00  0.00    -0.461 NA 
HETATM   14  H   UNL     1     -13.522   9.876  69.074  1.00  0.00     0.000 HD 
BRANCH  13  15
HETATM   15  C   UNL     1     -12.728   9.475  70.933  1.00  0.00    -0.159 C  
HETATM   16  C   UNL     1     -13.659   9.832  72.104  1.00  0.00    -0.432 C  
BRANCH  15  17
HETATM   17  C   UNL     1     -11.235   9.531  71.365  1.00  0.00    -0.452 C  
BRANCH  17  18
HETATM   18  C   UNL     1     -10.516   8.234  71.068  1.00  0.00    -0.241 A  
HETATM   19  C   UNL     1     -10.832   7.086  71.802  1.00  0.00    -0.250 A  
HETATM   20  C   UNL     1     -10.026   5.943  71.708  1.00  0.00    -0.166 A  
HETATM   21  C   UNL     1      -8.964   5.893  70.795  1.00  0.00    -0.149 A  
HETATM   22  C   UNL     1      -9.469   8.182  70.147  1.00  0.00    -0.167 A  
HETATM   23  C   UNL     1      -8.713   7.014  69.997  1.00  0.00    -0.142 A  
BRANCH  20  24
HETATM   24  S   UNL     1     -10.257   4.587  72.831  1.00  0.00    -0.181 S  
HETATM   25  O   UNL     1     -11.580   4.697  73.399  1.00  0.00    -0.317 OA 
HETATM   26  N   UNL     1     -10.312   3.222  71.851  1.00  0.00     0.008 N  
HETATM   27  O   UNL     1      -9.054   4.427  73.615  1.00  0.00    -0.102 OA 
HETATM   28  H1  UNL     1     -10.445   2.444  72.496  1.00  0.00     0.000 HD 
HETATM   29  H2  UNL     1     -10.231   3.181  70.836  1.00  0.00     0.000 HD 
ENDBRANCH  20  24
BRANCH  21  30
HETATM   30  O   UNL     1      -8.234   4.738  70.749  1.00  0.00    -0.083 OA 
HETATM   31  C   UNL     1      -7.074   4.712  69.928  1.00  0.00    -0.053 C  
ENDBRANCH  21  30
ENDBRANCH  17  18
ENDBRANCH  15  17
ENDBRANCH  13  15
ENDBRANCH  12  13
ENDBRANCH  11  12
ENDBRANCH  10  11
ENDBRANCH   9  10
ENDBRANCH   3   4
ENDBRANCH   2   3
TORSDOF 11
ENDMDL
MODEL      208
REMARK 921   NORMALIZED FREE ENERGY PREDICTED BY IDOCK:   -4.46 KCAL/MOL
REMARK 922        TOTAL FREE ENERGY PREDICTED BY IDOCK:   -8.57 KCAL/MOL
REMARK 923 INTER-LIGAND FREE ENERGY PREDICTED BY IDOCK:   -8.10 KCAL/MOL
REMARK 924 INTRA-LIGAND FREE ENERGY PREDICTED BY IDOCK:   -0.47 KCAL/MOL
REMARK 927      BINDING AFFINITY PREDICTED BY RF-SCORE:    0.00 PKD
ROOT
HETATM    1  C   UNL     1     -10.237  20.049  68.215  1.00  0.00    -0.527 C  
HETATM    2  C   UNL     1      -9.906  19.519  66.828  1.00  0.00    -0.382 C  
ENDROOT
BRANCH   2   3
HETATM    3  O   UNL     1      -9.800  18.107  66.967  1.00  0.00    -0.297 OA 
BRANCH   3   4
HETATM    4  C   UNL     1      -8.651  17.533  67.420  1.00  0.00    -0.220 A  
HETATM    5  C   UNL     1      -7.406  17.714  66.802  1.00  0.00    -0.245 A  
HETATM    6  C   UNL     1      -6.262  17.079  67.293  1.00  0.00    -0.197 A  
HETATM    7  C   UNL     1      -6.349  16.254  68.412  1.00  0.00    -0.119 A  
HETATM    8  C   UNL     1      -7.579  16.076  69.043  1.00  0.00    -0.209 A  
HETATM    9  C   UNL     1      -8.735  16.712  68.564  1.00  0.00    -0.242 A  
BRANCH   9  10
HETATM   10  O   UNL     1      -9.844  16.423  69.327  1.00  0.00    -0.259 OA 
BRANCH  10  11
HETATM   11  C   UNL     1     -10.681  15.345  68.914  1.00  0.00    -0.244 C  
BRANCH  11  12
HETATM   12  C   UNL     1     -11.708  15.038  70.012  1.00  0.00    -0.306 C  
BRANCH  12  13
HETATM   13  N   UNL     1     -11.543  13.744  70.692  1.00  0.00    -0.514 NA 
HETATM   14  H   UNL     1     -11.289  13.893  71.670  1.00  0.00     0.000 HD 
BRANCH  13  15
HETATM   15  C   UNL     1     -12.695  12.827  70.604  1.00  0.00    -0.077 C  
HETATM   16  C   UNL     1     -13.191  12.587  72.039  1.00  0.00    -0.524 C  
BRANCH  15  17
HETATM   17  C   UNL     1     -12.370  11.484  69.890  1.00  0.00    -0.247 C  
BRANCH  17  18
HETATM   18  C   UNL     1     -12.045  10.387  70.878  1.00  0.00    -0.477 A  
HETATM   19  C   UNL     1     -10.711  10.023  71.093  1.00  0.00     0.020 A  
HETATM   20  C   UNL     1     -10.402   8.866  71.819  1.00  0.00    -0.356 A  
HETATM   21  C   UNL     1     -11.415   8.120  72.437  1.00  0.00    -0.397 A  
HETATM   22  C   UNL     1     -13.055   9.655  71.505  1.00  0.00    -0.488 A  
HETATM   23  C   UNL     1     -12.740   8.544  72.295  1.00  0.00    -0.420 A  
BRANCH  20  24
HETATM   24  S   UNL     1      -8.735   8.252  71.864  1.00  0.00    -0.188 S  
HETATM   25  O   UNL     1      -7.851   9.333  71.497  1.00  0.00    -0.336 OA 
HETATM   26  N   UNL     1      -8.427   7.967  73.492  1.00  0.00    -0.202 N  
HETATM   27  O   UNL     1      -8.708   6.945  71.251  1.00  0.00    -0.133 OA 
HETATM   28  H1  UNL     1      -7.471   7.615  73.518  1.00  0.00     0.000 HD 
HETATM   29  H2  UNL     1      -9.057   8.113  74.280  1.00  0.00     0.000 HD 
ENDBRANCH  20  24
BRANCH  21  30
HETATM   30  O   UNL     1     -11.033   7.013  73.142  1.00  0.00    -0.295 OA 
HETATM   31  C   UNL     1     -11.573   5.756  72.757  1.00  0.00    -0.214 C  
ENDBRANCH  21  30
ENDBRANCH  17  18
ENDBRANCH  15  17
ENDBRANCH  13  15
ENDBRANCH  12  13
ENDBRANCH  11  12
ENDBRANCH  10  11
ENDBRANCH   9  10
ENDBRANCH   3   4
ENDBRANCH   2   3
TORSDOF 11
ENDMDL
MODEL      209
REMARK 921   NORMALIZED FREE ENERGY PREDICTED BY IDOCK:   -4.45 KCAL/MOL
REMARK 922        TOTAL FREE ENERGY PREDICTED BY IDOCK:   -8.56 KCAL/MOL
REMARK 923 INTER-LIGAND FREE ENERGY PREDICTED BY IDOCK:   -7.40 KCAL/MOL
REMARK 924 INTRA-LIGAND FREE ENERGY PREDICTED BY IDOCK:   -1.16 KCAL/MOL
REMARK 927      BINDING AFFINITY PREDICTED BY RF-SCORE:    0.00 PKD
ROOT
HETATM    1  C   UNL     1      -9.312   7.583  68.864  1.00  0.00    -0.142 C  
HETATM    2  C   UNL     1     -10.289   7.328  67.726  1.00  0.00    -0.209 C  
ENDROOT
BRANCH   2   3
HETATM    3  O   UNL     1     -11.003   8.545  67.547  1.00  0.00    -0.107 OA 
BRANCH   3   4
HETATM    4  C   UNL     1     -10.375   9.663  67.090  1.00  0.00    -0.254 A  
HETATM    5  C   UNL     1      -9.178   9.629  66.361  1.00  0.00    -0.205 A  
HETATM    6  C   UNL     1      -8.560  10.810  65.940  1.00  0.00    -0.182 A  
HETATM    7  C   UNL     1      -9.135  12.043  66.240  1.00  0.00    -0.165 A  
HETATM    8  C   UNL     1     -10.332  12.089  66.953  1.00  0.00    -0.238 A  
HETATM    9  C   UNL     1     -10.966  10.911  67.379  1.00  0.00    -0.293 A  
BRANCH   9  10
HETATM   10  O   UNL     1     -12.139  11.164  68.053  1.00  0.00    -0.635 OA 
BRANCH  10  11
HETATM   11  C   UNL     1     -12.229  10.762  69.419  1.00  0.00    -0.171 C  
BRANCH  11  12
HETATM   12  C   UNL     1     -11.646  11.859  70.319  1.00  0.00    -0.089 C  
BRANCH  12  13
HETATM   13  N   UNL     1     -12.633  12.723  70.987  1.00  0.00    -0.335 NA 
HETATM   14  H   UNL     1     -12.708  12.469  71.972  1.00  0.00     0.000 HD 
BRANCH  13  15
HETATM   15  C   UNL     1     -12.401  14.174  70.855  1.00  0.00    -0.368 C  
HETATM   16  C   UNL     1     -13.619  14.882  71.470  1.00  0.00    -0.511 C  
BRANCH  15  17
HETATM   17  C   UNL     1     -12.161  14.638  69.390  1.00  0.00    -0.317 C  
BRANCH  17  18
HETATM   18  C   UNL     1     -10.826  15.331  69.233  1.00  0.00    -0.257 A  
HETATM   19  C   UNL     1     -10.789  16.690  68.901  1.00  0.00    -0.321 A  
HETATM   20  C   UNL     1      -9.581  17.292  68.524  1.00  0.00    -0.291 A  
HETATM   21  C   UNL     1      -8.378  16.577  68.584  1.00  0.00    -0.235 A  
HETATM   22  C   UNL     1      -9.627  14.620  69.308  1.00  0.00    -0.018 A  
HETATM   23  C   UNL     1      -8.412  15.244  69.007  1.00  0.00    -0.221 A  
BRANCH  20  24
HETATM   24  S   UNL     1      -9.570  18.933  67.844  1.00  0.00    -0.330 S  
HETATM   25  O   UNL     1      -8.743  19.762  68.688  1.00  0.00    -0.299 OA 
HETATM   26  N   UNL     1      -8.722  18.794  66.399  1.00  0.00    -0.303 N  
HETATM   27  O   UNL     1     -10.916  19.277  67.447  1.00  0.00    -0.484 OA 
HETATM   28  H1  UNL     1      -8.715  19.735  66.009  1.00  0.00     0.000 HD 
HETATM   29  H2  UNL     1      -8.305  17.953  66.001  1.00  0.00     0.000 HD 
ENDBRANCH  20  24
BRANCH  21  30
HETATM   30  O   UNL     1      -7.239  17.237  68.217  1.00  0.00    -0.195 OA 
HETATM   31  C   UNL     1      -6.195  17.355  69.175  1.00  0.00    -0.228 C  
ENDBRANCH  21  30
ENDBRANCH  17  18
ENDBRANCH  15  17
ENDBRANCH  13  15
ENDBRANCH  12  13
ENDBRANCH  11  12
ENDBRANCH  10  11
ENDBRANCH   9  10
ENDBRANCH   3   4
ENDBRANCH   2   3
TORSDOF 11
ENDMDL
MODEL      210
REMARK 921   NORMALIZED FREE ENERGY PREDICTED BY IDOCK:   -4.44 KCAL/MOL
REMARK 922        TOTAL FREE ENERGY PREDICTED BY IDOCK:   -8.53 KCAL/MOL
REMARK 923 INTER-LIGAND FREE ENERGY PREDICTED BY IDOCK:   -7.38 KCAL/MOL
REMARK 924 INTRA-LIGAND FREE ENERGY PREDICTED BY IDOCK:   -1.16 KCAL/MOL
REMARK 927      BINDING AFFINITY PREDICTED BY RF-SCORE:    0.00 PKD
ROOT
HETATM    1  C   UNL     1     -12.067  14.549  66.580  1.00  0.00    -0.330 C  
HETATM    2  C   UNL     1     -11.182  15.765  66.351  1.00  0.00     0.034 C  
ENDROOT
BRANCH   2   3
HETATM    3  O   UNL     1     -11.046  16.390  67.622  1.00  0.00    -0.266 OA 
BRANCH   3   4
HETATM    4  C   UNL     1     -10.220  17.460  67.790  1.00  0.00    -0.345 A  
HETATM    5  C   UNL     1     -10.618  18.783  67.552  1.00  0.00    -0.497 A  
HETATM    6  C   UNL     1      -9.721  19.842  67.714  1.00  0.00    -0.516 A  
HETATM    7  C   UNL     1      -8.412  19.591  68.120  1.00  0.00    -0.361 A  
HETATM    8  C   UNL     1      -8.008  18.281  68.373  1.00  0.00    -0.320 A  
HETATM    9  C   UNL     1      -8.900  17.208  68.219  1.00  0.00    -0.245 A  
BRANCH   9  10
HETATM   10  O   UNL     1      -8.319  15.999  68.527  1.00  0.00    -0.173 OA 
BRANCH  10  11
HETATM   11  C   UNL     1      -7.518  15.365  67.532  1.00  0.00    -0.189 C  
BRANCH  11  12
HETATM   12  C   UNL     1      -7.610  13.841  67.687  1.00  0.00    -0.181 C  
BRANCH  12  13
HETATM   13  N   UNL     1      -8.492  13.158  66.727  1.00  0.00    -0.426 NA 
HETATM   14  H   UNL     1      -8.081  13.190  65.793  1.00  0.00     0.000 HD 
BRANCH  13  15
HETATM   15  C   UNL     1      -8.855  11.771  67.072  1.00  0.00    -0.182 C  
HETATM   16  C   UNL     1      -9.321  11.092  65.774  1.00  0.00    -0.236 C  
BRANCH  15  17
HETATM   17  C   UNL     1      -9.940  11.667  68.182  1.00  0.00    -0.198 C  
BRANCH  17  18
HETATM   18  C   UNL     1      -9.725  10.458  69.065  1.00  0.00    -0.216 A  
HETATM   19  C   UNL     1     -10.830   9.734  69.526  1.00  0.00    -0.264 A  
HETATM   20  C   UNL     1     -10.672   8.763  70.523  1.00  0.00    -0.223 A  
HETATM   21  C   UNL     1      -9.397   8.421  70.990  1.00  0.00    -0.171 A  
HETATM   22  C   UNL     1      -8.451  10.109  69.517  1.00  0.00    -0.179 A  
HETATM   23  C   UNL     1      -8.287   9.085  70.456  1.00  0.00    -0.205 A  
BRANCH  20  24
HETATM   24  S   UNL     1     -12.095   8.038  71.302  1.00  0.00    -0.269 S  
HETATM   25  O   UNL     1     -12.124   6.634  70.963  1.00  0.00    -0.369 OA 
HETATM   26  N   UNL     1     -11.753   8.084  72.948  1.00  0.00    -0.566 N  
HETATM   27  O   UNL     1     -13.218   8.931  71.135  1.00  0.00    -0.229 OA 
HETATM   28  H1  UNL     1     -12.569   7.668  73.395  1.00  0.00     0.000 HD 
HETATM   29  H2  UNL     1     -10.914   8.449  73.399  1.00  0.00     0.000 HD 
ENDBRANCH  20  24
BRANCH  21  30
HETATM   30  O   UNL     1      -9.322   7.452  71.952  1.00  0.00    -0.137 OA 
HETATM   31  C   UNL     1      -8.343   6.433  71.800  1.00  0.00    -0.120 C  
ENDBRANCH  21  30
ENDBRANCH  17  18
ENDBRANCH  15  17
ENDBRANCH  13  15
ENDBRANCH  12  13
ENDBRANCH  11  12
ENDBRANCH  10  11
ENDBRANCH   9  10
ENDBRANCH   3   4
ENDBRANCH   2   3
TORSDOF 11
ENDMDL
MODEL      211
REMARK 921   NORMALIZED FREE ENERGY PREDICTED BY IDOCK:   -4.42 KCAL/MOL
REMARK 922        TOTAL FREE ENERGY PREDICTED BY IDOCK:   -8.51 KCAL/MOL
REMARK 923 INTER-LIGAND FREE ENERGY PREDICTED BY IDOCK:   -7.06 KCAL/MOL
REMARK 924 INTRA-LIGAND FREE ENERGY PREDICTED BY IDOCK:   -1.45 KCAL/MOL
REMARK 927      BINDING AFFINITY PREDICTED BY RF-SCORE:    0.00 PKD
ROOT
HETATM    1  C   UNL     1      -7.384   9.533  70.064  1.00  0.00    -0.115 C  
HETATM    2  C   UNL     1      -8.628   8.897  70.665  1.00  0.00    -0.194 C  
ENDROOT
BRANCH   2   3
HETATM    3  O   UNL     1      -9.702   9.777  70.357  1.00  0.00    -0.255 OA 
BRANCH   3   4
HETATM    4  C   UNL     1     -10.931   9.604  70.918  1.00  0.00    -0.342 A  
HETATM    5  C   UNL     1     -11.160   8.778  72.027  1.00  0.00    -0.441 A  
HETATM    6  C   UNL     1     -12.447   8.615  72.547  1.00  0.00    -0.372 A  
HETATM    7  C   UNL     1     -13.524   9.279  71.963  1.00  0.00    -0.519 A  
HETATM    8  C   UNL     1     -13.307  10.113  70.868  1.00  0.00    -0.272 A  
HETATM    9  C   UNL     1     -12.019  10.291  70.339  1.00  0.00    -0.303 A  
BRANCH   9  10
HETATM   10  O   UNL     1     -12.008  11.159  69.271  1.00  0.00    -0.322 OA 
BRANCH  10  11
HETATM   11  C   UNL     1     -11.814  12.548  69.537  1.00  0.00    -0.310 C  
BRANCH  11  12
HETATM   12  C   UNL     1     -11.893  13.341  68.226  1.00  0.00    -0.354 C  
BRANCH  12  13
HETATM   13  N   UNL     1     -10.600  13.694  67.620  1.00  0.00    -0.240 NA 
HETATM   14  H   UNL     1      -9.927  13.936  68.349  1.00  0.00     0.000 HD 
BRANCH  13  15
HETATM   15  C   UNL     1     -10.022  12.681  66.716  1.00  0.00    -0.234 C  
HETATM   16  C   UNL     1     -11.197  11.981  66.015  1.00  0.00    -0.385 C  
BRANCH  15  17
HETATM   17  C   UNL     1      -9.104  11.653  67.436  1.00  0.00    -0.169 C  
BRANCH  17  18
HETATM   18  C   UNL     1      -9.006  10.354  66.669  1.00  0.00    -0.155 A  
HETATM   19  C   UNL     1      -9.696   9.227  67.128  1.00  0.00    -0.225 A  
HETATM   20  C   UNL     1      -9.439   7.966  66.573  1.00  0.00    -0.214 A  
HETATM   21  C   UNL     1      -8.574   7.831  65.479  1.00  0.00    -0.105 A  
HETATM   22  C   UNL     1      -8.156  10.226  65.569  1.00  0.00    -0.156 A  
HETATM   23  C   UNL     1      -7.959   8.978  64.966  1.00  0.00    -0.123 A  
BRANCH  20  24
HETATM   24  S   UNL     1     -10.104   6.501  67.327  1.00  0.00    -0.187 S  
HETATM   25  O   UNL     1      -9.046   5.865  68.076  1.00  0.00    -0.118 OA 
HETATM   26  N   UNL     1     -11.183   7.066  68.485  1.00  0.00    -0.494 N  
HETATM   27  O   UNL     1     -10.929   5.818  66.358  1.00  0.00    -0.206 OA 
HETATM   28  H1  UNL     1     -11.565   6.226  68.917  1.00  0.00     0.000 HD 
HETATM   29  H2  UNL     1     -11.408   8.036  68.707  1.00  0.00     0.000 HD 
ENDBRANCH  20  24
BRANCH  21  30
HETATM   30  O   UNL     1      -8.386   6.572  64.983  1.00  0.00    -0.136 OA 
HETATM   31  C   UNL     1      -7.699   6.436  63.745  1.00  0.00    -0.111 C  
ENDBRANCH  21  30
ENDBRANCH  17  18
ENDBRANCH  15  17
ENDBRANCH  13  15
ENDBRANCH  12  13
ENDBRANCH  11  12
ENDBRANCH  10  11
ENDBRANCH   9  10
ENDBRANCH   3   4
ENDBRANCH   2   3
TORSDOF 11
ENDMDL
MODEL      212
REMARK 921   NORMALIZED FREE ENERGY PREDICTED BY IDOCK:   -4.42 KCAL/MOL
REMARK 922        TOTAL FREE ENERGY PREDICTED BY IDOCK:   -8.50 KCAL/MOL
REMARK 923 INTER-LIGAND FREE ENERGY PREDICTED BY IDOCK:   -7.24 KCAL/MOL
REMARK 924 INTRA-LIGAND FREE ENERGY PREDICTED BY IDOCK:   -1.27 KCAL/MOL
REMARK 927      BINDING AFFINITY PREDICTED BY RF-SCORE:    0.00 PKD
ROOT
HETATM    1  C   UNL     1     -10.582   5.762  67.473  1.00  0.00    -0.327 C  
HETATM    2  C   UNL     1     -11.109   5.980  68.883  1.00  0.00    -0.279 C  
ENDROOT
BRANCH   2   3
HETATM    3  O   UNL     1     -10.653   7.270  69.272  1.00  0.00    -0.218 OA 
BRANCH   3   4
HETATM    4  C   UNL     1     -10.248   7.513  70.550  1.00  0.00    -0.201 A  
HETATM    5  C   UNL     1     -11.138   7.680  71.619  1.00  0.00    -0.274 A  
HETATM    6  C   UNL     1     -10.670   7.954  72.907  1.00  0.00    -0.440 A  
HETATM    7  C   UNL     1      -9.301   8.063  73.142  1.00  0.00    -0.346 A  
HETATM    8  C   UNL     1      -8.405   7.887  72.089  1.00  0.00    -0.168 A  
HETATM    9  C   UNL     1      -8.861   7.605  70.792  1.00  0.00    -0.144 A  
BRANCH   9  10
HETATM   10  O   UNL     1      -7.827   7.452  69.897  1.00  0.00    -0.110 OA 
BRANCH  10  11
HETATM   11  C   UNL     1      -7.349   8.612  69.218  1.00  0.00    -0.074 C  
BRANCH  11  12
HETATM   12  C   UNL     1      -6.589   8.193  67.952  1.00  0.00    -0.061 C  
BRANCH  12  13
HETATM   13  N   UNL     1      -6.386   9.256  66.954  1.00  0.00    -0.065 NA 
HETATM   14  H   UNL     1      -5.398   9.510  66.912  1.00  0.00     0.000 HD 
BRANCH  13  15
HETATM   15  C   UNL     1      -6.889   8.962  65.599  1.00  0.00    -0.076 C  
HETATM   16  C   UNL     1      -6.640  10.214  64.745  1.00  0.00    -0.124 C  
BRANCH  15  17
HETATM   17  C   UNL     1      -8.388   8.548  65.567  1.00  0.00    -0.163 C  
BRANCH  17  18
HETATM   18  C   UNL     1      -9.304   9.748  65.661  1.00  0.00    -0.285 A  
HETATM   19  C   UNL     1      -9.611  10.285  66.916  1.00  0.00    -0.211 A  
HETATM   20  C   UNL     1     -10.630  11.238  67.046  1.00  0.00    -0.246 A  
HETATM   21  C   UNL     1     -11.275  11.751  65.914  1.00  0.00    -0.290 A  
HETATM   22  C   UNL     1      -9.934  10.267  64.530  1.00  0.00    -0.359 A  
HETATM   23  C   UNL     1     -10.896  11.276  64.654  1.00  0.00    -0.335 A  
BRANCH  20  24
HETATM   24  S   UNL     1     -11.208  11.720  68.656  1.00  0.00    -0.283 S  
HETATM   25  O   UNL     1     -12.521  11.151  68.848  1.00  0.00    -0.460 OA 
HETATM   26  N   UNL     1     -10.212  10.900  69.733  1.00  0.00    -0.438 N  
HETATM   27  O   UNL     1     -10.897  13.116  68.858  1.00  0.00    -0.242 OA 
HETATM   28  H1  UNL     1     -10.544  11.176  70.657  1.00  0.00     0.000 HD 
HETATM   29  H2  UNL     1      -9.445  10.265  69.513  1.00  0.00     0.000 HD 
ENDBRANCH  20  24
BRANCH  21  30
HETATM   30  O   UNL     1     -12.247  12.691  66.120  1.00  0.00    -0.568 OA 
HETATM   31  C   UNL     1     -12.461  13.665  65.107  1.00  0.00    -0.449 C  
ENDBRANCH  21  30
ENDBRANCH  17  18
ENDBRANCH  15  17
ENDBRANCH  13  15
ENDBRANCH  12  13
ENDBRANCH  11  12
ENDBRANCH  10  11
ENDBRANCH   9  10
ENDBRANCH   3   4
ENDBRANCH   2   3
TORSDOF 11
ENDMDL
MODEL      213
REMARK 921   NORMALIZED FREE ENERGY PREDICTED BY IDOCK:   -4.42 KCAL/MOL
REMARK 922        TOTAL FREE ENERGY PREDICTED BY IDOCK:   -8.50 KCAL/MOL
REMARK 923 INTER-LIGAND FREE ENERGY PREDICTED BY IDOCK:   -7.85 KCAL/MOL
REMARK 924 INTRA-LIGAND FREE ENERGY PREDICTED BY IDOCK:   -0.65 KCAL/MOL
REMARK 927      BINDING AFFINITY PREDICTED BY RF-SCORE:    0.00 PKD
ROOT
HETATM    1  C   UNL     1     -12.285  13.920  63.961  1.00  0.00    -0.413 C  
HETATM    2  C   UNL     1     -12.382  12.975  65.150  1.00  0.00    -0.484 C  
ENDROOT
BRANCH   2   3
HETATM    3  O   UNL     1     -12.111  13.768  66.299  1.00  0.00    -0.401 OA 
BRANCH   3   4
HETATM    4  C   UNL     1     -10.839  14.150  66.602  1.00  0.00    -0.299 A  
HETATM    5  C   UNL     1     -10.402  15.481  66.545  1.00  0.00    -0.293 A  
HETATM    6  C   UNL     1      -9.078  15.814  66.840  1.00  0.00    -0.259 A  
HETATM    7  C   UNL     1      -8.171  14.818  67.197  1.00  0.00    -0.239 A  
HETATM    8  C   UNL     1      -8.597  13.493  67.269  1.00  0.00    -0.218 A  
HETATM    9  C   UNL     1      -9.926  13.144  66.981  1.00  0.00    -0.244 A  
BRANCH   9  10
HETATM   10  O   UNL     1     -10.153  11.794  67.121  1.00  0.00    -0.201 OA 
BRANCH  10  11
HETATM   11  C   UNL     1     -10.003  11.218  68.418  1.00  0.00    -0.197 C  
BRANCH  11  12
HETATM   12  C   UNL     1     -11.222  11.566  69.282  1.00  0.00    -0.272 C  
BRANCH  12  13
HETATM   13  N   UNL     1     -11.360  10.791  70.525  1.00  0.00    -0.434 NA 
HETATM   14  H   UNL     1     -10.803  11.217  71.267  1.00  0.00     0.000 HD 
BRANCH  13  15
HETATM   15  C   UNL     1     -12.743  10.578  70.992  1.00  0.00    -0.408 C  
HETATM   16  C   UNL     1     -13.119  11.793  71.855  1.00  0.00    -0.482 C  
BRANCH  15  17
HETATM   17  C   UNL     1     -12.939   9.249  71.777  1.00  0.00    -0.471 C  
BRANCH  17  18
HETATM   18  C   UNL     1     -11.687   8.401  71.767  1.00  0.00    -0.371 A  
HETATM   19  C   UNL     1     -11.284   7.778  70.581  1.00  0.00    -0.278 A  
HETATM   20  C   UNL     1     -10.271   6.810  70.601  1.00  0.00    -0.195 A  
HETATM   21  C   UNL     1      -9.570   6.535  71.783  1.00  0.00    -0.152 A  
HETATM   22  C   UNL     1     -10.981   8.141  72.943  1.00  0.00    -0.307 A  
HETATM   23  C   UNL     1      -9.917   7.231  72.945  1.00  0.00    -0.257 A  
BRANCH  20  24
HETATM   24  S   UNL     1      -9.943   5.824  69.160  1.00  0.00    -0.195 S  
HETATM   25  O   UNL     1      -8.584   6.079  68.744  1.00  0.00    -0.112 OA 
HETATM   26  N   UNL     1      -9.943   4.238  69.715  1.00  0.00    -0.186 N  
HETATM   27  O   UNL     1     -11.085   5.904  68.277  1.00  0.00    -0.258 OA 
HETATM   28  H1  UNL     1      -9.755   3.672  68.888  1.00  0.00     0.000 HD 
HETATM   29  H2  UNL     1     -10.097   3.912  70.669  1.00  0.00     0.000 HD 
ENDBRANCH  20  24
BRANCH  21  30
HETATM   30  O   UNL     1      -8.584   5.590  71.719  1.00  0.00    -0.132 OA 
HETATM   31  C   UNL     1      -7.286   5.946  72.173  1.00  0.00    -0.089 C  
ENDBRANCH  21  30
ENDBRANCH  17  18
ENDBRANCH  15  17
ENDBRANCH  13  15
ENDBRANCH  12  13
ENDBRANCH  11  12
ENDBRANCH  10  11
ENDBRANCH   9  10
ENDBRANCH   3   4
ENDBRANCH   2   3
TORSDOF 11
ENDMDL
MODEL      214
REMARK 921   NORMALIZED FREE ENERGY PREDICTED BY IDOCK:   -4.42 KCAL/MOL
REMARK 922        TOTAL FREE ENERGY PREDICTED BY IDOCK:   -8.50 KCAL/MOL
REMARK 923 INTER-LIGAND FREE ENERGY PREDICTED BY IDOCK:   -7.76 KCAL/MOL
REMARK 924 INTRA-LIGAND FREE ENERGY PREDICTED BY IDOCK:   -0.74 KCAL/MOL
REMARK 927      BINDING AFFINITY PREDICTED BY RF-SCORE:    0.00 PKD
ROOT
HETATM    1  C   UNL     1      -9.332   5.800  69.586  1.00  0.00    -0.166 C  
HETATM    2  C   UNL     1     -10.248   6.253  70.712  1.00  0.00    -0.193 C  
ENDROOT
BRANCH   2   3
HETATM    3  O   UNL     1     -10.876   7.442  70.248  1.00  0.00    -0.236 OA 
BRANCH   3   4
HETATM    4  C   UNL     1     -11.909   8.002  70.936  1.00  0.00    -0.224 A  
HETATM    5  C   UNL     1     -12.969   7.256  71.472  1.00  0.00    -0.434 A  
HETATM    6  C   UNL     1     -14.019   7.884  72.147  1.00  0.00    -0.264 A  
HETATM    7  C   UNL     1     -14.023   9.269  72.296  1.00  0.00    -0.439 A  
HETATM    8  C   UNL     1     -12.968  10.020  71.778  1.00  0.00    -0.560 A  
HETATM    9  C   UNL     1     -11.904   9.402  71.103  1.00  0.00    -0.338 A  
BRANCH   9  10
HETATM   10  O   UNL     1     -10.957  10.308  70.681  1.00  0.00    -0.308 OA 
BRANCH  10  11
HETATM   11  C   UNL     1     -11.386  11.395  69.862  1.00  0.00    -0.219 C  
BRANCH  11  12
HETATM   12  C   UNL     1     -11.488  10.934  68.402  1.00  0.00    -0.304 C  
BRANCH  12  13
HETATM   13  N   UNL     1     -11.797  11.990  67.424  1.00  0.00    -0.591 NA 
HETATM   14  H   UNL     1     -11.396  12.877  67.730  1.00  0.00     0.000 HD 
BRANCH  13  15
HETATM   15  C   UNL     1     -11.395  11.706  66.033  1.00  0.00    -0.196 C  
HETATM   16  C   UNL     1     -10.141  10.820  66.099  1.00  0.00    -0.297 C  
BRANCH  15  17
HETATM   17  C   UNL     1     -11.137  12.984  65.185  1.00  0.00    -0.317 C  
BRANCH  17  18
HETATM   18  C   UNL     1     -10.524  14.092  66.012  1.00  0.00    -0.308 A  
HETATM   19  C   UNL     1      -9.172  14.025  66.363  1.00  0.00    -0.187 A  
HETATM   20  C   UNL     1      -8.644  14.909  67.313  1.00  0.00    -0.213 A  
HETATM   21  C   UNL     1      -9.429  15.943  67.840  1.00  0.00    -0.213 A  
HETATM   22  C   UNL     1     -11.306  15.129  66.524  1.00  0.00    -0.234 A  
HETATM   23  C   UNL     1     -10.756  16.060  67.413  1.00  0.00    -0.306 A  
BRANCH  20  24
HETATM   24  S   UNL     1      -7.008  14.659  67.961  1.00  0.00    -0.157 S  
HETATM   25  O   UNL     1      -6.356  13.656  67.153  1.00  0.00    -0.216 OA 
HETATM   26  N   UNL     1      -6.192  16.090  67.629  1.00  0.00    -0.147 N  
HETATM   27  O   UNL     1      -7.087  14.607  69.402  1.00  0.00    -0.145 OA 
HETATM   28  H1  UNL     1      -5.253  15.947  68.001  1.00  0.00     0.000 HD 
HETATM   29  H2  UNL     1      -6.554  16.920  67.159  1.00  0.00     0.000 HD 
ENDBRANCH  20  24
BRANCH  21  30
HETATM   30  O   UNL     1      -8.839  16.775  68.749  1.00  0.00    -0.252 OA 
HETATM   31  C   UNL     1      -8.939  18.177  68.537  1.00  0.00    -0.296 C  
ENDBRANCH  21  30
ENDBRANCH  17  18
ENDBRANCH  15  17
ENDBRANCH  13  15
ENDBRANCH  12  13
ENDBRANCH  11  12
ENDBRANCH  10  11
ENDBRANCH   9  10
ENDBRANCH   3   4
ENDBRANCH   2   3
TORSDOF 11
ENDMDL
MODEL      215
REMARK 921   NORMALIZED FREE ENERGY PREDICTED BY IDOCK:   -4.41 KCAL/MOL
REMARK 922        TOTAL FREE ENERGY PREDICTED BY IDOCK:   -8.49 KCAL/MOL
REMARK 923 INTER-LIGAND FREE ENERGY PREDICTED BY IDOCK:   -7.26 KCAL/MOL
REMARK 924 INTRA-LIGAND FREE ENERGY PREDICTED BY IDOCK:   -1.24 KCAL/MOL
REMARK 927      BINDING AFFINITY PREDICTED BY RF-SCORE:    0.00 PKD
ROOT
HETATM    1  C   UNL     1      -9.764   2.393  71.527  1.00  0.00    -0.225 C  
HETATM    2  C   UNL     1      -9.041   3.683  71.169  1.00  0.00    -0.109 C  
ENDROOT
BRANCH   2   3
HETATM    3  O   UNL     1     -10.051   4.589  70.744  1.00  0.00    -0.214 OA 
BRANCH   3   4
HETATM    4  C   UNL     1     -10.158   4.955  69.437  1.00  0.00    -0.200 A  
HETATM    5  C   UNL     1      -9.462   4.317  68.401  1.00  0.00    -0.215 A  
HETATM    6  C   UNL     1      -9.586   4.751  67.079  1.00  0.00    -0.187 A  
HETATM    7  C   UNL     1     -10.412   5.831  66.774  1.00  0.00    -0.350 A  
HETATM    8  C   UNL     1     -11.119   6.466  67.794  1.00  0.00    -0.376 A  
HETATM    9  C   UNL     1     -11.008   6.037  69.126  1.00  0.00    -0.359 A  
BRANCH   9  10
HETATM   10  O   UNL     1     -11.791   6.779  69.981  1.00  0.00    -0.316 OA 
BRANCH  10  11
HETATM   11  C   UNL     1     -11.142   7.692  70.864  1.00  0.00    -0.263 C  
BRANCH  11  12
HETATM   12  C   UNL     1     -10.937   9.039  70.157  1.00  0.00    -0.233 C  
BRANCH  12  13
HETATM   13  N   UNL     1      -9.542   9.493  70.050  1.00  0.00    -0.222 NA 
HETATM   14  H   UNL     1      -9.008   9.174  70.859  1.00  0.00     0.000 HD 
BRANCH  13  15
HETATM   15  C   UNL     1      -8.844   9.116  68.806  1.00  0.00    -0.132 C  
HETATM   16  C   UNL     1      -7.868   7.984  69.162  1.00  0.00    -0.108 C  
BRANCH  15  17
HETATM   17  C   UNL     1      -8.105  10.301  68.122  1.00  0.00    -0.110 C  
BRANCH  17  18
HETATM   18  C   UNL     1      -8.952  10.947  67.048  1.00  0.00    -0.148 A  
HETATM   19  C   UNL     1      -9.279  12.303  67.149  1.00  0.00    -0.196 A  
HETATM   20  C   UNL     1     -10.245  12.862  66.301  1.00  0.00    -0.278 A  
HETATM   21  C   UNL     1     -10.812  12.104  65.269  1.00  0.00    -0.293 A  
HETATM   22  C   UNL     1      -9.504  10.193  66.011  1.00  0.00    -0.248 A  
HETATM   23  C   UNL     1     -10.410  10.773  65.116  1.00  0.00    -0.341 A  
BRANCH  20  24
HETATM   24  S   UNL     1     -10.860  14.502  66.599  1.00  0.00    -0.317 S  
HETATM   25  O   UNL     1     -12.113  14.388  67.308  1.00  0.00    -0.406 OA 
HETATM   26  N   UNL     1      -9.787  15.168  67.708  1.00  0.00    -0.222 N  
HETATM   27  O   UNL     1     -10.681  15.286  65.399  1.00  0.00    -0.337 OA 
HETATM   28  H1  UNL     1     -10.140  16.109  67.880  1.00  0.00     0.000 HD 
HETATM   29  H2  UNL     1      -8.964  14.729  68.120  1.00  0.00     0.000 HD 
ENDBRANCH  20  24
BRANCH  21  30
HETATM   30  O   UNL     1     -11.735  12.723  64.473  1.00  0.00    -0.331 OA 
HETATM   31  C   UNL     1     -12.321  11.971  63.419  1.00  0.00    -0.523 C  
ENDBRANCH  21  30
ENDBRANCH  17  18
ENDBRANCH  15  17
ENDBRANCH  13  15
ENDBRANCH  12  13
ENDBRANCH  11  12
ENDBRANCH  10  11
ENDBRANCH   9  10
ENDBRANCH   3   4
ENDBRANCH   2   3
TORSDOF 11
ENDMDL
MODEL      216
REMARK 921   NORMALIZED FREE ENERGY PREDICTED BY IDOCK:   -4.41 KCAL/MOL
REMARK 922        TOTAL FREE ENERGY PREDICTED BY IDOCK:   -8.49 KCAL/MOL
REMARK 923 INTER-LIGAND FREE ENERGY PREDICTED BY IDOCK:   -6.35 KCAL/MOL
REMARK 924 INTRA-LIGAND FREE ENERGY PREDICTED BY IDOCK:   -2.14 KCAL/MOL
REMARK 927      BINDING AFFINITY PREDICTED BY RF-SCORE:    0.00 PKD
ROOT
HETATM    1  C   UNL     1     -11.774  14.115  70.188  1.00  0.00    -0.350 C  
HETATM    2  C   UNL     1     -11.662  13.053  69.105  1.00  0.00    -0.326 C  
ENDROOT
BRANCH   2   3
HETATM    3  O   UNL     1     -12.241  13.626  67.939  1.00  0.00    -0.320 OA 
BRANCH   3   4
HETATM    4  C   UNL     1     -11.684  13.428  66.712  1.00  0.00    -0.385 A  
HETATM    5  C   UNL     1     -11.622  12.174  66.089  1.00  0.00    -0.418 A  
HETATM    6  C   UNL     1     -11.014  12.022  64.840  1.00  0.00    -0.356 A  
HETATM    7  C   UNL     1     -10.460  13.126  64.196  1.00  0.00    -0.348 A  
HETATM    8  C   UNL     1     -10.527  14.381  64.799  1.00  0.00    -0.394 A  
HETATM    9  C   UNL     1     -11.139  14.549  66.051  1.00  0.00    -0.329 A  
BRANCH   9  10
HETATM   10  O   UNL     1     -11.117  15.859  66.471  1.00  0.00    -0.192 OA 
BRANCH  10  11
HETATM   11  C   UNL     1      -9.960  16.640  66.173  1.00  0.00    -0.337 C  
BRANCH  11  12
HETATM   12  C   UNL     1      -9.205  16.960  67.470  1.00  0.00    -0.223 C  
BRANCH  12  13
HETATM   13  N   UNL     1      -9.062  15.840  68.413  1.00  0.00    -0.183 NA 
HETATM   14  H   UNL     1      -9.867  15.218  68.341  1.00  0.00     0.000 HD 
BRANCH  13  15
HETATM   15  C   UNL     1      -7.813  15.063  68.294  1.00  0.00    -0.119 C  
HETATM   16  C   UNL     1      -6.743  16.015  67.736  1.00  0.00    -0.175 C  
BRANCH  15  17
HETATM   17  C   UNL     1      -7.950  13.791  67.410  1.00  0.00    -0.175 C  
BRANCH  17  18
HETATM   18  C   UNL     1      -7.747  12.525  68.213  1.00  0.00    -0.141 A  
HETATM   19  C   UNL     1      -8.650  11.466  68.071  1.00  0.00    -0.147 A  
HETATM   20  C   UNL     1      -8.619  10.387  68.964  1.00  0.00    -0.157 A  
HETATM   21  C   UNL     1      -7.615  10.296  69.938  1.00  0.00    -0.143 A  
HETATM   22  C   UNL     1      -6.737  12.431  69.171  1.00  0.00    -0.090 A  
HETATM   23  C   UNL     1      -6.660  11.315  70.012  1.00  0.00    -0.068 A  
BRANCH  20  24
HETATM   24  S   UNL     1      -9.923   9.180  68.961  1.00  0.00    -0.190 S  
HETATM   25  O   UNL     1     -10.615   9.274  67.697  1.00  0.00    -0.263 OA 
HETATM   26  N   UNL     1      -9.135   7.696  68.922  1.00  0.00    -0.141 N  
HETATM   27  O   UNL     1     -10.583   9.211  70.246  1.00  0.00    -0.200 OA 
HETATM   28  H1  UNL     1      -9.883   7.004  68.920  1.00  0.00     0.000 HD 
HETATM   29  H2  UNL     1      -8.130   7.525  68.903  1.00  0.00     0.000 HD 
ENDBRANCH  20  24
BRANCH  21  30
HETATM   30  O   UNL     1      -7.641   9.205  70.762  1.00  0.00    -0.109 OA 
HETATM   31  C   UNL     1      -6.484   8.928  71.541  1.00  0.00    -0.076 C  
ENDBRANCH  21  30
ENDBRANCH  17  18
ENDBRANCH  15  17
ENDBRANCH  13  15
ENDBRANCH  12  13
ENDBRANCH  11  12
ENDBRANCH  10  11
ENDBRANCH   9  10
ENDBRANCH   3   4
ENDBRANCH   2   3
TORSDOF 11
ENDMDL
MODEL      217
REMARK 921   NORMALIZED FREE ENERGY PREDICTED BY IDOCK:   -4.41 KCAL/MOL
REMARK 922        TOTAL FREE ENERGY PREDICTED BY IDOCK:   -8.49 KCAL/MOL
REMARK 923 INTER-LIGAND FREE ENERGY PREDICTED BY IDOCK:   -7.33 KCAL/MOL
REMARK 924 INTRA-LIGAND FREE ENERGY PREDICTED BY IDOCK:   -1.16 KCAL/MOL
REMARK 927      BINDING AFFINITY PREDICTED BY RF-SCORE:    0.00 PKD
ROOT
HETATM    1  C   UNL     1      -7.649   1.522  68.474  1.00  0.00    -0.046 C  
HETATM    2  C   UNL     1      -8.449   2.549  69.260  1.00  0.00    -0.062 C  
ENDROOT
BRANCH   2   3
HETATM    3  O   UNL     1      -9.495   2.973  68.393  1.00  0.00    -0.193 OA 
BRANCH   3   4
HETATM    4  C   UNL     1      -9.444   4.186  67.777  1.00  0.00    -0.175 A  
HETATM    5  C   UNL     1      -8.796   4.400  66.552  1.00  0.00    -0.114 A  
HETATM    6  C   UNL     1      -8.751   5.673  65.977  1.00  0.00    -0.144 A  
HETATM    7  C   UNL     1      -9.356   6.750  66.620  1.00  0.00    -0.197 A  
HETATM    8  C   UNL     1     -10.014   6.548  67.832  1.00  0.00    -0.148 A  
HETATM    9  C   UNL     1     -10.072   5.274  68.419  1.00  0.00    -0.159 A  
BRANCH   9  10
HETATM   10  O   UNL     1     -10.775   5.275  69.602  1.00  0.00    -0.273 OA 
BRANCH  10  11
HETATM   11  C   UNL     1     -10.096   5.688  70.787  1.00  0.00    -0.209 C  
BRANCH  11  12
HETATM   12  C   UNL     1     -10.948   6.718  71.539  1.00  0.00    -0.240 C  
BRANCH  12  13
HETATM   13  N   UNL     1     -11.684   7.671  70.694  1.00  0.00    -0.432 NA 
HETATM   14  H   UNL     1     -12.613   7.837  71.082  1.00  0.00     0.000 HD 
BRANCH  13  15
HETATM   15  C   UNL     1     -11.005   8.957  70.445  1.00  0.00    -0.244 C  
HETATM   16  C   UNL     1      -9.742   8.976  71.319  1.00  0.00    -0.371 C  
BRANCH  15  17
HETATM   17  C   UNL     1     -11.899  10.199  70.722  1.00  0.00    -0.443 C  
BRANCH  17  18
HETATM   18  C   UNL     1     -11.807  11.218  69.607  1.00  0.00    -0.430 A  
HETATM   19  C   UNL     1     -11.504  10.794  68.308  1.00  0.00    -0.353 A  
HETATM   20  C   UNL     1     -11.186  11.731  67.317  1.00  0.00    -0.305 A  
HETATM   21  C   UNL     1     -11.276  13.105  67.577  1.00  0.00    -0.282 A  
HETATM   22  C   UNL     1     -11.913  12.585  69.866  1.00  0.00    -0.371 A  
HETATM   23  C   UNL     1     -11.671  13.520  68.853  1.00  0.00    -0.379 A  
BRANCH  20  24
HETATM   24  S   UNL     1     -10.540  11.196  65.750  1.00  0.00    -0.191 S  
HETATM   25  O   UNL     1     -11.426  11.673  64.715  1.00  0.00    -0.257 OA 
HETATM   26  N   UNL     1      -9.119  12.071  65.550  1.00  0.00    -0.426 N  
HETATM   27  O   UNL     1     -10.111   9.822  65.874  1.00  0.00    -0.282 OA 
HETATM   28  H1  UNL     1      -8.748  11.764  64.652  1.00  0.00     0.000 HD 
HETATM   29  H2  UNL     1      -8.715  12.758  66.187  1.00  0.00     0.000 HD 
ENDBRANCH  20  24
BRANCH  21  30
HETATM   30  O   UNL     1     -10.966  13.957  66.554  1.00  0.00    -0.296 OA 
HETATM   31  C   UNL     1     -10.753  15.327  66.867  1.00  0.00    -0.313 C  
ENDBRANCH  21  30
ENDBRANCH  17  18
ENDBRANCH  15  17
ENDBRANCH  13  15
ENDBRANCH  12  13
ENDBRANCH  11  12
ENDBRANCH  10  11
ENDBRANCH   9  10
ENDBRANCH   3   4
ENDBRANCH   2   3
TORSDOF 11
ENDMDL
MODEL      218
REMARK 921   NORMALIZED FREE ENERGY PREDICTED BY IDOCK:   -4.41 KCAL/MOL
REMARK 922        TOTAL FREE ENERGY PREDICTED BY IDOCK:   -8.49 KCAL/MOL
REMARK 923 INTER-LIGAND FREE ENERGY PREDICTED BY IDOCK:   -6.95 KCAL/MOL
REMARK 924 INTRA-LIGAND FREE ENERGY PREDICTED BY IDOCK:   -1.54 KCAL/MOL
REMARK 927      BINDING AFFINITY PREDICTED BY RF-SCORE:    0.00 PKD
ROOT
HETATM    1  C   UNL     1     -11.225   7.779  72.940  1.00  0.00    -0.434 C  
HETATM    2  C   UNL     1      -9.728   7.696  73.197  1.00  0.00    -0.269 C  
ENDROOT
BRANCH   2   3
HETATM    3  O   UNL     1      -9.184   6.980  72.095  1.00  0.00    -0.132 OA 
BRANCH   3   4
HETATM    4  C   UNL     1      -8.439   5.857  72.290  1.00  0.00    -0.121 A  
HETATM    5  C   UNL     1      -8.206   5.299  73.555  1.00  0.00    -0.110 A  
HETATM    6  C   UNL     1      -7.410   4.160  73.701  1.00  0.00    -0.075 A  
HETATM    7  C   UNL     1      -6.838   3.561  72.581  1.00  0.00    -0.037 A  
HETATM    8  C   UNL     1      -7.073   4.098  71.317  1.00  0.00    -0.036 A  
HETATM    9  C   UNL     1      -7.875   5.240  71.154  1.00  0.00    -0.103 A  
BRANCH   9  10
HETATM   10  O   UNL     1      -7.998   5.607  69.834  1.00  0.00    -0.091 OA 
BRANCH  10  11
HETATM   11  C   UNL     1      -7.146   6.640  69.342  1.00  0.00    -0.080 C  
BRANCH  11  12
HETATM   12  C   UNL     1      -7.994   7.754  68.713  1.00  0.00    -0.125 C  
BRANCH  12  13
HETATM   13  N   UNL     1      -9.060   8.299  69.568  1.00  0.00    -0.153 NA 
HETATM   14  H   UNL     1      -8.797   9.226  69.905  1.00  0.00     0.000 HD 
BRANCH  13  15
HETATM   15  C   UNL     1     -10.403   8.345  68.959  1.00  0.00    -0.218 C  
HETATM   16  C   UNL     1     -11.007   6.939  69.095  1.00  0.00    -0.240 C  
BRANCH  15  17
HETATM   17  C   UNL     1     -10.400   8.815  67.476  1.00  0.00    -0.334 C  
BRANCH  17  18
HETATM   18  C   UNL     1     -10.981  10.204  67.327  1.00  0.00    -0.250 A  
HETATM   19  C   UNL     1     -11.073  10.781  66.056  1.00  0.00     0.095 A  
HETATM   20  C   UNL     1     -11.386  12.139  65.917  1.00  0.00    -0.356 A  
HETATM   21  C   UNL     1     -11.722  12.912  67.037  1.00  0.00    -0.385 A  
HETATM   22  C   UNL     1     -11.330  10.966  68.443  1.00  0.00    -0.370 A  
HETATM   23  C   UNL     1     -11.718  12.303  68.296  1.00  0.00    -0.392 A  
BRANCH  20  24
HETATM   24  S   UNL     1     -11.238  12.938  64.337  1.00  0.00    -0.375 S  
HETATM   25  O   UNL     1     -12.531  13.478  63.987  1.00  0.00    -0.645 OA 
HETATM   26  N   UNL     1     -10.265  14.279  64.623  1.00  0.00    -0.622 N  
HETATM   27  O   UNL     1     -10.454  12.095  63.465  1.00  0.00    -0.419 OA 
HETATM   28  H1  UNL     1     -10.181  14.737  63.716  1.00  0.00     0.000 HD 
HETATM   29  H2  UNL     1      -9.850  14.570  65.507  1.00  0.00     0.000 HD 
ENDBRANCH  20  24
BRANCH  21  30
HETATM   30  O   UNL     1     -12.032  14.225  66.820  1.00  0.00    -0.414 OA 
HETATM   31  C   UNL     1     -11.705  15.166  67.835  1.00  0.00    -0.256 C  
ENDBRANCH  21  30
ENDBRANCH  17  18
ENDBRANCH  15  17
ENDBRANCH  13  15
ENDBRANCH  12  13
ENDBRANCH  11  12
ENDBRANCH  10  11
ENDBRANCH   9  10
ENDBRANCH   3   4
ENDBRANCH   2   3
TORSDOF 11
ENDMDL
MODEL      219
REMARK 921   NORMALIZED FREE ENERGY PREDICTED BY IDOCK:   -4.40 KCAL/MOL
REMARK 922        TOTAL FREE ENERGY PREDICTED BY IDOCK:   -8.48 KCAL/MOL
REMARK 923 INTER-LIGAND FREE ENERGY PREDICTED BY IDOCK:   -7.29 KCAL/MOL
REMARK 924 INTRA-LIGAND FREE ENERGY PREDICTED BY IDOCK:   -1.18 KCAL/MOL
REMARK 927      BINDING AFFINITY PREDICTED BY RF-SCORE:    0.00 PKD
ROOT
HETATM    1  C   UNL     1     -11.036   6.063  68.252  1.00  0.00    -0.347 C  
HETATM    2  C   UNL     1      -9.893   5.916  69.245  1.00  0.00    -0.160 C  
ENDROOT
BRANCH   2   3
HETATM    3  O   UNL     1     -10.499   5.890  70.532  1.00  0.00    -0.220 OA 
BRANCH   3   4
HETATM    4  C   UNL     1     -11.241   6.942  70.977  1.00  0.00    -0.282 A  
HETATM    5  C   UNL     1     -12.609   6.849  71.267  1.00  0.00    -0.394 A  
HETATM    6  C   UNL     1     -13.329   7.968  71.695  1.00  0.00    -0.364 A  
HETATM    7  C   UNL     1     -12.688   9.196  71.841  1.00  0.00    -0.464 A  
HETATM    8  C   UNL     1     -11.325   9.297  71.569  1.00  0.00    -0.455 A  
HETATM    9  C   UNL     1     -10.587   8.181  71.143  1.00  0.00    -0.204 A  
BRANCH   9  10
HETATM   10  O   UNL     1      -9.259   8.479  70.939  1.00  0.00    -0.152 OA 
BRANCH  10  11
HETATM   11  C   UNL     1      -8.938   9.525  70.024  1.00  0.00    -0.223 C  
BRANCH  11  12
HETATM   12  C   UNL     1      -7.457   9.900  70.166  1.00  0.00    -0.170 C  
BRANCH  12  13
HETATM   13  N   UNL     1      -6.564   9.362  69.128  1.00  0.00    -0.049 NA 
HETATM   14  H   UNL     1      -6.490   8.349  69.222  1.00  0.00     0.000 HD 
BRANCH  13  15
HETATM   15  C   UNL     1      -6.916   9.716  67.740  1.00  0.00    -0.079 C  
HETATM   16  C   UNL     1      -5.911   8.999  66.824  1.00  0.00    -0.053 C  
BRANCH  15  17
HETATM   17  C   UNL     1      -6.928  11.248  67.470  1.00  0.00    -0.091 C  
BRANCH  17  18
HETATM   18  C   UNL     1      -8.260  11.711  66.923  1.00  0.00    -0.169 A  
HETATM   19  C   UNL     1      -8.771  12.954  67.309  1.00  0.00    -0.204 A  
HETATM   20  C   UNL     1     -10.094  13.299  67.004  1.00  0.00    -0.242 A  
HETATM   21  C   UNL     1     -10.887  12.458  66.212  1.00  0.00    -0.266 A  
HETATM   22  C   UNL     1      -9.041  10.877  66.120  1.00  0.00    -0.201 A  
HETATM   23  C   UNL     1     -10.336  11.258  65.750  1.00  0.00    -0.310 A  
BRANCH  20  24
HETATM   24  S   UNL     1     -10.832  14.748  67.721  1.00  0.00    -0.287 S  
HETATM   25  O   UNL     1     -11.123  15.676  66.653  1.00  0.00    -0.270 OA 
HETATM   26  N   UNL     1     -12.333  14.235  68.277  1.00  0.00    -0.580 N  
HETATM   27  O   UNL     1     -10.097  15.097  68.915  1.00  0.00    -0.221 OA 
HETATM   28  H1  UNL     1     -12.756  15.067  68.688  1.00  0.00     0.000 HD 
HETATM   29  H2  UNL     1     -12.733  13.299  68.217  1.00  0.00     0.000 HD 
ENDBRANCH  20  24
BRANCH  21  30
HETATM   30  O   UNL     1     -12.162  12.872  65.943  1.00  0.00    -0.444 OA 
HETATM   31  C   UNL     1     -12.578  12.916  64.584  1.00  0.00    -0.391 C  
ENDBRANCH  21  30
ENDBRANCH  17  18
ENDBRANCH  15  17
ENDBRANCH  13  15
ENDBRANCH  12  13
ENDBRANCH  11  12
ENDBRANCH  10  11
ENDBRANCH   9  10
ENDBRANCH   3   4
ENDBRANCH   2   3
TORSDOF 11
ENDMDL
MODEL      220
REMARK 921   NORMALIZED FREE ENERGY PREDICTED BY IDOCK:   -4.39 KCAL/MOL
REMARK 922        TOTAL FREE ENERGY PREDICTED BY IDOCK:   -8.45 KCAL/MOL
REMARK 923 INTER-LIGAND FREE ENERGY PREDICTED BY IDOCK:   -7.99 KCAL/MOL
REMARK 924 INTRA-LIGAND FREE ENERGY PREDICTED BY IDOCK:   -0.46 KCAL/MOL
REMARK 927      BINDING AFFINITY PREDICTED BY RF-SCORE:    0.00 PKD
ROOT
HETATM    1  C   UNL     1     -10.230  19.583  66.010  1.00  0.00    -0.567 C  
HETATM    2  C   UNL     1     -10.524  18.249  66.678  1.00  0.00    -0.360 C  
ENDROOT
BRANCH   2   3
HETATM    3  O   UNL     1      -9.998  17.254  65.808  1.00  0.00    -0.532 OA 
BRANCH   3   4
HETATM    4  C   UNL     1     -10.685  16.104  65.565  1.00  0.00    -0.342 A  
HETATM    5  C   UNL     1     -11.569  15.951  64.488  1.00  0.00    -0.232 A  
HETATM    6  C   UNL     1     -12.270  14.757  64.299  1.00  0.00    -0.402 A  
HETATM    7  C   UNL     1     -12.094  13.697  65.187  1.00  0.00    -0.426 A  
HETATM    8  C   UNL     1     -11.208  13.833  66.254  1.00  0.00    -0.310 A  
HETATM    9  C   UNL     1     -10.493  15.025  66.453  1.00  0.00    -0.294 A  
BRANCH   9  10
HETATM   10  O   UNL     1      -9.662  14.959  67.548  1.00  0.00    -0.211 OA 
BRANCH  10  11
HETATM   11  C   UNL     1      -8.255  14.902  67.321  1.00  0.00    -0.209 C  
BRANCH  11  12
HETATM   12  C   UNL     1      -7.692  13.593  67.891  1.00  0.00    -0.157 C  
BRANCH  12  13
HETATM   13  N   UNL     1      -8.664  12.734  68.586  1.00  0.00    -0.376 NA 
HETATM   14  H   UNL     1      -9.464  13.289  68.892  1.00  0.00     0.000 HD 
BRANCH  13  15
HETATM   15  C   UNL     1      -9.128  11.556  67.829  1.00  0.00    -0.165 C  
HETATM   16  C   UNL     1     -10.496  11.159  68.406  1.00  0.00    -0.211 C  
BRANCH  15  17
HETATM   17  C   UNL     1      -8.134  10.360  67.865  1.00  0.00    -0.102 C  
BRANCH  17  18
HETATM   18  C   UNL     1      -8.462   9.391  68.979  1.00  0.00    -0.129 A  
HETATM   19  C   UNL     1      -9.235   8.258  68.704  1.00  0.00    -0.143 A  
HETATM   20  C   UNL     1      -9.743   7.479  69.751  1.00  0.00    -0.171 A  
HETATM   21  C   UNL     1      -9.393   7.752  71.080  1.00  0.00    -0.152 A  
HETATM   22  C   UNL     1      -8.098   9.658  70.300  1.00  0.00    -0.206 A  
HETATM   23  C   UNL     1      -8.543   8.832  71.339  1.00  0.00    -0.254 A  
BRANCH  20  24
HETATM   24  S   UNL     1     -10.941   6.208  69.424  1.00  0.00    -0.395 S  
HETATM   25  O   UNL     1     -10.534   5.017  70.132  1.00  0.00    -0.267 OA 
HETATM   26  N   UNL     1     -12.339   6.725  70.202  1.00  0.00    -0.546 N  
HETATM   27  O   UNL     1     -11.272   6.236  68.019  1.00  0.00    -0.323 OA 
HETATM   28  H1  UNL     1     -13.026   5.995  70.015  1.00  0.00     0.000 HD 
HETATM   29  H2  UNL     1     -12.471   7.579  70.743  1.00  0.00     0.000 HD 
ENDBRANCH  20  24
BRANCH  21  30
HETATM   30  O   UNL     1      -9.915   6.937  72.045  1.00  0.00    -0.168 OA 
HETATM   31  C   UNL     1     -10.283   7.522  73.287  1.00  0.00    -0.343 C  
ENDBRANCH  21  30
ENDBRANCH  17  18
ENDBRANCH  15  17
ENDBRANCH  13  15
ENDBRANCH  12  13
ENDBRANCH  11  12
ENDBRANCH  10  11
ENDBRANCH   9  10
ENDBRANCH   3   4
ENDBRANCH   2   3
TORSDOF 11
ENDMDL
MODEL      221
REMARK 921   NORMALIZED FREE ENERGY PREDICTED BY IDOCK:   -4.38 KCAL/MOL
REMARK 922        TOTAL FREE ENERGY PREDICTED BY IDOCK:   -8.45 KCAL/MOL
REMARK 923 INTER-LIGAND FREE ENERGY PREDICTED BY IDOCK:   -7.02 KCAL/MOL
REMARK 924 INTRA-LIGAND FREE ENERGY PREDICTED BY IDOCK:   -1.43 KCAL/MOL
REMARK 927      BINDING AFFINITY PREDICTED BY RF-SCORE:    0.00 PKD
ROOT
HETATM    1  C   UNL     1      -7.003  13.864  67.823  1.00  0.00    -0.181 C  
HETATM    2  C   UNL     1      -7.459  15.252  68.248  1.00  0.00    -0.112 C  
ENDROOT
BRANCH   2   3
HETATM    3  O   UNL     1      -8.609  15.540  67.463  1.00  0.00    -0.160 OA 
BRANCH   3   4
HETATM    4  C   UNL     1      -9.215  16.757  67.530  1.00  0.00    -0.215 A  
HETATM    5  C   UNL     1      -9.150  17.587  68.658  1.00  0.00    -0.263 A  
HETATM    6  C   UNL     1      -9.814  18.817  68.684  1.00  0.00    -0.441 A  
HETATM    7  C   UNL     1     -10.550  19.234  67.578  1.00  0.00    -0.581 A  
HETATM    8  C   UNL     1     -10.611  18.424  66.445  1.00  0.00    -0.342 A  
HETATM    9  C   UNL     1      -9.946  17.189  66.403  1.00  0.00    -0.306 A  
BRANCH   9  10
HETATM   10  O   UNL     1     -10.114  16.546  65.198  1.00  0.00    -0.536 OA 
BRANCH  10  11
HETATM   11  C   UNL     1     -11.235  15.675  65.053  1.00  0.00    -0.329 C  
BRANCH  11  12
HETATM   12  C   UNL     1     -10.750  14.260  64.712  1.00  0.00    -0.416 C  
BRANCH  12  13
HETATM   13  N   UNL     1      -9.825  13.655  65.684  1.00  0.00    -0.466 NA 
HETATM   14  H   UNL     1      -9.625  14.318  66.434  1.00  0.00     0.000 HD 
BRANCH  13  15
HETATM   15  C   UNL     1     -10.256  12.364  66.254  1.00  0.00    -0.238 C  
HETATM   16  C   UNL     1     -11.707  12.135  65.803  1.00  0.00    -0.391 C  
BRANCH  15  17
HETATM   17  C   UNL     1     -10.130  12.292  67.802  1.00  0.00    -0.202 C  
BRANCH  17  18
HETATM   18  C   UNL     1      -9.542  10.974  68.256  1.00  0.00    -0.172 A  
HETATM   19  C   UNL     1      -9.213  10.001  67.307  1.00  0.00    -0.159 A  
HETATM   20  C   UNL     1      -8.890   8.699  67.712  1.00  0.00    -0.136 A  
HETATM   21  C   UNL     1      -8.781   8.382  69.073  1.00  0.00    -0.142 A  
HETATM   22  C   UNL     1      -9.420  10.666  69.612  1.00  0.00     0.063 A  
HETATM   23  C   UNL     1      -9.021   9.387  70.016  1.00  0.00    -0.234 A  
BRANCH  20  24
HETATM   24  S   UNL     1      -8.738   7.397  66.513  1.00  0.00    -0.146 S  
HETATM   25  O   UNL     1      -9.855   6.498  66.686  1.00  0.00    -0.167 OA 
HETATM   26  N   UNL     1      -9.002   8.145  65.031  1.00  0.00    -0.386 N  
HETATM   27  O   UNL     1      -7.359   6.970  66.469  1.00  0.00    -0.079 OA 
HETATM   28  H1  UNL     1      -8.915   7.398  64.343  1.00  0.00     0.000 HD 
HETATM   29  H2  UNL     1      -9.204   9.129  64.858  1.00  0.00     0.000 HD 
ENDBRANCH  20  24
BRANCH  21  30
HETATM   30  O   UNL     1      -8.446   7.095  69.390  1.00  0.00    -0.131 OA 
HETATM   31  C   UNL     1      -9.180   6.448  70.421  1.00  0.00    -0.155 C  
ENDBRANCH  21  30
ENDBRANCH  17  18
ENDBRANCH  15  17
ENDBRANCH  13  15
ENDBRANCH  12  13
ENDBRANCH  11  12
ENDBRANCH  10  11
ENDBRANCH   9  10
ENDBRANCH   3   4
ENDBRANCH   2   3
TORSDOF 11
ENDMDL
MODEL      222
REMARK 921   NORMALIZED FREE ENERGY PREDICTED BY IDOCK:   -4.37 KCAL/MOL
REMARK 922        TOTAL FREE ENERGY PREDICTED BY IDOCK:   -8.43 KCAL/MOL
REMARK 923 INTER-LIGAND FREE ENERGY PREDICTED BY IDOCK:   -7.42 KCAL/MOL
REMARK 924 INTRA-LIGAND FREE ENERGY PREDICTED BY IDOCK:   -1.01 KCAL/MOL
REMARK 927      BINDING AFFINITY PREDICTED BY RF-SCORE:    0.00 PKD
ROOT
HETATM    1  C   UNL     1      -9.059   7.883  67.236  1.00  0.00    -0.152 C  
HETATM    2  C   UNL     1      -9.232   8.878  68.373  1.00  0.00    -0.140 C  
ENDROOT
BRANCH   2   3
HETATM    3  O   UNL     1     -10.469   8.549  68.993  1.00  0.00    -0.219 OA 
BRANCH   3   4
HETATM    4  C   UNL     1     -10.529   8.248  70.319  1.00  0.00    -0.218 A  
HETATM    5  C   UNL     1      -9.572   7.459  70.973  1.00  0.00    -0.161 A  
HETATM    6  C   UNL     1      -9.696   7.158  72.332  1.00  0.00    -0.173 A  
HETATM    7  C   UNL     1     -10.782   7.645  73.057  1.00  0.00    -0.449 A  
HETATM    8  C   UNL     1     -11.733   8.441  72.421  1.00  0.00    -0.452 A  
HETATM    9  C   UNL     1     -11.618   8.756  71.058  1.00  0.00    -0.288 A  
BRANCH   9  10
HETATM   10  O   UNL     1     -12.645   9.561  70.620  1.00  0.00    -0.155 OA 
BRANCH  10  11
HETATM   11  C   UNL     1     -12.646  10.929  71.025  1.00  0.00    -0.417 C  
BRANCH  11  12
HETATM   12  C   UNL     1     -11.773  11.752  70.068  1.00  0.00    -0.305 C  
BRANCH  12  13
HETATM   13  N   UNL     1     -12.373  13.004  69.580  1.00  0.00    -0.127 NA 
HETATM   14  H   UNL     1     -13.234  13.201  70.092  1.00  0.00     0.000 HD 
BRANCH  13  15
HETATM   15  C   UNL     1     -11.490  14.186  69.607  1.00  0.00    -0.273 C  
HETATM   16  C   UNL     1     -11.783  14.937  70.915  1.00  0.00    -0.374 C  
BRANCH  15  17
HETATM   17  C   UNL     1     -11.657  15.118  68.373  1.00  0.00    -0.356 C  
BRANCH  17  18
HETATM   18  C   UNL     1     -10.372  15.841  68.038  1.00  0.00    -0.252 A  
HETATM   19  C   UNL     1     -10.339  17.240  68.065  1.00  0.00    -0.353 A  
HETATM   20  C   UNL     1      -9.241  17.931  67.538  1.00  0.00    -0.249 A  
HETATM   21  C   UNL     1      -8.112  17.236  67.083  1.00  0.00    -0.203 A  
HETATM   22  C   UNL     1      -9.243  15.146  67.600  1.00  0.00    -0.181 A  
HETATM   23  C   UNL     1      -8.115  15.839  67.147  1.00  0.00    -0.244 A  
BRANCH  20  24
HETATM   24  S   UNL     1      -9.309  19.693  67.320  1.00  0.00    -0.350 S  
HETATM   25  O   UNL     1     -10.343  20.211  68.185  1.00  0.00    -0.394 OA 
HETATM   26  N   UNL     1      -7.867  20.262  67.971  1.00  0.00    -0.209 N  
HETATM   27  O   UNL     1      -9.216  19.987  65.909  1.00  0.00    -0.332 OA 
HETATM   28  H1  UNL     1      -7.907  21.273  67.846  1.00  0.00     0.000 HD 
HETATM   29  H2  UNL     1      -7.118  19.717  68.397  1.00  0.00     0.000 HD 
ENDBRANCH  20  24
BRANCH  21  30
HETATM   30  O   UNL     1      -7.073  17.981  66.599  1.00  0.00    -0.186 OA 
HETATM   31  C   UNL     1      -5.799  17.360  66.490  1.00  0.00    -0.208 C  
ENDBRANCH  21  30
ENDBRANCH  17  18
ENDBRANCH  15  17
ENDBRANCH  13  15
ENDBRANCH  12  13
ENDBRANCH  11  12
ENDBRANCH  10  11
ENDBRANCH   9  10
ENDBRANCH   3   4
ENDBRANCH   2   3
TORSDOF 11
ENDMDL
MODEL      223
REMARK 921   NORMALIZED FREE ENERGY PREDICTED BY IDOCK:   -4.37 KCAL/MOL
REMARK 922        TOTAL FREE ENERGY PREDICTED BY IDOCK:   -8.43 KCAL/MOL
REMARK 923 INTER-LIGAND FREE ENERGY PREDICTED BY IDOCK:   -7.38 KCAL/MOL
REMARK 924 INTRA-LIGAND FREE ENERGY PREDICTED BY IDOCK:   -1.04 KCAL/MOL
REMARK 927      BINDING AFFINITY PREDICTED BY RF-SCORE:    0.00 PKD
ROOT
HETATM    1  C   UNL     1      -9.183  13.949  68.337  1.00  0.00    -0.194 C  
HETATM    2  C   UNL     1     -10.093  15.161  68.210  1.00  0.00    -0.223 C  
ENDROOT
BRANCH   2   3
HETATM    3  O   UNL     1     -11.378  14.728  68.639  1.00  0.00    -0.259 OA 
BRANCH   3   4
HETATM    4  C   UNL     1     -11.759  14.851  69.941  1.00  0.00    -0.305 A  
HETATM    5  C   UNL     1     -11.645  16.046  70.666  1.00  0.00    -0.409 A  
HETATM    6  C   UNL     1     -12.026  16.110  72.009  1.00  0.00    -0.607 A  
HETATM    7  C   UNL     1     -12.528  14.977  72.645  1.00  0.00    -0.453 A  
HETATM    8  C   UNL     1     -12.658  13.786  71.932  1.00  0.00    -0.284 A  
HETATM    9  C   UNL     1     -12.285  13.709  70.581  1.00  0.00    -0.360 A  
BRANCH   9  10
HETATM   10  O   UNL     1     -12.500  12.457  70.050  1.00  0.00    -0.116 OA 
BRANCH  10  11
HETATM   11  C   UNL     1     -11.606  11.408  70.419  1.00  0.00    -0.172 C  
BRANCH  11  12
HETATM   12  C   UNL     1     -12.340  10.390  71.302  1.00  0.00    -0.401 C  
BRANCH  12  13
HETATM   13  N   UNL     1     -12.903   9.228  70.596  1.00  0.00    -0.488 NA 
HETATM   14  H   UNL     1     -12.228   8.871  69.919  1.00  0.00     0.000 HD 
BRANCH  13  15
HETATM   15  C   UNL     1     -13.382   8.131  71.458  1.00  0.00    -0.284 C  
HETATM   16  C   UNL     1     -14.266   8.765  72.544  1.00  0.00    -0.394 C  
BRANCH  15  17
HETATM   17  C   UNL     1     -12.238   7.286  72.087  1.00  0.00    -0.260 C  
BRANCH  17  18
HETATM   18  C   UNL     1     -11.161   6.960  71.077  1.00  0.00    -0.305 A  
HETATM   19  C   UNL     1      -9.974   7.702  71.068  1.00  0.00    -0.188 A  
HETATM   20  C   UNL     1      -9.070   7.576  70.005  1.00  0.00    -0.148 A  
HETATM   21  C   UNL     1      -9.282   6.626  68.997  1.00  0.00    -0.131 A  
HETATM   22  C   UNL     1     -11.368   6.003  70.082  1.00  0.00    -0.351 A  
HETATM   23  C   UNL     1     -10.425   5.823  69.063  1.00  0.00    -0.336 A  
BRANCH  20  24
HETATM   24  S   UNL     1      -7.706   8.703  69.849  1.00  0.00    -0.087 S  
HETATM   25  O   UNL     1      -6.487   7.929  69.833  1.00  0.00    -0.036 OA 
HETATM   26  N   UNL     1      -7.846   9.334  68.298  1.00  0.00    -0.097 N  
HETATM   27  O   UNL     1      -7.935   9.828  70.725  1.00  0.00    -0.288 OA 
HETATM   28  H1  UNL     1      -7.063   9.981  68.208  1.00  0.00     0.000 HD 
HETATM   29  H2  UNL     1      -8.557   9.119  67.599  1.00  0.00     0.000 HD 
ENDBRANCH  20  24
BRANCH  21  30
HETATM   30  O   UNL     1      -8.347   6.551  68.002  1.00  0.00    -0.115 OA 
HETATM   31  C   UNL     1      -7.734   5.293  67.754  1.00  0.00    -0.091 C  
ENDBRANCH  21  30
ENDBRANCH  17  18
ENDBRANCH  15  17
ENDBRANCH  13  15
ENDBRANCH  12  13
ENDBRANCH  11  12
ENDBRANCH  10  11
ENDBRANCH   9  10
ENDBRANCH   3   4
ENDBRANCH   2   3
TORSDOF 11
ENDMDL
MODEL      224
REMARK 921   NORMALIZED FREE ENERGY PREDICTED BY IDOCK:   -4.37 KCAL/MOL
REMARK 922        TOTAL FREE ENERGY PREDICTED BY IDOCK:   -8.42 KCAL/MOL
REMARK 923 INTER-LIGAND FREE ENERGY PREDICTED BY IDOCK:   -7.73 KCAL/MOL
REMARK 924 INTRA-LIGAND FREE ENERGY PREDICTED BY IDOCK:   -0.69 KCAL/MOL
REMARK 927      BINDING AFFINITY PREDICTED BY RF-SCORE:    0.00 PKD
ROOT
HETATM    1  C   UNL     1      -7.685   7.256  67.781  1.00  0.00    -0.112 C  
HETATM    2  C   UNL     1      -7.218   6.439  68.975  1.00  0.00    -0.084 C  
ENDROOT
BRANCH   2   3
HETATM    3  O   UNL     1      -8.103   6.767  70.040  1.00  0.00    -0.120 OA 
BRANCH   3   4
HETATM    4  C   UNL     1      -8.335   5.887  71.053  1.00  0.00    -0.123 A  
HETATM    5  C   UNL     1      -7.610   5.888  72.253  1.00  0.00    -0.101 A  
HETATM    6  C   UNL     1      -7.871   4.944  73.250  1.00  0.00    -0.097 A  
HETATM    7  C   UNL     1      -8.864   3.987  73.060  1.00  0.00    -0.103 A  
HETATM    8  C   UNL     1      -9.601   3.984  71.877  1.00  0.00    -0.217 A  
HETATM    9  C   UNL     1      -9.353   4.929  70.869  1.00  0.00    -0.152 A  
BRANCH   9  10
HETATM   10  O   UNL     1     -10.190   4.771  69.788  1.00  0.00    -0.246 OA 
BRANCH  10  11
HETATM   11  C   UNL     1     -11.101   5.826  69.484  1.00  0.00    -0.217 C  
BRANCH  11  12
HETATM   12  C   UNL     1     -11.825   6.269  70.762  1.00  0.00    -0.135 C  
BRANCH  12  13
HETATM   13  N   UNL     1     -12.670   7.466  70.631  1.00  0.00    -0.576 NA 
HETATM   14  H   UNL     1     -13.577   7.304  71.070  1.00  0.00     0.000 HD 
BRANCH  13  15
HETATM   15  C   UNL     1     -12.081   8.720  71.139  1.00  0.00    -0.267 C  
HETATM   16  C   UNL     1     -11.389   8.385  72.470  1.00  0.00    -0.416 C  
BRANCH  15  17
HETATM   17  C   UNL     1     -13.115   9.869  71.315  1.00  0.00    -0.487 C  
BRANCH  17  18
HETATM   18  C   UNL     1     -12.538  11.209  70.916  1.00  0.00    -0.483 A  
HETATM   19  C   UNL     1     -13.005  12.373  71.535  1.00  0.00    -0.385 A  
HETATM   20  C   UNL     1     -12.660  13.632  71.025  1.00  0.00    -0.363 A  
HETATM   21  C   UNL     1     -11.754  13.746  69.962  1.00  0.00    -0.257 A  
HETATM   22  C   UNL     1     -11.624  11.319  69.867  1.00  0.00    -0.413 A  
HETATM   23  C   UNL     1     -11.220  12.578  69.408  1.00  0.00    -0.215 A  
BRANCH  20  24
HETATM   24  S   UNL     1     -13.460  15.097  71.632  1.00  0.00    -0.486 S  
HETATM   25  O   UNL     1     -13.795  14.881  73.020  1.00  0.00    -0.484 OA 
HETATM   26  N   UNL     1     -12.256  16.269  71.648  1.00  0.00    -0.614 N  
HETATM   27  O   UNL     1     -14.403  15.553  70.637  1.00  0.00    -0.157 OA 
HETATM   28  H1  UNL     1     -12.715  17.110  71.996  1.00  0.00     0.000 HD 
HETATM   29  H2  UNL     1     -11.280  16.163  71.370  1.00  0.00     0.000 HD 
ENDBRANCH  20  24
BRANCH  21  30
HETATM   30  O   UNL     1     -11.454  15.008  69.530  1.00  0.00    -0.259 OA 
HETATM   31  C   UNL     1     -11.791  15.355  68.193  1.00  0.00    -0.160 C  
ENDBRANCH  21  30
ENDBRANCH  17  18
ENDBRANCH  15  17
ENDBRANCH  13  15
ENDBRANCH  12  13
ENDBRANCH  11  12
ENDBRANCH  10  11
ENDBRANCH   9  10
ENDBRANCH   3   4
ENDBRANCH   2   3
TORSDOF 11
ENDMDL
MODEL      225
REMARK 921   NORMALIZED FREE ENERGY PREDICTED BY IDOCK:   -4.35 KCAL/MOL
REMARK 922        TOTAL FREE ENERGY PREDICTED BY IDOCK:   -8.39 KCAL/MOL
REMARK 923 INTER-LIGAND FREE ENERGY PREDICTED BY IDOCK:   -7.30 KCAL/MOL
REMARK 924 INTRA-LIGAND FREE ENERGY PREDICTED BY IDOCK:   -1.09 KCAL/MOL
REMARK 927      BINDING AFFINITY PREDICTED BY RF-SCORE:    0.00 PKD
ROOT
HETATM    1  C   UNL     1      -9.056  13.299  66.802  1.00  0.00    -0.216 C  
HETATM    2  C   UNL     1     -10.167  14.113  66.156  1.00  0.00    -0.304 C  
ENDROOT
BRANCH   2   3
HETATM    3  O   UNL     1     -11.371  13.697  66.789  1.00  0.00    -0.310 OA 
BRANCH   3   4
HETATM    4  C   UNL     1     -11.667  14.092  68.058  1.00  0.00    -0.359 A  
HETATM    5  C   UNL     1     -11.644  15.431  68.471  1.00  0.00    -0.373 A  
HETATM    6  C   UNL     1     -11.929  15.780  69.794  1.00  0.00    -0.337 A  
HETATM    7  C   UNL     1     -12.243  14.790  70.723  1.00  0.00    -0.380 A  
HETATM    8  C   UNL     1     -12.282  13.456  70.322  1.00  0.00    -0.405 A  
HETATM    9  C   UNL     1     -12.002  13.092  68.995  1.00  0.00    -0.267 A  
BRANCH   9  10
HETATM   10  O   UNL     1     -12.105  11.734  68.793  1.00  0.00    -0.358 OA 
BRANCH  10  11
HETATM   11  C   UNL     1     -10.984  10.918  69.132  1.00  0.00    -0.239 C  
BRANCH  11  12
HETATM   12  C   UNL     1     -11.289  10.127  70.411  1.00  0.00    -0.326 C  
BRANCH  12  13
HETATM   13  N   UNL     1     -11.690   8.726  70.209  1.00  0.00    -0.465 NA 
HETATM   14  H   UNL     1     -10.866   8.147  70.045  1.00  0.00     0.000 HD 
BRANCH  13  15
HETATM   15  C   UNL     1     -12.513   8.139  71.284  1.00  0.00    -0.252 C  
HETATM   16  C   UNL     1     -13.888   8.823  71.224  1.00  0.00    -0.226 C  
BRANCH  15  17
HETATM   17  C   UNL     1     -11.879   8.272  72.698  1.00  0.00    -0.382 C  
BRANCH  17  18
HETATM   18  C   UNL     1     -10.665   7.385  72.856  1.00  0.00    -0.387 A  
HETATM   19  C   UNL     1      -9.451   7.943  73.273  1.00  0.00    -0.350 A  
HETATM   20  C   UNL     1      -8.269   7.195  73.202  1.00  0.00    -0.108 A  
HETATM   21  C   UNL     1      -8.299   5.847  72.822  1.00  0.00    -0.118 A  
HETATM   22  C   UNL     1     -10.701   6.038  72.491  1.00  0.00    -0.264 A  
HETATM   23  C   UNL     1      -9.531   5.270  72.496  1.00  0.00    -0.164 A  
BRANCH  20  24
HETATM   24  S   UNL     1      -6.695   7.976  73.469  1.00  0.00    -0.108 S  
HETATM   25  O   UNL     1      -6.920   9.189  74.220  1.00  0.00    -0.384 OA 
HETATM   26  N   UNL     1      -5.881   6.952  74.524  1.00  0.00    -0.070 N  
HETATM   27  O   UNL     1      -5.937   7.918  72.241  1.00  0.00    -0.039 OA 
HETATM   28  H1  UNL     1      -4.978   7.400  74.677  1.00  0.00     0.000 HD 
HETATM   29  H2  UNL     1      -6.215   6.075  74.923  1.00  0.00     0.000 HD 
ENDBRANCH  20  24
BRANCH  21  30
HETATM   30  O   UNL     1      -7.106   5.179  72.793  1.00  0.00    -0.082 OA 
HETATM   31  C   UNL     1      -6.776   4.451  71.617  1.00  0.00    -0.030 C  
ENDBRANCH  21  30
ENDBRANCH  17  18
ENDBRANCH  15  17
ENDBRANCH  13  15
ENDBRANCH  12  13
ENDBRANCH  11  12
ENDBRANCH  10  11
ENDBRANCH   9  10
ENDBRANCH   3   4
ENDBRANCH   2   3
TORSDOF 11
ENDMDL
MODEL      226
REMARK 921   NORMALIZED FREE ENERGY PREDICTED BY IDOCK:   -4.33 KCAL/MOL
REMARK 922        TOTAL FREE ENERGY PREDICTED BY IDOCK:   -8.36 KCAL/MOL
REMARK 923 INTER-LIGAND FREE ENERGY PREDICTED BY IDOCK:   -7.69 KCAL/MOL
REMARK 924 INTRA-LIGAND FREE ENERGY PREDICTED BY IDOCK:   -0.68 KCAL/MOL
REMARK 927      BINDING AFFINITY PREDICTED BY RF-SCORE:    0.00 PKD
ROOT
HETATM    1  C   UNL     1      -9.411   3.036  68.161  1.00  0.00    -0.254 C  
HETATM    2  C   UNL     1      -8.836   4.372  68.605  1.00  0.00    -0.104 C  
ENDROOT
BRANCH   2   3
HETATM    3  O   UNL     1      -9.398   5.346  67.734  1.00  0.00    -0.112 OA 
BRANCH   3   4
HETATM    4  C   UNL     1      -8.614   6.040  66.863  1.00  0.00    -0.108 A  
HETATM    5  C   UNL     1      -8.357   5.614  65.553  1.00  0.00    -0.139 A  
HETATM    6  C   UNL     1      -7.522   6.351  64.708  1.00  0.00    -0.087 A  
HETATM    7  C   UNL     1      -6.934   7.529  65.165  1.00  0.00    -0.058 A  
HETATM    8  C   UNL     1      -7.193   7.970  66.462  1.00  0.00    -0.080 A  
HETATM    9  C   UNL     1      -8.033   7.242  67.319  1.00  0.00    -0.111 A  
BRANCH   9  10
HETATM   10  O   UNL     1      -8.174   7.845  68.548  1.00  0.00    -0.124 OA 
BRANCH  10  11
HETATM   11  C   UNL     1      -8.656   9.187  68.587  1.00  0.00    -0.128 C  
BRANCH  11  12
HETATM   12  C   UNL     1      -9.942   9.250  69.421  1.00  0.00    -0.181 C  
BRANCH  12  13
HETATM   13  N   UNL     1      -9.755   9.211  70.880  1.00  0.00    -0.264 NA 
HETATM   14  H   UNL     1      -9.095   9.935  71.167  1.00  0.00     0.000 HD 
BRANCH  13  15
HETATM   15  C   UNL     1     -10.989   9.306  71.683  1.00  0.00    -0.363 C  
HETATM   16  C   UNL     1     -11.172   7.953  72.389  1.00  0.00    -0.409 C  
BRANCH  15  17
HETATM   17  C   UNL     1     -12.248   9.681  70.851  1.00  0.00    -0.368 C  
BRANCH  17  18
HETATM   18  C   UNL     1     -12.594  11.147  70.987  1.00  0.00    -0.503 A  
HETATM   19  C   UNL     1     -12.020  12.077  70.113  1.00  0.00    -0.401 A  
HETATM   20  C   UNL     1     -12.140  13.450  70.363  1.00  0.00    -0.333 A  
HETATM   21  C   UNL     1     -12.931  13.915  71.422  1.00  0.00    -0.355 A  
HETATM   22  C   UNL     1     -13.394  11.607  72.034  1.00  0.00    -0.405 A  
HETATM   23  C   UNL     1     -13.578  12.980  72.236  1.00  0.00    -0.643 A  
BRANCH  20  24
HETATM   24  S   UNL     1     -11.193  14.621  69.421  1.00  0.00    -0.290 S  
HETATM   25  O   UNL     1     -10.485  15.472  70.347  1.00  0.00    -0.313 OA 
HETATM   26  N   UNL     1     -10.002  13.703  68.668  1.00  0.00    -0.351 N  
HETATM   27  O   UNL     1     -12.014  15.114  68.339  1.00  0.00    -0.299 OA 
HETATM   28  H1  UNL     1      -9.458  14.375  68.128  1.00  0.00     0.000 HD 
HETATM   29  H2  UNL     1      -9.855  12.697  68.737  1.00  0.00     0.000 HD 
ENDBRANCH  20  24
BRANCH  21  30
HETATM   30  O   UNL     1     -13.013  15.269  71.593  1.00  0.00    -0.345 OA 
HETATM   31  C   UNL     1     -13.667  15.758  72.756  1.00  0.00    -0.560 C  
ENDBRANCH  21  30
ENDBRANCH  17  18
ENDBRANCH  15  17
ENDBRANCH  13  15
ENDBRANCH  12  13
ENDBRANCH  11  12
ENDBRANCH  10  11
ENDBRANCH   9  10
ENDBRANCH   3   4
ENDBRANCH   2   3
TORSDOF 11
ENDMDL
MODEL      227
REMARK 921   NORMALIZED FREE ENERGY PREDICTED BY IDOCK:   -4.32 KCAL/MOL
REMARK 922        TOTAL FREE ENERGY PREDICTED BY IDOCK:   -8.34 KCAL/MOL
REMARK 923 INTER-LIGAND FREE ENERGY PREDICTED BY IDOCK:   -7.51 KCAL/MOL
REMARK 924 INTRA-LIGAND FREE ENERGY PREDICTED BY IDOCK:   -0.83 KCAL/MOL
REMARK 927      BINDING AFFINITY PREDICTED BY RF-SCORE:    0.00 PKD
ROOT
HETATM    1  C   UNL     1     -11.219  16.183  64.488  1.00  0.00    -0.275 C  
HETATM    2  C   UNL     1     -10.642  16.506  65.858  1.00  0.00    -0.270 C  
ENDROOT
BRANCH   2   3
HETATM    3  O   UNL     1      -9.430  17.208  65.613  1.00  0.00    -0.523 OA 
BRANCH   3   4
HETATM    4  C   UNL     1      -8.699  17.722  66.641  1.00  0.00    -0.261 A  
HETATM    5  C   UNL     1      -8.734  19.074  67.009  1.00  0.00    -0.309 A  
HETATM    6  C   UNL     1      -7.943  19.554  68.055  1.00  0.00    -0.342 A  
HETATM    7  C   UNL     1      -7.105  18.685  68.751  1.00  0.00    -0.326 A  
HETATM    8  C   UNL     1      -7.071  17.336  68.403  1.00  0.00    -0.209 A  
HETATM    9  C   UNL     1      -7.864  16.838  67.357  1.00  0.00    -0.171 A  
BRANCH   9  10
HETATM   10  O   UNL     1      -7.701  15.484  67.176  1.00  0.00    -0.192 OA 
BRANCH  10  11
HETATM   11  C   UNL     1      -8.036  14.616  68.258  1.00  0.00    -0.133 C  
BRANCH  11  12
HETATM   12  C   UNL     1      -9.560  14.464  68.346  1.00  0.00    -0.219 C  
BRANCH  12  13
HETATM   13  N   UNL     1     -10.038  13.279  69.075  1.00  0.00    -0.425 NA 
HETATM   14  H   UNL     1      -9.740  13.325  70.050  1.00  0.00     0.000 HD 
BRANCH  13  15
HETATM   15  C   UNL     1     -11.490  13.030  69.003  1.00  0.00    -0.303 C  
HETATM   16  C   UNL     1     -12.118  13.665  70.254  1.00  0.00    -0.427 C  
BRANCH  15  17
HETATM   17  C   UNL     1     -11.861  11.524  68.892  1.00  0.00    -0.406 C  
BRANCH  17  18
HETATM   18  C   UNL     1     -11.223  10.877  67.683  1.00  0.00    -0.379 A  
HETATM   19  C   UNL     1     -10.671   9.596  67.795  1.00  0.00    -0.316 A  
HETATM   20  C   UNL     1      -9.877   9.076  66.765  1.00  0.00    -0.234 A  
HETATM   21  C   UNL     1      -9.717   9.779  65.563  1.00  0.00    -0.312 A  
HETATM   22  C   UNL     1     -11.078  11.573  66.482  1.00  0.00    -0.341 A  
HETATM   23  C   UNL     1     -10.349  11.019  65.424  1.00  0.00    -0.330 A  
BRANCH  20  24
HETATM   24  S   UNL     1      -8.955   7.577  67.011  1.00  0.00    -0.135 S  
HETATM   25  O   UNL     1      -9.378   6.624  66.012  1.00  0.00    -0.112 OA 
HETATM   26  N   UNL     1      -7.374   7.972  66.600  1.00  0.00    -0.087 N  
HETATM   27  O   UNL     1      -8.907   7.293  68.426  1.00  0.00    -0.129 OA 
HETATM   28  H1  UNL     1      -6.846   7.112  66.741  1.00  0.00     0.000 HD 
HETATM   29  H2  UNL     1      -7.021   8.874  66.280  1.00  0.00     0.000 HD 
ENDBRANCH  20  24
BRANCH  21  30
HETATM   30  O   UNL     1      -8.940   9.200  64.599  1.00  0.00    -0.192 OA 
HETATM   31  C   UNL     1      -7.973  10.010  63.943  1.00  0.00    -0.151 C  
ENDBRANCH  21  30
ENDBRANCH  17  18
ENDBRANCH  15  17
ENDBRANCH  13  15
ENDBRANCH  12  13
ENDBRANCH  11  12
ENDBRANCH  10  11
ENDBRANCH   9  10
ENDBRANCH   3   4
ENDBRANCH   2   3
TORSDOF 11
ENDMDL
MODEL      228
REMARK 921   NORMALIZED FREE ENERGY PREDICTED BY IDOCK:   -4.31 KCAL/MOL
REMARK 922        TOTAL FREE ENERGY PREDICTED BY IDOCK:   -8.33 KCAL/MOL
REMARK 923 INTER-LIGAND FREE ENERGY PREDICTED BY IDOCK:   -7.77 KCAL/MOL
REMARK 924 INTRA-LIGAND FREE ENERGY PREDICTED BY IDOCK:   -0.56 KCAL/MOL
REMARK 927      BINDING AFFINITY PREDICTED BY RF-SCORE:    0.00 PKD
ROOT
HETATM    1  C   UNL     1     -10.529   8.152  67.308  1.00  0.00    -0.379 C  
HETATM    2  C   UNL     1     -10.642   9.664  67.190  1.00  0.00    -0.228 C  
ENDROOT
BRANCH   2   3
HETATM    3  O   UNL     1      -9.414  10.101  66.622  1.00  0.00    -0.161 OA 
BRANCH   3   4
HETATM    4  C   UNL     1      -9.159   9.935  65.295  1.00  0.00    -0.211 A  
HETATM    5  C   UNL     1      -8.181   9.058  64.804  1.00  0.00    -0.161 A  
HETATM    6  C   UNL     1      -7.941   8.945  63.432  1.00  0.00    -0.157 A  
HETATM    7  C   UNL     1      -8.680   9.708  62.531  1.00  0.00    -0.232 A  
HETATM    8  C   UNL     1      -9.664  10.574  63.005  1.00  0.00    -0.337 A  
HETATM    9  C   UNL     1      -9.919  10.694  64.380  1.00  0.00    -0.350 A  
BRANCH   9  10
HETATM   10  O   UNL     1     -10.933  11.585  64.648  1.00  0.00    -0.317 OA 
BRANCH  10  11
HETATM   11  C   UNL     1     -10.891  12.861  64.011  1.00  0.00    -0.410 C  
BRANCH  11  12
HETATM   12  C   UNL     1     -11.028  13.969  65.064  1.00  0.00    -0.375 C  
BRANCH  12  13
HETATM   13  N   UNL     1     -10.076  13.900  66.184  1.00  0.00    -0.300 NA 
HETATM   14  H   UNL     1      -9.643  14.813  66.330  1.00  0.00     0.000 HD 
BRANCH  13  15
HETATM   15  C   UNL     1     -10.626  13.394  67.456  1.00  0.00    -0.250 C  
HETATM   16  C   UNL     1     -12.157  13.480  67.351  1.00  0.00    -0.360 C  
BRANCH  15  17
HETATM   17  C   UNL     1     -10.105  14.155  68.708  1.00  0.00    -0.199 C  
BRANCH  17  18
HETATM   18  C   UNL     1      -9.818  15.608  68.403  1.00  0.00    -0.206 A  
HETATM   19  C   UNL     1      -8.511  16.094  68.524  1.00  0.00    -0.197 A  
HETATM   20  C   UNL     1      -8.263  17.472  68.475  1.00  0.00    -0.278 A  
HETATM   21  C   UNL     1      -9.297  18.373  68.189  1.00  0.00    -0.317 A  
HETATM   22  C   UNL     1     -10.847  16.501  68.104  1.00  0.00    -0.345 A  
HETATM   23  C   UNL     1     -10.585  17.870  67.977  1.00  0.00    -0.366 A  
BRANCH  20  24
HETATM   24  S   UNL     1      -6.660  18.111  68.897  1.00  0.00    -0.247 S  
HETATM   25  O   UNL     1      -5.822  16.999  69.278  1.00  0.00    -0.169 OA 
HETATM   26  N   UNL     1      -6.022  18.664  67.443  1.00  0.00    -0.169 N  
HETATM   27  O   UNL     1      -6.834  19.301  69.697  1.00  0.00    -0.271 OA 
HETATM   28  H1  UNL     1      -5.102  19.030  67.686  1.00  0.00     0.000 HD 
HETATM   29  H2  UNL     1      -6.458  18.638  66.522  1.00  0.00     0.000 HD 
ENDBRANCH  20  24
BRANCH  21  30
HETATM   30  O   UNL     1      -8.974  19.701  68.142  1.00  0.00    -0.320 OA 
HETATM   31  C   UNL     1      -9.699  20.534  67.247  1.00  0.00    -0.460 C  
ENDBRANCH  21  30
ENDBRANCH  17  18
ENDBRANCH  15  17
ENDBRANCH  13  15
ENDBRANCH  12  13
ENDBRANCH  11  12
ENDBRANCH  10  11
ENDBRANCH   9  10
ENDBRANCH   3   4
ENDBRANCH   2   3
TORSDOF 11
ENDMDL
MODEL      229
REMARK 921   NORMALIZED FREE ENERGY PREDICTED BY IDOCK:   -4.30 KCAL/MOL
REMARK 922        TOTAL FREE ENERGY PREDICTED BY IDOCK:   -8.30 KCAL/MOL
REMARK 923 INTER-LIGAND FREE ENERGY PREDICTED BY IDOCK:   -7.15 KCAL/MOL
REMARK 924 INTRA-LIGAND FREE ENERGY PREDICTED BY IDOCK:   -1.15 KCAL/MOL
REMARK 927      BINDING AFFINITY PREDICTED BY RF-SCORE:    0.00 PKD
ROOT
HETATM    1  C   UNL     1     -12.010  11.303  69.730  1.00  0.00    -0.431 C  
HETATM    2  C   UNL     1     -12.094  10.219  70.793  1.00  0.00    -0.353 C  
ENDROOT
BRANCH   2   3
HETATM    3  O   UNL     1     -11.268   9.157  70.332  1.00  0.00    -0.245 OA 
BRANCH   3   4
HETATM    4  C   UNL     1     -11.001   8.083  71.125  1.00  0.00    -0.243 A  
HETATM    5  C   UNL     1     -11.311   8.041  72.492  1.00  0.00    -0.469 A  
HETATM    6  C   UNL     1     -10.990   6.924  73.267  1.00  0.00    -0.270 A  
HETATM    7  C   UNL     1     -10.355   5.830  72.683  1.00  0.00    -0.229 A  
HETATM    8  C   UNL     1     -10.054   5.854  71.322  1.00  0.00    -0.245 A  
HETATM    9  C   UNL     1     -10.375   6.968  70.530  1.00  0.00    -0.201 A  
BRANCH   9  10
HETATM   10  O   UNL     1     -10.010   6.796  69.214  1.00  0.00    -0.156 OA 
BRANCH  10  11
HETATM   11  C   UNL     1     -11.002   6.336  68.297  1.00  0.00    -0.321 C  
BRANCH  11  12
HETATM   12  C   UNL     1     -10.829   7.048  66.949  1.00  0.00    -0.280 C  
BRANCH  12  13
HETATM   13  N   UNL     1      -9.873   8.168  66.941  1.00  0.00    -0.222 NA 
HETATM   14  H   UNL     1      -9.606   8.405  67.897  1.00  0.00     0.000 HD 
BRANCH  13  15
HETATM   15  C   UNL     1      -8.668   7.970  66.113  1.00  0.00    -0.154 C  
HETATM   16  C   UNL     1      -7.454   8.136  67.040  1.00  0.00    -0.088 C  
BRANCH  15  17
HETATM   17  C   UNL     1      -8.582   8.933  64.895  1.00  0.00    -0.198 C  
BRANCH  17  18
HETATM   18  C   UNL     1      -9.191  10.283  65.203  1.00  0.00    -0.252 A  
HETATM   19  C   UNL     1      -8.477  11.201  65.981  1.00  0.00    -0.138 A  
HETATM   20  C   UNL     1      -9.107  12.353  66.470  1.00  0.00    -0.181 A  
HETATM   21  C   UNL     1     -10.422  12.660  66.096  1.00  0.00    -0.258 A  
HETATM   22  C   UNL     1     -10.496  10.593  64.816  1.00  0.00    -0.280 A  
HETATM   23  C   UNL     1     -11.098  11.783  65.242  1.00  0.00    -0.333 A  
BRANCH  20  24
HETATM   24  S   UNL     1      -8.296  13.378  67.674  1.00  0.00    -0.193 S  
HETATM   25  O   UNL     1      -8.116  14.689  67.096  1.00  0.00    -0.203 OA 
HETATM   26  N   UNL     1      -9.432  13.588  68.895  1.00  0.00    -0.402 N  
HETATM   27  O   UNL     1      -7.234  12.615  68.288  1.00  0.00    -0.094 OA 
HETATM   28  H1  UNL     1      -8.967  14.176  69.585  1.00  0.00     0.000 HD 
HETATM   29  H2  UNL     1     -10.379  13.210  68.936  1.00  0.00     0.000 HD 
ENDBRANCH  20  24
BRANCH  21  30
HETATM   30  O   UNL     1     -10.963  13.810  66.601  1.00  0.00    -0.292 OA 
HETATM   31  C   UNL     1     -12.309  14.119  66.265  1.00  0.00    -0.422 C  
ENDBRANCH  21  30
ENDBRANCH  17  18
ENDBRANCH  15  17
ENDBRANCH  13  15
ENDBRANCH  12  13
ENDBRANCH  11  12
ENDBRANCH  10  11
ENDBRANCH   9  10
ENDBRANCH   3   4
ENDBRANCH   2   3
TORSDOF 11
ENDMDL
MODEL      230
REMARK 921   NORMALIZED FREE ENERGY PREDICTED BY IDOCK:   -4.30 KCAL/MOL
REMARK 922        TOTAL FREE ENERGY PREDICTED BY IDOCK:   -8.30 KCAL/MOL
REMARK 923 INTER-LIGAND FREE ENERGY PREDICTED BY IDOCK:   -7.70 KCAL/MOL
REMARK 924 INTRA-LIGAND FREE ENERGY PREDICTED BY IDOCK:   -0.60 KCAL/MOL
REMARK 927      BINDING AFFINITY PREDICTED BY RF-SCORE:    0.00 PKD
ROOT
HETATM    1  C   UNL     1     -10.606  18.953  65.774  1.00  0.00    -0.358 C  
HETATM    2  C   UNL     1     -10.389  17.604  66.442  1.00  0.00    -0.345 C  
ENDROOT
BRANCH   2   3
HETATM    3  O   UNL     1     -10.182  16.676  65.384  1.00  0.00    -0.585 OA 
BRANCH   3   4
HETATM    4  C   UNL     1     -10.879  15.507  65.332  1.00  0.00    -0.390 A  
HETATM    5  C   UNL     1     -11.786  15.199  64.309  1.00  0.00    -0.263 A  
HETATM    6  C   UNL     1     -12.496  13.995  64.318  1.00  0.00    -0.303 A  
HETATM    7  C   UNL     1     -12.306  13.082  65.353  1.00  0.00    -0.538 A  
HETATM    8  C   UNL     1     -11.397  13.372  66.369  1.00  0.00    -0.338 A  
HETATM    9  C   UNL     1     -10.673  14.574  66.370  1.00  0.00    -0.309 A  
BRANCH   9  10
HETATM   10  O   UNL     1      -9.819  14.669  67.445  1.00  0.00    -0.220 OA 
BRANCH  10  11
HETATM   11  C   UNL     1      -8.456  14.294  67.256  1.00  0.00    -0.210 C  
BRANCH  11  12
HETATM   12  C   UNL     1      -7.951  13.541  68.494  1.00  0.00    -0.119 C  
BRANCH  12  13
HETATM   13  N   UNL     1      -8.626  12.266  68.781  1.00  0.00    -0.367 NA 
HETATM   14  H   UNL     1      -9.527  12.233  68.303  1.00  0.00     0.000 HD 
BRANCH  13  15
HETATM   15  C   UNL     1      -7.848  11.050  68.474  1.00  0.00    -0.129 C  
HETATM   16  C   UNL     1      -8.709  10.189  67.536  1.00  0.00    -0.125 C  
BRANCH  15  17
HETATM   17  C   UNL     1      -7.418  10.250  69.736  1.00  0.00    -0.169 C  
BRANCH  17  18
HETATM   18  C   UNL     1      -8.291   9.034  69.954  1.00  0.00    -0.134 A  
HETATM   19  C   UNL     1      -9.550   9.184  70.545  1.00  0.00    -0.293 A  
HETATM   20  C   UNL     1     -10.272   8.059  70.965  1.00  0.00    -0.190 A  
HETATM   21  C   UNL     1      -9.799   6.767  70.699  1.00  0.00    -0.179 A  
HETATM   22  C   UNL     1      -7.824   7.748  69.674  1.00  0.00    -0.107 A  
HETATM   23  C   UNL     1      -8.582   6.626  70.024  1.00  0.00    -0.140 A  
BRANCH  20  24
HETATM   24  S   UNL     1     -11.735   8.250  71.955  1.00  0.00    -0.348 S  
HETATM   25  O   UNL     1     -12.224   9.597  71.776  1.00  0.00    -0.374 OA 
HETATM   26  N   UNL     1     -12.882   7.266  71.219  1.00  0.00    -0.483 N  
HETATM   27  O   UNL     1     -11.503   7.642  73.244  1.00  0.00    -0.263 OA 
HETATM   28  H1  UNL     1     -13.722   7.376  71.786  1.00  0.00     0.000 HD 
HETATM   29  H2  UNL     1     -12.765   6.687  70.388  1.00  0.00     0.000 HD 
ENDBRANCH  20  24
BRANCH  21  30
HETATM   30  O   UNL     1     -10.567   5.720  71.127  1.00  0.00    -0.231 OA 
HETATM   31  C   UNL     1      -9.919   4.486  71.404  1.00  0.00    -0.189 C  
ENDBRANCH  21  30
ENDBRANCH  17  18
ENDBRANCH  15  17
ENDBRANCH  13  15
ENDBRANCH  12  13
ENDBRANCH  11  12
ENDBRANCH  10  11
ENDBRANCH   9  10
ENDBRANCH   3   4
ENDBRANCH   2   3
TORSDOF 11
ENDMDL
MODEL      231
REMARK 921   NORMALIZED FREE ENERGY PREDICTED BY IDOCK:   -4.29 KCAL/MOL
REMARK 922        TOTAL FREE ENERGY PREDICTED BY IDOCK:   -8.28 KCAL/MOL
REMARK 923 INTER-LIGAND FREE ENERGY PREDICTED BY IDOCK:   -7.39 KCAL/MOL
REMARK 924 INTRA-LIGAND FREE ENERGY PREDICTED BY IDOCK:   -0.89 KCAL/MOL
REMARK 927      BINDING AFFINITY PREDICTED BY RF-SCORE:    0.00 PKD
ROOT
HETATM    1  C   UNL     1     -11.723  15.628  70.522  1.00  0.00    -0.392 C  
HETATM    2  C   UNL     1     -11.239  15.647  69.080  1.00  0.00    -0.315 C  
ENDROOT
BRANCH   2   3
HETATM    3  O   UNL     1     -12.012  14.666  68.399  1.00  0.00    -0.311 OA 
BRANCH   3   4
HETATM    4  C   UNL     1     -11.600  14.154  67.207  1.00  0.00    -0.373 A  
HETATM    5  C   UNL     1     -11.097  14.945  66.164  1.00  0.00    -0.335 A  
HETATM    6  C   UNL     1     -10.713  14.372  64.949  1.00  0.00    -0.444 A  
HETATM    7  C   UNL     1     -10.825  12.996  64.761  1.00  0.00    -0.357 A  
HETATM    8  C   UNL     1     -11.311  12.197  65.795  1.00  0.00    -0.402 A  
HETATM    9  C   UNL     1     -11.696  12.759  67.023  1.00  0.00    -0.374 A  
BRANCH   9  10
HETATM   10  O   UNL     1     -12.135  11.809  67.917  1.00  0.00    -0.592 OA 
BRANCH  10  11
HETATM   11  C   UNL     1     -11.520  11.762  69.203  1.00  0.00    -0.297 C  
BRANCH  11  12
HETATM   12  C   UNL     1     -10.886  10.383  69.423  1.00  0.00    -0.248 C  
BRANCH  12  13
HETATM   13  N   UNL     1     -11.209   9.367  68.408  1.00  0.00    -0.478 NA 
HETATM   14  H   UNL     1     -11.593   9.816  67.576  1.00  0.00     0.000 HD 
BRANCH  13  15
HETATM   15  C   UNL     1     -10.101   8.469  68.031  1.00  0.00    -0.200 C  
HETATM   16  C   UNL     1      -9.728   8.800  66.577  1.00  0.00    -0.328 C  
BRANCH  15  17
HETATM   17  C   UNL     1     -10.437   6.960  68.196  1.00  0.00    -0.243 C  
BRANCH  17  18
HETATM   18  C   UNL     1     -10.000   6.431  69.544  1.00  0.00    -0.190 A  
HETATM   19  C   UNL     1      -9.138   7.194  70.339  1.00  0.00    -0.156 A  
HETATM   20  C   UNL     1      -8.539   6.632  71.473  1.00  0.00    -0.124 A  
HETATM   21  C   UNL     1      -8.881   5.339  71.893  1.00  0.00    -0.135 A  
HETATM   22  C   UNL     1     -10.354   5.149  69.967  1.00  0.00    -0.347 A  
HETATM   23  C   UNL     1      -9.815   4.616  71.144  1.00  0.00    -0.261 A  
BRANCH  20  24
HETATM   24  S   UNL     1      -7.244   7.497  72.327  1.00  0.00    -0.072 S  
HETATM   25  O   UNL     1      -7.619   7.604  73.718  1.00  0.00    -0.111 OA 
HETATM   26  N   UNL     1      -5.936   6.442  72.305  1.00  0.00    -0.038 N  
HETATM   27  O   UNL     1      -6.825   8.617  71.517  1.00  0.00    -0.072 OA 
HETATM   28  H1  UNL     1      -5.192   6.938  72.796  1.00  0.00     0.000 HD 
HETATM   29  H2  UNL     1      -5.894   5.510  71.893  1.00  0.00     0.000 HD 
ENDBRANCH  20  24
BRANCH  21  30
HETATM   30  O   UNL     1      -8.267   4.865  73.019  1.00  0.00    -0.100 OA 
HETATM   31  C   UNL     1      -9.056   4.152  73.961  1.00  0.00    -0.096 C  
ENDBRANCH  21  30
ENDBRANCH  17  18
ENDBRANCH  15  17
ENDBRANCH  13  15
ENDBRANCH  12  13
ENDBRANCH  11  12
ENDBRANCH  10  11
ENDBRANCH   9  10
ENDBRANCH   3   4
ENDBRANCH   2   3
TORSDOF 11
ENDMDL
MODEL      232
REMARK 921   NORMALIZED FREE ENERGY PREDICTED BY IDOCK:   -4.28 KCAL/MOL
REMARK 922        TOTAL FREE ENERGY PREDICTED BY IDOCK:   -8.28 KCAL/MOL
REMARK 923 INTER-LIGAND FREE ENERGY PREDICTED BY IDOCK:   -7.21 KCAL/MOL
REMARK 924 INTRA-LIGAND FREE ENERGY PREDICTED BY IDOCK:   -1.07 KCAL/MOL
REMARK 927      BINDING AFFINITY PREDICTED BY RF-SCORE:    0.00 PKD
ROOT
HETATM    1  C   UNL     1     -12.179  13.395  63.272  1.00  0.00    -0.314 C  
HETATM    2  C   UNL     1     -12.659  12.084  63.875  1.00  0.00    -0.406 C  
ENDROOT
BRANCH   2   3
HETATM    3  O   UNL     1     -12.745  12.311  65.277  1.00  0.00    -0.543 OA 
BRANCH   3   4
HETATM    4  C   UNL     1     -11.697  12.844  65.964  1.00  0.00    -0.404 A  
HETATM    5  C   UNL     1     -11.705  14.144  66.490  1.00  0.00    -0.414 A  
HETATM    6  C   UNL     1     -10.591  14.653  67.164  1.00  0.00    -0.282 A  
HETATM    7  C   UNL     1      -9.454  13.865  67.323  1.00  0.00    -0.239 A  
HETATM    8  C   UNL     1      -9.439  12.566  66.817  1.00  0.00    -0.231 A  
HETATM    9  C   UNL     1     -10.552  12.040  66.142  1.00  0.00    -0.263 A  
BRANCH   9  10
HETATM   10  O   UNL     1     -10.349  10.743  65.731  1.00  0.00    -0.251 OA 
BRANCH  10  11
HETATM   11  C   UNL     1      -9.629   9.868  66.599  1.00  0.00    -0.184 C  
BRANCH  11  12
HETATM   12  C   UNL     1     -10.573   9.318  67.676  1.00  0.00    -0.261 C  
BRANCH  12  13
HETATM   13  N   UNL     1     -10.321   9.797  69.045  1.00  0.00    -0.199 NA 
HETATM   14  H   UNL     1      -9.713  10.616  69.021  1.00  0.00     0.000 HD 
BRANCH  13  15
HETATM   15  C   UNL     1     -11.524  10.084  69.850  1.00  0.00    -0.215 C  
HETATM   16  C   UNL     1     -12.047  11.458  69.402  1.00  0.00    -0.358 C  
BRANCH  15  17
HETATM   17  C   UNL     1     -11.270  10.052  71.384  1.00  0.00    -0.162 C  
BRANCH  17  18
HETATM   18  C   UNL     1     -11.097   8.639  71.895  1.00  0.00    -0.416 A  
HETATM   19  C   UNL     1      -9.859   8.236  72.404  1.00  0.00    -0.375 A  
HETATM   20  C   UNL     1      -9.609   6.882  72.664  1.00  0.00    -0.145 A  
HETATM   21  C   UNL     1     -10.627   5.929  72.527  1.00  0.00    -0.218 A  
HETATM   22  C   UNL     1     -12.119   7.695  71.771  1.00  0.00    -0.337 A  
HETATM   23  C   UNL     1     -11.891   6.356  72.106  1.00  0.00    -0.361 A  
BRANCH  20  24
HETATM   24  S   UNL     1      -7.964   6.330  73.048  1.00  0.00    -0.107 S  
HETATM   25  O   UNL     1      -7.233   7.449  73.594  1.00  0.00    -0.087 OA 
HETATM   26  N   UNL     1      -8.158   5.264  74.333  1.00  0.00    -0.102 N  
HETATM   27  O   UNL     1      -7.487   5.509  71.960  1.00  0.00    -0.090 OA 
HETATM   28  H1  UNL     1      -7.215   4.948  74.554  1.00  0.00     0.000 HD 
HETATM   29  H2  UNL     1      -9.028   4.993  74.792  1.00  0.00     0.000 HD 
ENDBRANCH  20  24
BRANCH  21  30
HETATM   30  O   UNL     1     -10.311   4.631  72.814  1.00  0.00    -0.175 OA 
HETATM   31  C   UNL     1     -11.348   3.778  73.282  1.00  0.00    -0.074 C  
ENDBRANCH  21  30
ENDBRANCH  17  18
ENDBRANCH  15  17
ENDBRANCH  13  15
ENDBRANCH  12  13
ENDBRANCH  11  12
ENDBRANCH  10  11
ENDBRANCH   9  10
ENDBRANCH   3   4
ENDBRANCH   2   3
TORSDOF 11
ENDMDL
MODEL      233
REMARK 921   NORMALIZED FREE ENERGY PREDICTED BY IDOCK:   -4.28 KCAL/MOL
REMARK 922        TOTAL FREE ENERGY PREDICTED BY IDOCK:   -8.27 KCAL/MOL
REMARK 923 INTER-LIGAND FREE ENERGY PREDICTED BY IDOCK:   -8.06 KCAL/MOL
REMARK 924 INTRA-LIGAND FREE ENERGY PREDICTED BY IDOCK:   -0.21 KCAL/MOL
REMARK 927      BINDING AFFINITY PREDICTED BY RF-SCORE:    0.00 PKD
ROOT
HETATM    1  C   UNL     1     -14.391   7.822  71.478  1.00  0.00    -0.574 C  
HETATM    2  C   UNL     1     -13.561   8.513  72.548  1.00  0.00    -0.213 C  
ENDROOT
BRANCH   2   3
HETATM    3  O   UNL     1     -12.563   9.249  71.851  1.00  0.00    -0.342 OA 
BRANCH   3   4
HETATM    4  C   UNL     1     -11.301   8.757  71.711  1.00  0.00    -0.339 A  
HETATM    5  C   UNL     1     -10.872   7.563  72.307  1.00  0.00    -0.302 A  
HETATM    6  C   UNL     1      -9.556   7.117  72.153  1.00  0.00    -0.160 A  
HETATM    7  C   UNL     1      -8.652   7.860  71.398  1.00  0.00    -0.141 A  
HETATM    8  C   UNL     1      -9.071   9.043  70.790  1.00  0.00    -0.297 A  
HETATM    9  C   UNL     1     -10.391   9.500  70.932  1.00  0.00    -0.302 A  
BRANCH   9  10
HETATM   10  O   UNL     1     -10.612  10.674  70.248  1.00  0.00    -0.147 OA 
BRANCH  10  11
HETATM   11  C   UNL     1     -11.114  10.591  68.915  1.00  0.00    -0.261 C  
BRANCH  11  12
HETATM   12  C   UNL     1     -12.027  11.791  68.631  1.00  0.00    -0.239 C  
BRANCH  12  13
HETATM   13  N   UNL     1     -11.444  12.845  67.785  1.00  0.00    -0.301 NA 
HETATM   14  H   UNL     1     -10.426  12.771  67.788  1.00  0.00     0.000 HD 
BRANCH  13  15
HETATM   15  C   UNL     1     -11.942  12.895  66.397  1.00  0.00    -0.395 C  
HETATM   16  C   UNL     1     -11.146  11.852  65.596  1.00  0.00    -0.362 C  
BRANCH  15  17
HETATM   17  C   UNL     1     -11.838  14.303  65.747  1.00  0.00    -0.377 C  
BRANCH  17  18
HETATM   18  C   UNL     1     -10.644  15.074  66.266  1.00  0.00    -0.309 A  
HETATM   19  C   UNL     1     -10.764  16.444  66.521  1.00  0.00    -0.163 A  
HETATM   20  C   UNL     1      -9.624  17.218  66.776  1.00  0.00    -0.272 A  
HETATM   21  C   UNL     1      -8.364  16.615  66.891  1.00  0.00    -0.210 A  
HETATM   22  C   UNL     1      -9.393  14.468  66.395  1.00  0.00    -0.300 A  
HETATM   23  C   UNL     1      -8.267  15.230  66.727  1.00  0.00    -0.215 A  
BRANCH  20  24
HETATM   24  S   UNL     1      -9.735  18.990  66.830  1.00  0.00    -0.343 S  
HETATM   25  O   UNL     1     -11.121  19.345  67.032  1.00  0.00    -0.420 OA 
HETATM   26  N   UNL     1      -8.958  19.425  68.256  1.00  0.00    -0.326 N  
HETATM   27  O   UNL     1      -8.908  19.537  65.780  1.00  0.00    -0.388 OA 
HETATM   28  H1  UNL     1      -9.023  20.442  68.288  1.00  0.00     0.000 HD 
HETATM   29  H2  UNL     1      -8.519  18.809  68.939  1.00  0.00     0.000 HD 
ENDBRANCH  20  24
BRANCH  21  30
HETATM   30  O   UNL     1      -7.302  17.434  67.157  1.00  0.00    -0.159 OA 
HETATM   31  C   UNL     1      -6.187  17.389  66.277  1.00  0.00    -0.206 C  
ENDBRANCH  21  30
ENDBRANCH  17  18
ENDBRANCH  15  17
ENDBRANCH  13  15
ENDBRANCH  12  13
ENDBRANCH  11  12
ENDBRANCH  10  11
ENDBRANCH   9  10
ENDBRANCH   3   4
ENDBRANCH   2   3
TORSDOF 11
ENDMDL
MODEL      234
REMARK 921   NORMALIZED FREE ENERGY PREDICTED BY IDOCK:   -4.27 KCAL/MOL
REMARK 922        TOTAL FREE ENERGY PREDICTED BY IDOCK:   -8.26 KCAL/MOL
REMARK 923 INTER-LIGAND FREE ENERGY PREDICTED BY IDOCK:   -6.98 KCAL/MOL
REMARK 924 INTRA-LIGAND FREE ENERGY PREDICTED BY IDOCK:   -1.27 KCAL/MOL
REMARK 927      BINDING AFFINITY PREDICTED BY RF-SCORE:    0.00 PKD
ROOT
HETATM    1  C   UNL     1      -9.042  13.488  67.411  1.00  0.00    -0.219 C  
HETATM    2  C   UNL     1     -10.265  14.221  66.881  1.00  0.00    -0.266 C  
ENDROOT
BRANCH   2   3
HETATM    3  O   UNL     1     -11.387  13.602  67.499  1.00  0.00    -0.283 OA 
BRANCH   3   4
HETATM    4  C   UNL     1     -11.776  13.955  68.755  1.00  0.00    -0.357 A  
HETATM    5  C   UNL     1     -11.875  15.287  69.184  1.00  0.00    -0.345 A  
HETATM    6  C   UNL     1     -12.253  15.593  70.494  1.00  0.00    -0.437 A  
HETATM    7  C   UNL     1     -12.540  14.569  71.394  1.00  0.00    -0.411 A  
HETATM    8  C   UNL     1     -12.457  13.242  70.976  1.00  0.00    -0.422 A  
HETATM    9  C   UNL     1     -12.084  12.919  69.662  1.00  0.00    -0.226 A  
BRANCH   9  10
HETATM   10  O   UNL     1     -12.074  11.561  69.440  1.00  0.00    -0.312 OA 
BRANCH  10  11
HETATM   11  C   UNL     1     -10.906  10.829  69.808  1.00  0.00    -0.226 C  
BRANCH  11  12
HETATM   12  C   UNL     1     -11.282   9.724  70.805  1.00  0.00    -0.348 C  
BRANCH  12  13
HETATM   13  N   UNL     1     -11.845   8.500  70.212  1.00  0.00    -0.458 NA 
HETATM   14  H   UNL     1     -11.603   8.449  69.222  1.00  0.00     0.000 HD 
BRANCH  13  15
HETATM   15  C   UNL     1     -11.480   7.240  70.887  1.00  0.00    -0.292 C  
HETATM   16  C   UNL     1     -11.911   7.376  72.356  1.00  0.00    -0.273 C  
BRANCH  15  17
HETATM   17  C   UNL     1      -9.970   6.886  70.774  1.00  0.00    -0.201 C  
BRANCH  17  18
HETATM   18  C   UNL     1      -9.609   6.402  69.388  1.00  0.00    -0.152 A  
HETATM   19  C   UNL     1      -8.776   7.182  68.578  1.00  0.00    -0.126 A  
HETATM   20  C   UNL     1      -8.618   6.872  67.221  1.00  0.00    -0.120 A  
HETATM   21  C   UNL     1      -9.197   5.716  66.681  1.00  0.00    -0.134 A  
HETATM   22  C   UNL     1     -10.175   5.241  68.857  1.00  0.00    -0.248 A  
HETATM   23  C   UNL     1      -9.953   4.890  67.521  1.00  0.00    -0.202 A  
BRANCH  20  24
HETATM   24  S   UNL     1      -7.787   8.004  66.132  1.00  0.00    -0.096 S  
HETATM   25  O   UNL     1      -6.647   7.323  65.566  1.00  0.00    -0.046 OA 
HETATM   26  N   UNL     1      -8.850   8.223  64.849  1.00  0.00    -0.409 N  
HETATM   27  O   UNL     1      -7.718   9.295  66.776  1.00  0.00    -0.093 OA 
HETATM   28  H1  UNL     1      -8.374   8.873  64.224  1.00  0.00     0.000 HD 
HETATM   29  H2  UNL     1      -9.770   7.800  64.722  1.00  0.00     0.000 HD 
ENDBRANCH  20  24
BRANCH  21  30
HETATM   30  O   UNL     1      -8.985   5.472  65.353  1.00  0.00    -0.157 OA 
HETATM   31  C   UNL     1      -8.673   4.142  64.958  1.00  0.00    -0.124 C  
ENDBRANCH  21  30
ENDBRANCH  17  18
ENDBRANCH  15  17
ENDBRANCH  13  15
ENDBRANCH  12  13
ENDBRANCH  11  12
ENDBRANCH  10  11
ENDBRANCH   9  10
ENDBRANCH   3   4
ENDBRANCH   2   3
TORSDOF 11
ENDMDL
MODEL      235
REMARK 921   NORMALIZED FREE ENERGY PREDICTED BY IDOCK:   -4.26 KCAL/MOL
REMARK 922        TOTAL FREE ENERGY PREDICTED BY IDOCK:   -8.25 KCAL/MOL
REMARK 923 INTER-LIGAND FREE ENERGY PREDICTED BY IDOCK:   -7.34 KCAL/MOL
REMARK 924 INTRA-LIGAND FREE ENERGY PREDICTED BY IDOCK:   -0.91 KCAL/MOL
REMARK 927      BINDING AFFINITY PREDICTED BY RF-SCORE:    0.00 PKD
ROOT
HETATM    1  C   UNL     1     -11.385   2.717  73.553  1.00  0.00    -0.285 C  
HETATM    2  C   UNL     1     -10.178   3.572  73.199  1.00  0.00    -0.155 C  
ENDROOT
BRANCH   2   3
HETATM    3  O   UNL     1     -10.650   4.914  73.166  1.00  0.00    -0.183 OA 
BRANCH   3   4
HETATM    4  C   UNL     1      -9.779   5.961  73.154  1.00  0.00    -0.158 A  
HETATM    5  C   UNL     1      -9.420   6.675  74.306  1.00  0.00    -0.269 A  
HETATM    6  C   UNL     1      -8.543   7.760  74.233  1.00  0.00    -0.268 A  
HETATM    7  C   UNL     1      -8.010   8.145  73.004  1.00  0.00    -0.220 A  
HETATM    8  C   UNL     1      -8.350   7.435  71.854  1.00  0.00    -0.115 A  
HETATM    9  C   UNL     1      -9.226   6.339  71.913  1.00  0.00    -0.146 A  
BRANCH   9  10
HETATM   10  O   UNL     1      -9.425   5.763  70.679  1.00  0.00    -0.159 OA 
BRANCH  10  11
HETATM   11  C   UNL     1      -9.873   6.598  69.612  1.00  0.00    -0.157 C  
BRANCH  11  12
HETATM   12  C   UNL     1     -11.161   7.321  70.028  1.00  0.00    -0.209 C  
BRANCH  12  13
HETATM   13  N   UNL     1     -11.312   8.693  69.517  1.00  0.00    -0.421 NA 
HETATM   14  H   UNL     1     -12.210   8.792  69.043  1.00  0.00     0.000 HD 
BRANCH  13  15
HETATM   15  C   UNL     1     -11.147   9.766  70.516  1.00  0.00    -0.321 C  
HETATM   16  C   UNL     1     -11.439   9.148  71.892  1.00  0.00    -0.423 C  
BRANCH  15  17
HETATM   17  C   UNL     1     -12.047  11.007  70.254  1.00  0.00    -0.448 C  
BRANCH  17  18
HETATM   18  C   UNL     1     -11.546  11.827  69.086  1.00  0.00    -0.372 A  
HETATM   19  C   UNL     1     -10.928  13.059  69.322  1.00  0.00    -0.122 A  
HETATM   20  C   UNL     1     -10.670  13.935  68.259  1.00  0.00    -0.251 A  
HETATM   21  C   UNL     1     -10.919  13.544  66.936  1.00  0.00    -0.288 A  
HETATM   22  C   UNL     1     -11.782  11.428  67.769  1.00  0.00    -0.279 A  
HETATM   23  C   UNL     1     -11.451  12.272  66.703  1.00  0.00    -0.431 A  
BRANCH  20  24
HETATM   24  S   UNL     1     -10.140  15.601  68.576  1.00  0.00    -0.216 S  
HETATM   25  O   UNL     1      -9.627  15.658  69.925  1.00  0.00    -0.262 OA 
HETATM   26  N   UNL     1      -8.799  15.821  67.587  1.00  0.00    -0.174 N  
HETATM   27  O   UNL     1     -11.135  16.508  68.053  1.00  0.00    -0.345 OA 
HETATM   28  H1  UNL     1      -8.495  16.777  67.769  1.00  0.00     0.000 HD 
HETATM   29  H2  UNL     1      -8.381  15.147  66.946  1.00  0.00     0.000 HD 
ENDBRANCH  20  24
BRANCH  21  30
HETATM   30  O   UNL     1     -10.625  14.447  65.952  1.00  0.00    -0.289 OA 
HETATM   31  C   UNL     1     -11.286  14.311  64.701  1.00  0.00    -0.373 C  
ENDBRANCH  21  30
ENDBRANCH  17  18
ENDBRANCH  15  17
ENDBRANCH  13  15
ENDBRANCH  12  13
ENDBRANCH  11  12
ENDBRANCH  10  11
ENDBRANCH   9  10
ENDBRANCH   3   4
ENDBRANCH   2   3
TORSDOF 11
ENDMDL
MODEL      236
REMARK 921   NORMALIZED FREE ENERGY PREDICTED BY IDOCK:   -4.25 KCAL/MOL
REMARK 922        TOTAL FREE ENERGY PREDICTED BY IDOCK:   -8.23 KCAL/MOL
REMARK 923 INTER-LIGAND FREE ENERGY PREDICTED BY IDOCK:   -7.76 KCAL/MOL
REMARK 924 INTRA-LIGAND FREE ENERGY PREDICTED BY IDOCK:   -0.47 KCAL/MOL
REMARK 927      BINDING AFFINITY PREDICTED BY RF-SCORE:    0.00 PKD
ROOT
HETATM    1  C   UNL     1      -9.883   6.535  74.564  1.00  0.00    -0.355 C  
HETATM    2  C   UNL     1     -10.347   5.103  74.350  1.00  0.00    -0.279 C  
ENDROOT
BRANCH   2   3
HETATM    3  O   UNL     1     -11.294   5.157  73.289  1.00  0.00    -0.321 OA 
BRANCH   3   4
HETATM    4  C   UNL     1     -10.889   5.135  71.989  1.00  0.00    -0.125 A  
HETATM    5  C   UNL     1      -9.901   4.266  71.506  1.00  0.00    -0.260 A  
HETATM    6  C   UNL     1      -9.504   4.304  70.167  1.00  0.00    -0.252 A  
HETATM    7  C   UNL     1     -10.092   5.214  69.291  1.00  0.00    -0.283 A  
HETATM    8  C   UNL     1     -11.085   6.075  69.757  1.00  0.00    -0.476 A  
HETATM    9  C   UNL     1     -11.498   6.044  71.098  1.00  0.00    -0.176 A  
BRANCH   9  10
HETATM   10  O   UNL     1     -12.494   6.957  71.359  1.00  0.00    -0.357 OA 
BRANCH  10  11
HETATM   11  C   UNL     1     -12.128   8.195  71.967  1.00  0.00    -0.340 C  
BRANCH  11  12
HETATM   12  C   UNL     1     -12.043   9.291  70.896  1.00  0.00    -0.233 C  
BRANCH  12  13
HETATM   13  N   UNL     1     -12.344  10.654  71.360  1.00  0.00    -0.364 NA 
HETATM   14  H   UNL     1     -11.992  10.786  72.309  1.00  0.00     0.000 HD 
BRANCH  13  15
HETATM   15  C   UNL     1     -11.863  11.743  70.488  1.00  0.00    -0.192 C  
HETATM   16  C   UNL     1     -12.601  13.022  70.916  1.00  0.00    -0.364 C  
BRANCH  15  17
HETATM   17  C   UNL     1     -12.061  11.462  68.971  1.00  0.00    -0.316 C  
BRANCH  17  18
HETATM   18  C   UNL     1     -11.651  12.645  68.122  1.00  0.00    -0.386 A  
HETATM   19  C   UNL     1     -10.564  13.433  68.516  1.00  0.00    -0.264 A  
HETATM   20  C   UNL     1     -10.313  14.657  67.881  1.00  0.00    -0.237 A  
HETATM   21  C   UNL     1     -11.073  15.055  66.773  1.00  0.00    -0.326 A  
HETATM   22  C   UNL     1     -12.400  13.030  67.009  1.00  0.00    -0.037 A  
HETATM   23  C   UNL     1     -12.099  14.215  66.327  1.00  0.00    -0.463 A  
BRANCH  20  24
HETATM   24  S   UNL     1      -9.112  15.784  68.547  1.00  0.00    -0.204 S  
HETATM   25  O   UNL     1      -8.460  15.136  69.661  1.00  0.00    -0.204 OA 
HETATM   26  N   UNL     1      -7.932  15.906  67.357  1.00  0.00    -0.148 N  
HETATM   27  O   UNL     1      -9.703  17.101  68.614  1.00  0.00    -0.270 OA 
HETATM   28  H1  UNL     1      -7.242  16.553  67.739  1.00  0.00     0.000 HD 
HETATM   29  H2  UNL     1      -7.909  15.437  66.452  1.00  0.00     0.000 HD 
ENDBRANCH  20  24
BRANCH  21  30
HETATM   30  O   UNL     1     -10.757  16.254  66.197  1.00  0.00    -0.285 OA 
HETATM   31  C   UNL     1     -11.125  16.461  64.839  1.00  0.00    -0.239 C  
ENDBRANCH  21  30
ENDBRANCH  17  18
ENDBRANCH  15  17
ENDBRANCH  13  15
ENDBRANCH  12  13
ENDBRANCH  11  12
ENDBRANCH  10  11
ENDBRANCH   9  10
ENDBRANCH   3   4
ENDBRANCH   2   3
TORSDOF 11
ENDMDL
MODEL      237
REMARK 921   NORMALIZED FREE ENERGY PREDICTED BY IDOCK:   -4.25 KCAL/MOL
REMARK 922        TOTAL FREE ENERGY PREDICTED BY IDOCK:   -8.22 KCAL/MOL
REMARK 923 INTER-LIGAND FREE ENERGY PREDICTED BY IDOCK:   -7.14 KCAL/MOL
REMARK 924 INTRA-LIGAND FREE ENERGY PREDICTED BY IDOCK:   -1.08 KCAL/MOL
REMARK 927      BINDING AFFINITY PREDICTED BY RF-SCORE:    0.00 PKD
ROOT
HETATM    1  C   UNL     1     -12.542  11.988  63.443  1.00  0.00    -0.592 C  
HETATM    2  C   UNL     1     -12.122  13.447  63.517  1.00  0.00    -0.432 C  
ENDROOT
BRANCH   2   3
HETATM    3  O   UNL     1     -10.947  13.473  64.317  1.00  0.00    -0.383 OA 
BRANCH   3   4
HETATM    4  C   UNL     1     -11.027  13.497  65.677  1.00  0.00    -0.289 A  
HETATM    5  C   UNL     1     -11.838  14.396  66.383  1.00  0.00    -0.402 A  
HETATM    6  C   UNL     1     -11.862  14.396  67.780  1.00  0.00    -0.402 A  
HETATM    7  C   UNL     1     -11.074  13.492  68.491  1.00  0.00    -0.300 A  
HETATM    8  C   UNL     1     -10.274  12.585  67.799  1.00  0.00    -0.217 A  
HETATM    9  C   UNL     1     -10.244  12.570  66.396  1.00  0.00    -0.244 A  
BRANCH   9  10
HETATM   10  O   UNL     1      -9.406  11.596  65.902  1.00  0.00    -0.225 OA 
BRANCH  10  11
HETATM   11  C   UNL     1      -9.988  10.370  65.462  1.00  0.00    -0.282 C  
BRANCH  11  12
HETATM   12  C   UNL     1      -9.493   9.217  66.346  1.00  0.00    -0.218 C  
BRANCH  12  13
HETATM   13  N   UNL     1      -9.804   7.865  65.857  1.00  0.00    -0.384 NA 
HETATM   14  H   UNL     1      -9.405   7.729  64.927  1.00  0.00     0.000 HD 
BRANCH  13  15
HETATM   15  C   UNL     1      -9.399   6.758  66.745  1.00  0.00    -0.160 C  
HETATM   16  C   UNL     1      -8.715   5.701  65.864  1.00  0.00    -0.147 C  
BRANCH  15  17
HETATM   17  C   UNL     1     -10.578   6.141  67.551  1.00  0.00    -0.344 C  
BRANCH  17  18
HETATM   18  C   UNL     1     -10.350   6.239  69.043  1.00  0.00    -0.251 A  
HETATM   19  C   UNL     1      -9.050   6.405  69.533  1.00  0.00    -0.138 A  
HETATM   20  C   UNL     1      -8.789   6.265  70.902  1.00  0.00    -0.136 A  
HETATM   21  C   UNL     1      -9.836   6.071  71.813  1.00  0.00    -0.165 A  
HETATM   22  C   UNL     1     -11.397   6.060  69.947  1.00  0.00    -0.355 A  
HETATM   23  C   UNL     1     -11.145   5.998  71.322  1.00  0.00    -0.337 A  
BRANCH  20  24
HETATM   24  S   UNL     1      -7.115   6.205  71.495  1.00  0.00    -0.080 S  
HETATM   25  O   UNL     1      -6.923   7.309  72.406  1.00  0.00    -0.063 OA 
HETATM   26  N   UNL     1      -7.049   4.827  72.456  1.00  0.00    -0.077 N  
HETATM   27  O   UNL     1      -6.242   5.918  70.382  1.00  0.00    -0.029 OA 
HETATM   28  H1  UNL     1      -6.089   4.793  72.797  1.00  0.00     0.000 HD 
HETATM   29  H2  UNL     1      -7.803   4.170  72.655  1.00  0.00     0.000 HD 
ENDBRANCH  20  24
BRANCH  21  30
HETATM   30  O   UNL     1      -9.504   5.960  73.134  1.00  0.00    -0.143 OA 
HETATM   31  C   UNL     1     -10.128   6.842  74.057  1.00  0.00    -0.348 C  
ENDBRANCH  21  30
ENDBRANCH  17  18
ENDBRANCH  15  17
ENDBRANCH  13  15
ENDBRANCH  12  13
ENDBRANCH  11  12
ENDBRANCH  10  11
ENDBRANCH   9  10
ENDBRANCH   3   4
ENDBRANCH   2   3
TORSDOF 11
ENDMDL
MODEL      238
REMARK 921   NORMALIZED FREE ENERGY PREDICTED BY IDOCK:   -4.24 KCAL/MOL
REMARK 922        TOTAL FREE ENERGY PREDICTED BY IDOCK:   -8.21 KCAL/MOL
REMARK 923 INTER-LIGAND FREE ENERGY PREDICTED BY IDOCK:   -7.32 KCAL/MOL
REMARK 924 INTRA-LIGAND FREE ENERGY PREDICTED BY IDOCK:   -0.89 KCAL/MOL
REMARK 927      BINDING AFFINITY PREDICTED BY RF-SCORE:    0.00 PKD
ROOT
HETATM    1  C   UNL     1     -13.189  12.688  72.194  1.00  0.00    -0.527 C  
HETATM    2  C   UNL     1     -13.238  11.432  71.337  1.00  0.00    -0.147 C  
ENDROOT
BRANCH   2   3
HETATM    3  O   UNL     1     -12.798  10.372  72.177  1.00  0.00    -0.392 OA 
BRANCH   3   4
HETATM    4  C   UNL     1     -12.461   9.160  71.655  1.00  0.00    -0.359 A  
HETATM    5  C   UNL     1     -13.280   8.026  71.754  1.00  0.00    -0.367 A  
HETATM    6  C   UNL     1     -12.874   6.799  71.224  1.00  0.00    -0.260 A  
HETATM    7  C   UNL     1     -11.640   6.690  70.585  1.00  0.00    -0.439 A  
HETATM    8  C   UNL     1     -10.823   7.813  70.469  1.00  0.00    -0.245 A  
HETATM    9  C   UNL     1     -11.221   9.053  70.992  1.00  0.00    -0.295 A  
BRANCH   9  10
HETATM   10  O   UNL     1     -10.287  10.039  70.767  1.00  0.00    -0.223 OA 
BRANCH  10  11
HETATM   11  C   UNL     1      -9.673  10.101  69.480  1.00  0.00    -0.229 C  
BRANCH  11  12
HETATM   12  C   UNL     1     -10.389  11.147  68.616  1.00  0.00    -0.203 C  
BRANCH  12  13
HETATM   13  N   UNL     1      -9.510  12.048  67.853  1.00  0.00    -0.190 NA 
HETATM   14  H   UNL     1      -9.516  11.789  66.866  1.00  0.00     0.000 HD 
BRANCH  13  15
HETATM   15  C   UNL     1      -9.795  13.489  67.998  1.00  0.00    -0.238 C  
HETATM   16  C   UNL     1     -10.974  13.618  68.976  1.00  0.00    -0.271 C  
BRANCH  15  17
HETATM   17  C   UNL     1     -10.100  14.203  66.651  1.00  0.00    -0.275 C  
BRANCH  17  18
HETATM   18  C   UNL     1      -9.532  15.605  66.618  1.00  0.00    -0.282 A  
HETATM   19  C   UNL     1      -8.200  15.819  66.990  1.00  0.00    -0.262 A  
HETATM   20  C   UNL     1      -7.724  17.121  67.190  1.00  0.00    -0.177 A  
HETATM   21  C   UNL     1      -8.536  18.229  66.912  1.00  0.00    -0.258 A  
HETATM   22  C   UNL     1     -10.339  16.705  66.326  1.00  0.00    -0.323 A  
HETATM   23  C   UNL     1      -9.837  18.006  66.451  1.00  0.00    -0.340 A  
BRANCH  20  24
HETATM   24  S   UNL     1      -6.126  17.391  67.920  1.00  0.00    -0.144 S  
HETATM   25  O   UNL     1      -6.324  17.794  69.292  1.00  0.00    -0.228 OA 
HETATM   26  N   UNL     1      -5.431  15.863  68.007  1.00  0.00    -0.115 N  
HETATM   27  O   UNL     1      -5.305  18.114  66.977  1.00  0.00    -0.130 OA 
HETATM   28  H1  UNL     1      -4.514  16.017  68.426  1.00  0.00     0.000 HD 
HETATM   29  H2  UNL     1      -5.836  14.976  67.707  1.00  0.00     0.000 HD 
ENDBRANCH  20  24
BRANCH  21  30
HETATM   30  O   UNL     1      -7.995  19.468  67.116  1.00  0.00    -0.257 OA 
HETATM   31  C   UNL     1      -7.884  20.341  66.000  1.00  0.00    -0.141 C  
ENDBRANCH  21  30
ENDBRANCH  17  18
ENDBRANCH  15  17
ENDBRANCH  13  15
ENDBRANCH  12  13
ENDBRANCH  11  12
ENDBRANCH  10  11
ENDBRANCH   9  10
ENDBRANCH   3   4
ENDBRANCH   2   3
TORSDOF 11
ENDMDL
MODEL      239
REMARK 921   NORMALIZED FREE ENERGY PREDICTED BY IDOCK:   -4.24 KCAL/MOL
REMARK 922        TOTAL FREE ENERGY PREDICTED BY IDOCK:   -8.21 KCAL/MOL
REMARK 923 INTER-LIGAND FREE ENERGY PREDICTED BY IDOCK:   -8.06 KCAL/MOL
REMARK 924 INTRA-LIGAND FREE ENERGY PREDICTED BY IDOCK:   -0.14 KCAL/MOL
REMARK 927      BINDING AFFINITY PREDICTED BY RF-SCORE:    0.00 PKD
ROOT
HETATM    1  C   UNL     1      -9.526  14.491  68.775  1.00  0.00    -0.183 C  
HETATM    2  C   UNL     1     -10.985  14.651  68.379  1.00  0.00    -0.251 C  
ENDROOT
BRANCH   2   3
HETATM    3  O   UNL     1     -11.688  13.618  69.060  1.00  0.00    -0.286 OA 
BRANCH   3   4
HETATM    4  C   UNL     1     -12.323  13.864  70.238  1.00  0.00    -0.345 A  
HETATM    5  C   UNL     1     -12.579  15.156  70.719  1.00  0.00    -0.452 A  
HETATM    6  C   UNL     1     -13.211  15.353  71.949  1.00  0.00    -0.534 A  
HETATM    7  C   UNL     1     -13.599  14.256  72.716  1.00  0.00    -0.538 A  
HETATM    8  C   UNL     1     -13.362  12.966  72.244  1.00  0.00    -0.597 A  
HETATM    9  C   UNL     1     -12.733  12.754  71.007  1.00  0.00    -0.243 A  
BRANCH   9  10
HETATM   10  O   UNL     1     -12.602  11.417  70.711  1.00  0.00    -0.343 OA 
BRANCH  10  11
HETATM   11  C   UNL     1     -12.810  10.472  71.760  1.00  0.00    -0.454 C  
BRANCH  11  12
HETATM   12  C   UNL     1     -11.810   9.317  71.622  1.00  0.00    -0.383 C  
BRANCH  12  13
HETATM   13  N   UNL     1     -12.402   7.991  71.384  1.00  0.00    -0.309 NA 
HETATM   14  H   UNL     1     -13.146   8.060  70.688  1.00  0.00     0.000 HD 
BRANCH  13  15
HETATM   15  C   UNL     1     -11.452   6.929  71.002  1.00  0.00    -0.314 C  
HETATM   16  C   UNL     1     -11.532   5.842  72.085  1.00  0.00    -0.333 C  
BRANCH  15  17
HETATM   17  C   UNL     1      -9.992   7.434  70.819  1.00  0.00    -0.182 C  
BRANCH  17  18
HETATM   18  C   UNL     1      -9.556   7.379  69.372  1.00  0.00    -0.155 A  
HETATM   19  C   UNL     1      -9.993   6.327  68.559  1.00  0.00    -0.163 A  
HETATM   20  C   UNL     1      -9.422   6.128  67.295  1.00  0.00    -0.114 A  
HETATM   21  C   UNL     1      -8.491   7.040  66.780  1.00  0.00    -0.118 A  
HETATM   22  C   UNL     1      -8.640   8.298  68.857  1.00  0.00    -0.132 A  
HETATM   23  C   UNL     1      -8.129   8.141  67.563  1.00  0.00    -0.123 A  
BRANCH  20  24
HETATM   24  S   UNL     1      -9.772   4.648  66.375  1.00  0.00    -0.224 S  
HETATM   25  O   UNL     1     -10.021   3.584  67.319  1.00  0.00     0.017 OA 
HETATM   26  N   UNL     1     -11.256   4.940  65.641  1.00  0.00    -0.929 N  
HETATM   27  O   UNL     1      -8.834   4.553  65.281  1.00  0.00    -0.129 OA 
HETATM   28  H1  UNL     1     -11.457   4.091  65.114  1.00  0.00     0.000 HD 
HETATM   29  H2  UNL     1     -11.830   5.781  65.709  1.00  0.00     0.000 HD 
ENDBRANCH  20  24
BRANCH  21  30
HETATM   30  O   UNL     1      -7.991   6.786  65.534  1.00  0.00    -0.105 OA 
HETATM   31  C   UNL     1      -7.946   7.857  64.600  1.00  0.00    -0.143 C  
ENDBRANCH  21  30
ENDBRANCH  17  18
ENDBRANCH  15  17
ENDBRANCH  13  15
ENDBRANCH  12  13
ENDBRANCH  11  12
ENDBRANCH  10  11
ENDBRANCH   9  10
ENDBRANCH   3   4
ENDBRANCH   2   3
TORSDOF 11
ENDMDL
MODEL      240
REMARK 921   NORMALIZED FREE ENERGY PREDICTED BY IDOCK:   -4.23 KCAL/MOL
REMARK 922        TOTAL FREE ENERGY PREDICTED BY IDOCK:   -8.20 KCAL/MOL
REMARK 923 INTER-LIGAND FREE ENERGY PREDICTED BY IDOCK:   -7.11 KCAL/MOL
REMARK 924 INTRA-LIGAND FREE ENERGY PREDICTED BY IDOCK:   -1.08 KCAL/MOL
REMARK 927      BINDING AFFINITY PREDICTED BY RF-SCORE:    0.00 PKD
ROOT
HETATM    1  C   UNL     1      -9.067  10.381  62.421  1.00  0.00    -0.313 C  
HETATM    2  C   UNL     1      -7.938   9.645  63.126  1.00  0.00    -0.140 C  
ENDROOT
BRANCH   2   3
HETATM    3  O   UNL     1      -8.066   9.965  64.505  1.00  0.00    -0.135 OA 
BRANCH   3   4
HETATM    4  C   UNL     1      -8.778   9.164  65.346  1.00  0.00    -0.186 A  
HETATM    5  C   UNL     1      -8.480   7.810  65.553  1.00  0.00    -0.146 A  
HETATM    6  C   UNL     1      -9.260   7.025  66.407  1.00  0.00    -0.186 A  
HETATM    7  C   UNL     1     -10.350   7.588  67.068  1.00  0.00    -0.395 A  
HETATM    8  C   UNL     1     -10.648   8.936  66.881  1.00  0.00    -0.254 A  
HETATM    9  C   UNL     1      -9.870   9.738  66.030  1.00  0.00    -0.274 A  
BRANCH   9  10
HETATM   10  O   UNL     1     -10.314  11.039  65.988  1.00  0.00    -0.244 OA 
BRANCH  10  11
HETATM   11  C   UNL     1     -11.313  11.439  66.925  1.00  0.00    -0.210 C  
BRANCH  11  12
HETATM   12  C   UNL     1     -10.726  12.469  67.899  1.00  0.00    -0.217 C  
BRANCH  12  13
HETATM   13  N   UNL     1     -11.678  13.047  68.861  1.00  0.00    -0.309 NA 
HETATM   14  H   UNL     1     -11.695  12.488  69.714  1.00  0.00     0.000 HD 
BRANCH  13  15
HETATM   15  C   UNL     1     -11.464  14.469  69.192  1.00  0.00    -0.294 C  
HETATM   16  C   UNL     1     -12.475  14.832  70.291  1.00  0.00    -0.393 C  
BRANCH  15  17
HETATM   17  C   UNL     1     -11.595  15.421  67.969  1.00  0.00    -0.303 C  
BRANCH  17  18
HETATM   18  C   UNL     1     -10.419  16.367  67.866  1.00  0.00    -0.307 A  
HETATM   19  C   UNL     1      -9.162  15.869  67.507  1.00  0.00    -0.210 A  
HETATM   20  C   UNL     1      -8.022  16.675  67.630  1.00  0.00    -0.174 A  
HETATM   21  C   UNL     1      -8.136  18.020  68.005  1.00  0.00    -0.257 A  
HETATM   22  C   UNL     1     -10.539  17.711  68.225  1.00  0.00    -0.342 A  
HETATM   23  C   UNL     1      -9.409  18.535  68.272  1.00  0.00    -0.350 A  
BRANCH  20  24
HETATM   24  S   UNL     1      -6.402  15.972  67.438  1.00  0.00    -0.148 S  
HETATM   25  O   UNL     1      -5.676  16.777  66.484  1.00  0.00    -0.328 OA 
HETATM   26  N   UNL     1      -5.639  16.242  68.912  1.00  0.00    -0.116 N  
HETATM   27  O   UNL     1      -6.529  14.536  67.349  1.00  0.00    -0.309 OA 
HETATM   28  H1  UNL     1      -4.709  15.839  68.801  1.00  0.00     0.000 HD 
HETATM   29  H2  UNL     1      -6.021  16.707  69.735  1.00  0.00     0.000 HD 
ENDBRANCH  20  24
BRANCH  21  30
HETATM   30  O   UNL     1      -6.981  18.746  68.087  1.00  0.00    -0.233 OA 
HETATM   31  C   UNL     1      -6.783  19.559  69.236  1.00  0.00    -0.341 C  
ENDBRANCH  21  30
ENDBRANCH  17  18
ENDBRANCH  15  17
ENDBRANCH  13  15
ENDBRANCH  12  13
ENDBRANCH  11  12
ENDBRANCH  10  11
ENDBRANCH   9  10
ENDBRANCH   3   4
ENDBRANCH   2   3
TORSDOF 11
ENDMDL
MODEL      241
REMARK 921   NORMALIZED FREE ENERGY PREDICTED BY IDOCK:   -4.23 KCAL/MOL
REMARK 922        TOTAL FREE ENERGY PREDICTED BY IDOCK:   -8.19 KCAL/MOL
REMARK 923 INTER-LIGAND FREE ENERGY PREDICTED BY IDOCK:   -7.06 KCAL/MOL
REMARK 924 INTRA-LIGAND FREE ENERGY PREDICTED BY IDOCK:   -1.13 KCAL/MOL
REMARK 927      BINDING AFFINITY PREDICTED BY RF-SCORE:    0.00 PKD
ROOT
HETATM    1  C   UNL     1     -10.274   2.780  72.857  1.00  0.00    -0.230 C  
HETATM    2  C   UNL     1      -9.404   3.774  73.612  1.00  0.00    -0.099 C  
ENDROOT
BRANCH   2   3
HETATM    3  O   UNL     1     -10.015   5.045  73.426  1.00  0.00    -0.150 OA 
BRANCH   3   4
HETATM    4  C   UNL     1      -9.271   6.184  73.417  1.00  0.00    -0.131 A  
HETATM    5  C   UNL     1      -9.030   6.954  74.564  1.00  0.00    -0.222 A  
HETATM    6  C   UNL     1      -8.280   8.132  74.493  1.00  0.00    -0.210 A  
HETATM    7  C   UNL     1      -7.759   8.554  73.272  1.00  0.00    -0.049 A  
HETATM    8  C   UNL     1      -7.981   7.791  72.127  1.00  0.00    -0.130 A  
HETATM    9  C   UNL     1      -8.728   6.603  72.184  1.00  0.00    -0.130 A  
BRANCH   9  10
HETATM   10  O   UNL     1      -8.824   5.987  70.957  1.00  0.00    -0.137 OA 
BRANCH  10  11
HETATM   11  C   UNL     1      -9.547   6.656  69.925  1.00  0.00    -0.155 C  
BRANCH  11  12
HETATM   12  C   UNL     1     -11.020   6.794  70.331  1.00  0.00    -0.283 C  
BRANCH  12  13
HETATM   13  N   UNL     1     -11.635   8.102  70.053  1.00  0.00    -0.456 NA 
HETATM   14  H   UNL     1     -12.523   7.974  69.568  1.00  0.00     0.000 HD 
BRANCH  13  15
HETATM   15  C   UNL     1     -11.821   8.979  71.225  1.00  0.00    -0.312 C  
HETATM   16  C   UNL     1     -11.947   8.067  72.455  1.00  0.00    -0.405 C  
BRANCH  15  17
HETATM   17  C   UNL     1     -13.045   9.931  71.103  1.00  0.00    -0.453 C  
BRANCH  17  18
HETATM   18  C   UNL     1     -12.641  11.305  70.614  1.00  0.00    -0.377 A  
HETATM   19  C   UNL     1     -11.933  11.430  69.414  1.00  0.00    -0.407 A  
HETATM   20  C   UNL     1     -11.351  12.655  69.062  1.00  0.00    -0.292 A  
HETATM   21  C   UNL     1     -11.563  13.797  69.845  1.00  0.00    -0.228 A  
HETATM   22  C   UNL     1     -12.868  12.444  71.389  1.00  0.00    -0.360 A  
HETATM   23  C   UNL     1     -12.351  13.683  70.995  1.00  0.00    -0.436 A  
BRANCH  20  24
HETATM   24  S   UNL     1     -10.229  12.754  67.688  1.00  0.00    -0.222 S  
HETATM   25  O   UNL     1      -8.893  12.910  68.211  1.00  0.00    -0.186 OA 
HETATM   26  N   UNL     1     -10.255  11.220  67.001  1.00  0.00    -0.209 N  
HETATM   27  O   UNL     1     -10.807  13.615  66.682  1.00  0.00    -0.281 OA 
HETATM   28  H1  UNL     1      -9.611  11.276  66.213  1.00  0.00     0.000 HD 
HETATM   29  H2  UNL     1     -10.794  10.410  67.306  1.00  0.00     0.000 HD 
ENDBRANCH  20  24
BRANCH  21  30
HETATM   30  O   UNL     1     -10.976  14.959  69.428  1.00  0.00    -0.252 OA 
HETATM   31  C   UNL     1     -11.816  16.075  69.161  1.00  0.00    -0.261 C  
ENDBRANCH  21  30
ENDBRANCH  17  18
ENDBRANCH  15  17
ENDBRANCH  13  15
ENDBRANCH  12  13
ENDBRANCH  11  12
ENDBRANCH  10  11
ENDBRANCH   9  10
ENDBRANCH   3   4
ENDBRANCH   2   3
TORSDOF 11
ENDMDL
MODEL      242
REMARK 921   NORMALIZED FREE ENERGY PREDICTED BY IDOCK:   -4.22 KCAL/MOL
REMARK 922        TOTAL FREE ENERGY PREDICTED BY IDOCK:   -8.18 KCAL/MOL
REMARK 923 INTER-LIGAND FREE ENERGY PREDICTED BY IDOCK:   -7.29 KCAL/MOL
REMARK 924 INTRA-LIGAND FREE ENERGY PREDICTED BY IDOCK:   -0.89 KCAL/MOL
REMARK 927      BINDING AFFINITY PREDICTED BY RF-SCORE:    0.00 PKD
ROOT
HETATM    1  C   UNL     1      -8.178   6.903  73.745  1.00  0.00    -0.136 C  
HETATM    2  C   UNL     1      -8.914   7.032  72.420  1.00  0.00    -0.128 C  
ENDROOT
BRANCH   2   3
HETATM    3  O   UNL     1      -9.165   8.422  72.249  1.00  0.00    -0.213 OA 
BRANCH   3   4
HETATM    4  C   UNL     1     -10.385   8.867  71.840  1.00  0.00    -0.337 A  
HETATM    5  C   UNL     1     -11.576   8.584  72.523  1.00  0.00    -0.376 A  
HETATM    6  C   UNL     1     -12.805   9.043  72.044  1.00  0.00    -0.468 A  
HETATM    7  C   UNL     1     -12.860   9.796  70.873  1.00  0.00    -0.314 A  
HETATM    8  C   UNL     1     -11.681  10.096  70.192  1.00  0.00    -0.330 A  
HETATM    9  C   UNL     1     -10.438   9.645  70.664  1.00  0.00    -0.312 A  
BRANCH   9  10
HETATM   10  O   UNL     1      -9.396  10.054  69.864  1.00  0.00    -0.220 OA 
BRANCH  10  11
HETATM   11  C   UNL     1      -8.970   9.181  68.819  1.00  0.00    -0.136 C  
BRANCH  11  12
HETATM   12  C   UNL     1      -8.734   9.989  67.536  1.00  0.00    -0.125 C  
BRANCH  12  13
HETATM   13  N   UNL     1      -9.574  11.187  67.377  1.00  0.00    -0.168 NA 
HETATM   14  H   UNL     1     -10.278  11.220  68.115  1.00  0.00     0.000 HD 
BRANCH  13  15
HETATM   15  C   UNL     1      -8.847  12.470  67.314  1.00  0.00    -0.195 C  
HETATM   16  C   UNL     1      -7.416  12.201  67.805  1.00  0.00    -0.122 C  
BRANCH  15  17
HETATM   17  C   UNL     1      -9.519  13.608  68.135  1.00  0.00    -0.217 C  
BRANCH  17  18
HETATM   18  C   UNL     1      -9.425  14.941  67.426  1.00  0.00    -0.206 A  
HETATM   19  C   UNL     1      -8.476  15.880  67.844  1.00  0.00    -0.164 A  
HETATM   20  C   UNL     1      -8.525  17.195  67.363  1.00  0.00    -0.191 A  
HETATM   21  C   UNL     1      -9.449  17.560  66.375  1.00  0.00    -0.259 A  
HETATM   22  C   UNL     1     -10.338  15.296  66.431  1.00  0.00    -0.296 A  
HETATM   23  C   UNL     1     -10.335  16.589  65.895  1.00  0.00    -0.365 A  
BRANCH  20  24
HETATM   24  S   UNL     1      -7.502  18.454  68.088  1.00  0.00    -0.276 S  
HETATM   25  O   UNL     1      -8.328  19.251  68.964  1.00  0.00    -0.338 OA 
HETATM   26  N   UNL     1      -6.455  17.623  69.107  1.00  0.00    -0.228 N  
HETATM   27  O   UNL     1      -6.652  19.006  67.059  1.00  0.00    -0.195 OA 
HETATM   28  H1  UNL     1      -5.869  18.346  69.523  1.00  0.00     0.000 HD 
HETATM   29  H2  UNL     1      -6.416  16.618  69.273  1.00  0.00     0.000 HD 
ENDBRANCH  20  24
BRANCH  21  30
HETATM   30  O   UNL     1      -9.425  18.857  65.945  1.00  0.00    -0.458 OA 
HETATM   31  C   UNL     1     -10.527  19.692  66.276  1.00  0.00    -0.519 C  
ENDBRANCH  21  30
ENDBRANCH  17  18
ENDBRANCH  15  17
ENDBRANCH  13  15
ENDBRANCH  12  13
ENDBRANCH  11  12
ENDBRANCH  10  11
ENDBRANCH   9  10
ENDBRANCH   3   4
ENDBRANCH   2   3
TORSDOF 11
ENDMDL
MODEL      243
REMARK 921   NORMALIZED FREE ENERGY PREDICTED BY IDOCK:   -4.22 KCAL/MOL
REMARK 922        TOTAL FREE ENERGY PREDICTED BY IDOCK:   -8.18 KCAL/MOL
REMARK 923 INTER-LIGAND FREE ENERGY PREDICTED BY IDOCK:   -6.85 KCAL/MOL
REMARK 924 INTRA-LIGAND FREE ENERGY PREDICTED BY IDOCK:   -1.33 KCAL/MOL
REMARK 927      BINDING AFFINITY PREDICTED BY RF-SCORE:    0.00 PKD
ROOT
HETATM    1  C   UNL     1     -10.937  10.204  69.308  1.00  0.00    -0.279 C  
HETATM    2  C   UNL     1     -11.082  10.803  67.918  1.00  0.00    -0.308 C  
ENDROOT
BRANCH   2   3
HETATM    3  O   UNL     1      -9.760  11.087  67.478  1.00  0.00    -0.170 OA 
BRANCH   3   4
HETATM    4  C   UNL     1      -9.005  10.132  66.868  1.00  0.00    -0.132 A  
HETATM    5  C   UNL     1      -7.919   9.499  67.487  1.00  0.00    -0.106 A  
HETATM    6  C   UNL     1      -7.160   8.543  66.805  1.00  0.00    -0.074 A  
HETATM    7  C   UNL     1      -7.481   8.207  65.492  1.00  0.00    -0.081 A  
HETATM    8  C   UNL     1      -8.566   8.821  64.869  1.00  0.00    -0.177 A  
HETATM    9  C   UNL     1      -9.341   9.778  65.544  1.00  0.00    -0.240 A  
BRANCH   9  10
HETATM   10  O   UNL     1     -10.372  10.256  64.768  1.00  0.00    -0.277 OA 
BRANCH  10  11
HETATM   11  C   UNL     1     -10.044  10.917  63.547  1.00  0.00    -0.347 C  
BRANCH  11  12
HETATM   12  C   UNL     1     -10.620  12.339  63.559  1.00  0.00    -0.448 C  
BRANCH  12  13
HETATM   13  N   UNL     1     -10.645  13.003  64.872  1.00  0.00    -0.320 NA 
HETATM   14  H   UNL     1      -9.930  13.730  64.909  1.00  0.00     0.000 HD 
BRANCH  13  15
HETATM   15  C   UNL     1     -11.950  13.558  65.280  1.00  0.00    -0.373 C  
HETATM   16  C   UNL     1     -12.336  14.616  64.234  1.00  0.00    -0.375 C  
BRANCH  15  17
HETATM   17  C   UNL     1     -11.952  14.158  66.714  1.00  0.00    -0.475 C  
BRANCH  17  18
HETATM   18  C   UNL     1     -10.746  15.038  66.957  1.00  0.00    -0.304 A  
HETATM   19  C   UNL     1      -9.548  14.463  67.396  1.00  0.00    -0.216 A  
HETATM   20  C   UNL     1      -8.499  15.274  67.846  1.00  0.00    -0.148 A  
HETATM   21  C   UNL     1      -8.586  16.669  67.757  1.00  0.00    -0.192 A  
HETATM   22  C   UNL     1     -10.831  16.427  66.852  1.00  0.00    -0.118 A  
HETATM   23  C   UNL     1      -9.752  17.234  67.229  1.00  0.00    -0.262 A  
BRANCH  20  24
HETATM   24  S   UNL     1      -7.090  14.553  68.655  1.00  0.00    -0.122 S  
HETATM   25  O   UNL     1      -6.961  15.164  69.957  1.00  0.00    -0.169 OA 
HETATM   26  N   UNL     1      -7.538  12.961  68.959  1.00  0.00    -0.323 N  
HETATM   27  O   UNL     1      -6.011  14.454  67.700  1.00  0.00    -0.288 OA 
HETATM   28  H1  UNL     1      -6.730  12.548  69.424  1.00  0.00     0.000 HD 
HETATM   29  H2  UNL     1      -8.423  12.509  68.731  1.00  0.00     0.000 HD 
ENDBRANCH  20  24
BRANCH  21  30
HETATM   30  O   UNL     1      -7.515  17.393  68.201  1.00  0.00    -0.194 OA 
HETATM   31  C   UNL     1      -7.738  18.736  68.608  1.00  0.00    -0.326 C  
ENDBRANCH  21  30
ENDBRANCH  17  18
ENDBRANCH  15  17
ENDBRANCH  13  15
ENDBRANCH  12  13
ENDBRANCH  11  12
ENDBRANCH  10  11
ENDBRANCH   9  10
ENDBRANCH   3   4
ENDBRANCH   2   3
TORSDOF 11
ENDMDL
MODEL      244
REMARK 921   NORMALIZED FREE ENERGY PREDICTED BY IDOCK:   -4.22 KCAL/MOL
REMARK 922        TOTAL FREE ENERGY PREDICTED BY IDOCK:   -8.17 KCAL/MOL
REMARK 923 INTER-LIGAND FREE ENERGY PREDICTED BY IDOCK:   -7.66 KCAL/MOL
REMARK 924 INTRA-LIGAND FREE ENERGY PREDICTED BY IDOCK:   -0.51 KCAL/MOL
REMARK 927      BINDING AFFINITY PREDICTED BY RF-SCORE:    0.00 PKD
ROOT
HETATM    1  C   UNL     1      -7.399   8.899  65.186  1.00  0.00    -0.092 C  
HETATM    2  C   UNL     1      -8.162  10.020  64.496  1.00  0.00    -0.164 C  
ENDROOT
BRANCH   2   3
HETATM    3  O   UNL     1      -9.019  10.573  65.487  1.00  0.00    -0.168 OA 
BRANCH   3   4
HETATM    4  C   UNL     1     -10.089  11.339  65.137  1.00  0.00    -0.275 A  
HETATM    5  C   UNL     1     -10.434  11.617  63.807  1.00  0.00    -0.454 A  
HETATM    6  C   UNL     1     -11.528  12.432  63.504  1.00  0.00    -0.561 A  
HETATM    7  C   UNL     1     -12.294  12.980  64.530  1.00  0.00    -0.461 A  
HETATM    8  C   UNL     1     -11.969  12.701  65.857  1.00  0.00    -0.497 A  
HETATM    9  C   UNL     1     -10.876  11.879  66.176  1.00  0.00    -0.292 A  
BRANCH   9  10
HETATM   10  O   UNL     1     -10.727  11.713  67.534  1.00  0.00    -0.198 OA 
BRANCH  10  11
HETATM   11  C   UNL     1     -11.225  10.512  68.122  1.00  0.00    -0.293 C  
BRANCH  11  12
HETATM   12  C   UNL     1     -11.766  10.811  69.527  1.00  0.00    -0.312 C  
BRANCH  12  13
HETATM   13  N   UNL     1     -12.796   9.882  70.021  1.00  0.00    -0.306 NA 
HETATM   14  H   UNL     1     -12.950   9.138  69.340  1.00  0.00     0.000 HD 
BRANCH  13  15
HETATM   15  C   UNL     1     -12.543   9.302  71.353  1.00  0.00    -0.336 C  
HETATM   16  C   UNL     1     -11.036   9.438  71.625  1.00  0.00    -0.409 C  
BRANCH  15  17
HETATM   17  C   UNL     1     -13.007   7.824  71.489  1.00  0.00    -0.357 C  
BRANCH  17  18
HETATM   18  C   UNL     1     -11.840   6.864  71.458  1.00  0.00    -0.366 A  
HETATM   19  C   UNL     1     -11.212   6.580  70.240  1.00  0.00    -0.433 A  
HETATM   20  C   UNL     1     -10.290   5.528  70.149  1.00  0.00    -0.284 A  
HETATM   21  C   UNL     1      -9.899   4.821  71.294  1.00  0.00    -0.187 A  
HETATM   22  C   UNL     1     -11.442   6.171  72.603  1.00  0.00    -0.277 A  
HETATM   23  C   UNL     1     -10.464   5.173  72.524  1.00  0.00    -0.267 A  
BRANCH  20  24
HETATM   24  S   UNL     1      -9.697   4.989  68.563  1.00  0.00    -0.153 S  
HETATM   25  O   UNL     1     -10.242   5.872  67.559  1.00  0.00    -0.152 OA 
HETATM   26  N   UNL     1      -8.049   5.316  68.587  1.00  0.00    -0.090 N  
HETATM   27  O   UNL     1      -9.785   3.549  68.504  1.00  0.00    -0.126 OA 
HETATM   28  H1  UNL     1      -7.709   5.007  67.678  1.00  0.00     0.000 HD 
HETATM   29  H2  UNL     1      -7.508   5.732  69.345  1.00  0.00     0.000 HD 
ENDBRANCH  20  24
BRANCH  21  30
HETATM   30  O   UNL     1      -8.984   3.820  71.127  1.00  0.00    -0.087 OA 
HETATM   31  C   UNL     1      -7.743   3.926  71.813  1.00  0.00    -0.065 C  
ENDBRANCH  21  30
ENDBRANCH  17  18
ENDBRANCH  15  17
ENDBRANCH  13  15
ENDBRANCH  12  13
ENDBRANCH  11  12
ENDBRANCH  10  11
ENDBRANCH   9  10
ENDBRANCH   3   4
ENDBRANCH   2   3
TORSDOF 11
ENDMDL
MODEL      245
REMARK 921   NORMALIZED FREE ENERGY PREDICTED BY IDOCK:   -4.19 KCAL/MOL
REMARK 922        TOTAL FREE ENERGY PREDICTED BY IDOCK:   -8.14 KCAL/MOL
REMARK 923 INTER-LIGAND FREE ENERGY PREDICTED BY IDOCK:   -7.98 KCAL/MOL
REMARK 924 INTRA-LIGAND FREE ENERGY PREDICTED BY IDOCK:   -0.15 KCAL/MOL
REMARK 927      BINDING AFFINITY PREDICTED BY RF-SCORE:    0.00 PKD
ROOT
HETATM    1  C   UNL     1      -7.785   6.753  72.370  1.00  0.00    -0.093 C  
HETATM    2  C   UNL     1      -7.723   7.517  71.056  1.00  0.00    -0.089 C  
ENDROOT
BRANCH   2   3
HETATM    3  O   UNL     1      -9.057   7.929  70.784  1.00  0.00    -0.149 OA 
BRANCH   3   4
HETATM    4  C   UNL     1      -9.667   7.594  69.614  1.00  0.00    -0.171 A  
HETATM    5  C   UNL     1     -10.303   6.362  69.404  1.00  0.00    -0.252 A  
HETATM    6  C   UNL     1     -10.891   6.057  68.173  1.00  0.00    -0.365 A  
HETATM    7  C   UNL     1     -10.852   6.985  67.134  1.00  0.00    -0.427 A  
HETATM    8  C   UNL     1     -10.234   8.218  67.335  1.00  0.00    -0.326 A  
HETATM    9  C   UNL     1      -9.644   8.540  68.567  1.00  0.00    -0.151 A  
BRANCH   9  10
HETATM   10  O   UNL     1      -9.100   9.804  68.572  1.00  0.00    -0.126 OA 
BRANCH  10  11
HETATM   11  C   UNL     1      -8.787  10.405  67.317  1.00  0.00    -0.132 C  
BRANCH  11  12
HETATM   12  C   UNL     1      -8.310  11.846  67.539  1.00  0.00    -0.158 C  
BRANCH  12  13
HETATM   13  N   UNL     1      -8.907  12.856  66.650  1.00  0.00    -0.401 NA 
HETATM   14  H   UNL     1      -9.687  12.449  66.134  1.00  0.00     0.000 HD 
BRANCH  13  15
HETATM   15  C   UNL     1      -9.332  14.108  67.304  1.00  0.00    -0.225 C  
HETATM   16  C   UNL     1      -8.841  14.045  68.759  1.00  0.00    -0.031 C  
BRANCH  15  17
HETATM   17  C   UNL     1     -10.866  14.356  67.239  1.00  0.00    -0.290 C  
BRANCH  17  18
HETATM   18  C   UNL     1     -11.592  13.686  68.385  1.00  0.00    -0.377 A  
HETATM   19  C   UNL     1     -12.207  14.472  69.366  1.00  0.00    -0.285 A  
HETATM   20  C   UNL     1     -12.679  13.884  70.547  1.00  0.00    -0.249 A  
HETATM   21  C   UNL     1     -12.647  12.494  70.715  1.00  0.00    -0.212 A  
HETATM   22  C   UNL     1     -11.573  12.299  68.541  1.00  0.00    -0.359 A  
HETATM   23  C   UNL     1     -12.115  11.707  69.687  1.00  0.00    -0.345 A  
BRANCH  20  24
HETATM   24  S   UNL     1     -13.209  14.900  71.905  1.00  0.00    -0.387 S  
HETATM   25  O   UNL     1     -13.107  14.118  73.115  1.00  0.00    -0.547 OA 
HETATM   26  N   UNL     1     -12.023  16.082  72.046  1.00  0.00    -0.497 N  
HETATM   27  O   UNL     1     -14.397  15.618  71.507  1.00  0.00    -0.507 OA 
HETATM   28  H1  UNL     1     -12.326  16.665  72.825  1.00  0.00     0.000 HD 
HETATM   29  H2  UNL     1     -11.183  16.193  71.477  1.00  0.00     0.000 HD 
ENDBRANCH  20  24
BRANCH  21  30
HETATM   30  O   UNL     1     -13.141  11.994  71.887  1.00  0.00    -0.453 OA 
HETATM   31  C   UNL     1     -13.257  10.583  72.017  1.00  0.00    -0.378 C  
ENDBRANCH  21  30
ENDBRANCH  17  18
ENDBRANCH  15  17
ENDBRANCH  13  15
ENDBRANCH  12  13
ENDBRANCH  11  12
ENDBRANCH  10  11
ENDBRANCH   9  10
ENDBRANCH   3   4
ENDBRANCH   2   3
TORSDOF 11
ENDMDL
MODEL      246
REMARK 921   NORMALIZED FREE ENERGY PREDICTED BY IDOCK:   -4.19 KCAL/MOL
REMARK 922        TOTAL FREE ENERGY PREDICTED BY IDOCK:   -8.13 KCAL/MOL
REMARK 923 INTER-LIGAND FREE ENERGY PREDICTED BY IDOCK:   -8.13 KCAL/MOL
REMARK 924 INTRA-LIGAND FREE ENERGY PREDICTED BY IDOCK:   -0.00 KCAL/MOL
REMARK 927      BINDING AFFINITY PREDICTED BY RF-SCORE:    0.00 PKD
ROOT
HETATM    1  C   UNL     1     -14.332   8.114  71.489  1.00  0.00    -0.534 C  
HETATM    2  C   UNL     1     -13.585   9.079  72.396  1.00  0.00    -0.477 C  
ENDROOT
BRANCH   2   3
HETATM    3  O   UNL     1     -12.526   9.611  71.609  1.00  0.00    -0.353 OA 
BRANCH   3   4
HETATM    4  C   UNL     1     -11.258   9.127  71.724  1.00  0.00    -0.381 A  
HETATM    5  C   UNL     1     -10.886   8.162  72.672  1.00  0.00    -0.429 A  
HETATM    6  C   UNL     1      -9.564   7.720  72.765  1.00  0.00    -0.281 A  
HETATM    7  C   UNL     1      -8.594   8.236  71.908  1.00  0.00    -0.224 A  
HETATM    8  C   UNL     1      -8.954   9.186  70.954  1.00  0.00    -0.298 A  
HETATM    9  C   UNL     1     -10.279   9.636  70.845  1.00  0.00    -0.232 A  
BRANCH   9  10
HETATM   10  O   UNL     1     -10.436  10.560  69.838  1.00  0.00    -0.241 OA 
BRANCH  10  11
HETATM   11  C   UNL     1     -10.740  10.082  68.528  1.00  0.00    -0.231 C  
BRANCH  11  12
HETATM   12  C   UNL     1     -11.633  11.097  67.802  1.00  0.00    -0.223 C  
BRANCH  12  13
HETATM   13  N   UNL     1     -10.951  11.950  66.816  1.00  0.00    -0.277 NA 
HETATM   14  H   UNL     1      -9.977  12.088  67.088  1.00  0.00     0.000 HD 
BRANCH  13  15
HETATM   15  C   UNL     1     -11.023  11.488  65.416  1.00  0.00    -0.226 C  
HETATM   16  C   UNL     1      -9.689  10.791  65.103  1.00  0.00    -0.319 C  
BRANCH  15  17
HETATM   17  C   UNL     1     -11.316  12.626  64.398  1.00  0.00    -0.393 C  
BRANCH  17  18
HETATM   18  C   UNL     1     -10.776  13.957  64.872  1.00  0.00    -0.422 A  
HETATM   19  C   UNL     1      -9.604  13.994  65.635  1.00  0.00    -0.090 A  
HETATM   20  C   UNL     1      -9.217  15.178  66.277  1.00  0.00    -0.301 A  
HETATM   21  C   UNL     1      -9.931  16.367  66.073  1.00  0.00    -0.345 A  
HETATM   22  C   UNL     1     -11.481  15.142  64.655  1.00  0.00    -0.363 A  
HETATM   23  C   UNL     1     -11.049  16.341  65.233  1.00  0.00    -0.156 A  
BRANCH  20  24
HETATM   24  S   UNL     1      -7.890  15.166  67.459  1.00  0.00    -0.197 S  
HETATM   25  O   UNL     1      -7.068  14.009  67.196  1.00  0.00    -0.106 OA 
HETATM   26  N   UNL     1      -6.936  16.486  67.046  1.00  0.00    -0.196 N  
HETATM   27  O   UNL     1      -8.428  15.494  68.759  1.00  0.00    -0.163 OA 
HETATM   28  H1  UNL     1      -6.174  16.479  67.724  1.00  0.00     0.000 HD 
HETATM   29  H2  UNL     1      -7.084  17.149  66.285  1.00  0.00     0.000 HD 
ENDBRANCH  20  24
BRANCH  21  30
HETATM   30  O   UNL     1      -9.482  17.484  66.720  1.00  0.00    -0.257 OA 
HETATM   31  C   UNL     1     -10.421  18.247  67.466  1.00  0.00    -0.411 C  
ENDBRANCH  21  30
ENDBRANCH  17  18
ENDBRANCH  15  17
ENDBRANCH  13  15
ENDBRANCH  12  13
ENDBRANCH  11  12
ENDBRANCH  10  11
ENDBRANCH   9  10
ENDBRANCH   3   4
ENDBRANCH   2   3
TORSDOF 11
ENDMDL
MODEL      247
REMARK 921   NORMALIZED FREE ENERGY PREDICTED BY IDOCK:   -4.18 KCAL/MOL
REMARK 922        TOTAL FREE ENERGY PREDICTED BY IDOCK:   -8.11 KCAL/MOL
REMARK 923 INTER-LIGAND FREE ENERGY PREDICTED BY IDOCK:   -7.60 KCAL/MOL
REMARK 924 INTRA-LIGAND FREE ENERGY PREDICTED BY IDOCK:   -0.52 KCAL/MOL
REMARK 927      BINDING AFFINITY PREDICTED BY RF-SCORE:    0.00 PKD
ROOT
HETATM    1  C   UNL     1     -14.095  14.689  72.280  1.00  0.00    -0.588 C  
HETATM    2  C   UNL     1     -13.293  13.506  71.760  1.00  0.00    -0.397 C  
ENDROOT
BRANCH   2   3
HETATM    3  O   UNL     1     -12.425  14.034  70.764  1.00  0.00    -0.329 OA 
BRANCH   3   4
HETATM    4  C   UNL     1     -12.071  13.290  69.680  1.00  0.00    -0.270 A  
HETATM    5  C   UNL     1     -11.897  13.834  68.399  1.00  0.00    -0.411 A  
HETATM    6  C   UNL     1     -11.559  13.020  67.314  1.00  0.00    -0.409 A  
HETATM    7  C   UNL     1     -11.389  11.650  67.497  1.00  0.00    -0.364 A  
HETATM    8  C   UNL     1     -11.546  11.100  68.768  1.00  0.00    -0.389 A  
HETATM    9  C   UNL     1     -11.880  11.905  69.868  1.00  0.00    -0.343 A  
BRANCH   9  10
HETATM   10  O   UNL     1     -11.977  11.182  71.035  1.00  0.00    -0.293 OA 
BRANCH  10  11
HETATM   11  C   UNL     1     -12.820  10.031  71.044  1.00  0.00    -0.365 C  
BRANCH  11  12
HETATM   12  C   UNL     1     -12.015   8.805  71.494  1.00  0.00    -0.324 C  
BRANCH  12  13
HETATM   13  N   UNL     1     -11.722   7.818  70.443  1.00  0.00    -0.472 NA 
HETATM   14  H   UNL     1     -11.073   8.214  69.763  1.00  0.00     0.000 HD 
BRANCH  13  15
HETATM   15  C   UNL     1     -11.222   6.513  70.917  1.00  0.00    -0.311 C  
HETATM   16  C   UNL     1     -11.579   6.409  72.408  1.00  0.00    -0.308 C  
BRANCH  15  17
HETATM   17  C   UNL     1      -9.697   6.309  70.689  1.00  0.00    -0.199 C  
BRANCH  17  18
HETATM   18  C   UNL     1      -9.379   6.037  69.235  1.00  0.00    -0.146 A  
HETATM   19  C   UNL     1      -8.567   6.930  68.528  1.00  0.00    -0.123 A  
HETATM   20  C   UNL     1      -8.450   6.826  67.135  1.00  0.00    -0.120 A  
HETATM   21  C   UNL     1      -9.048   5.764  66.446  1.00  0.00    -0.146 A  
HETATM   22  C   UNL     1      -9.964   4.969  68.554  1.00  0.00    -0.207 A  
HETATM   23  C   UNL     1      -9.782   4.822  67.175  1.00  0.00    -0.207 A  
BRANCH  20  24
HETATM   24  S   UNL     1      -7.647   8.109  66.204  1.00  0.00    -0.091 S  
HETATM   25  O   UNL     1      -6.586   7.505  65.434  1.00  0.00    -0.044 OA 
HETATM   26  N   UNL     1      -8.789   8.596  65.071  1.00  0.00    -0.381 N  
HETATM   27  O   UNL     1      -7.468   9.258  67.061  1.00  0.00    -0.090 OA 
HETATM   28  H1  UNL     1      -8.329   9.332  64.536  1.00  0.00     0.000 HD 
HETATM   29  H2  UNL     1      -9.735   8.235  64.945  1.00  0.00     0.000 HD 
ENDBRANCH  20  24
BRANCH  21  30
HETATM   30  O   UNL     1      -8.876   5.721  65.091  1.00  0.00    -0.120 OA 
HETATM   31  C   UNL     1      -8.960   4.458  64.445  1.00  0.00    -0.151 C  
ENDBRANCH  21  30
ENDBRANCH  17  18
ENDBRANCH  15  17
ENDBRANCH  13  15
ENDBRANCH  12  13
ENDBRANCH  11  12
ENDBRANCH  10  11
ENDBRANCH   9  10
ENDBRANCH   3   4
ENDBRANCH   2   3
TORSDOF 11
ENDMDL
MODEL      248
REMARK 921   NORMALIZED FREE ENERGY PREDICTED BY IDOCK:   -4.18 KCAL/MOL
REMARK 922        TOTAL FREE ENERGY PREDICTED BY IDOCK:   -8.11 KCAL/MOL
REMARK 923 INTER-LIGAND FREE ENERGY PREDICTED BY IDOCK:   -8.13 KCAL/MOL
REMARK 924 INTRA-LIGAND FREE ENERGY PREDICTED BY IDOCK:    0.02 KCAL/MOL
REMARK 927      BINDING AFFINITY PREDICTED BY RF-SCORE:    0.00 PKD
ROOT
HETATM    1  C   UNL     1     -11.693  15.422  64.358  1.00  0.00    -0.261 C  
HETATM    2  C   UNL     1     -10.950  15.397  65.685  1.00  0.00    -0.326 C  
ENDROOT
BRANCH   2   3
HETATM    3  O   UNL     1      -9.931  16.384  65.578  1.00  0.00    -0.518 OA 
BRANCH   3   4
HETATM    4  C   UNL     1      -9.946  17.492  66.369  1.00  0.00    -0.325 A  
HETATM    5  C   UNL     1     -10.498  18.716  65.966  1.00  0.00    -0.456 A  
HETATM    6  C   UNL     1     -10.462  19.831  66.808  1.00  0.00    -0.610 A  
HETATM    7  C   UNL     1      -9.873  19.736  68.067  1.00  0.00    -0.533 A  
HETATM    8  C   UNL     1      -9.331  18.520  68.483  1.00  0.00    -0.364 A  
HETATM    9  C   UNL     1      -9.365  17.391  67.651  1.00  0.00    -0.245 A  
BRANCH   9  10
HETATM   10  O   UNL     1      -8.795  16.288  68.244  1.00  0.00    -0.180 OA 
BRANCH  10  11
HETATM   11  C   UNL     1      -9.254  15.909  69.540  1.00  0.00    -0.175 C  
BRANCH  11  12
HETATM   12  C   UNL     1     -10.677  15.343  69.440  1.00  0.00    -0.258 C  
BRANCH  12  13
HETATM   13  N   UNL     1     -10.884  14.031  70.073  1.00  0.00    -0.410 NA 
HETATM   14  H   UNL     1     -10.567  14.057  71.042  1.00  0.00     0.000 HD 
BRANCH  13  15
HETATM   15  C   UNL     1     -12.259  13.502  70.006  1.00  0.00    -0.312 C  
HETATM   16  C   UNL     1     -13.120  14.368  70.939  1.00  0.00    -0.390 C  
BRANCH  15  17
HETATM   17  C   UNL     1     -12.367  11.996  70.378  1.00  0.00    -0.317 C  
BRANCH  17  18
HETATM   18  C   UNL     1     -11.334  11.163  69.653  1.00  0.00    -0.366 A  
HETATM   19  C   UNL     1     -10.505  11.766  68.701  1.00  0.00    -0.242 A  
HETATM   20  C   UNL     1      -9.709  10.979  67.858  1.00  0.00    -0.172 A  
HETATM   21  C   UNL     1      -9.643   9.590  68.031  1.00  0.00    -0.137 A  
HETATM   22  C   UNL     1     -11.259   9.781  69.838  1.00  0.00    -0.271 A  
HETATM   23  C   UNL     1     -10.405   9.005  69.047  1.00  0.00    -0.233 A  
BRANCH  20  24
HETATM   24  S   UNL     1      -8.867  11.713  66.477  1.00  0.00    -0.175 S  
HETATM   25  O   UNL     1      -7.447  11.551  66.681  1.00  0.00    -0.138 OA 
HETATM   26  N   UNL     1      -9.239  10.722  65.171  1.00  0.00    -0.201 N  
HETATM   27  O   UNL     1      -9.498  12.976  66.170  1.00  0.00    -0.238 OA 
HETATM   28  H1  UNL     1      -8.756  11.143  64.378  1.00  0.00     0.000 HD 
HETATM   29  H2  UNL     1      -9.820   9.884  65.171  1.00  0.00     0.000 HD 
ENDBRANCH  20  24
BRANCH  21  30
HETATM   30  O   UNL     1      -8.831   8.893  67.180  1.00  0.00    -0.122 OA 
HETATM   31  C   UNL     1      -9.216   7.572  66.821  1.00  0.00    -0.156 C  
ENDBRANCH  21  30
ENDBRANCH  17  18
ENDBRANCH  15  17
ENDBRANCH  13  15
ENDBRANCH  12  13
ENDBRANCH  11  12
ENDBRANCH  10  11
ENDBRANCH   9  10
ENDBRANCH   3   4
ENDBRANCH   2   3
TORSDOF 11
ENDMDL
MODEL      249
REMARK 921   NORMALIZED FREE ENERGY PREDICTED BY IDOCK:   -4.17 KCAL/MOL
REMARK 922        TOTAL FREE ENERGY PREDICTED BY IDOCK:   -8.10 KCAL/MOL
REMARK 923 INTER-LIGAND FREE ENERGY PREDICTED BY IDOCK:   -7.41 KCAL/MOL
REMARK 924 INTRA-LIGAND FREE ENERGY PREDICTED BY IDOCK:   -0.69 KCAL/MOL
REMARK 927      BINDING AFFINITY PREDICTED BY RF-SCORE:    0.00 PKD
ROOT
HETATM    1  C   UNL     1     -14.348   8.339  71.807  1.00  0.00    -0.574 C  
HETATM    2  C   UNL     1     -12.888   8.523  72.191  1.00  0.00    -0.369 C  
ENDROOT
BRANCH   2   3
HETATM    3  O   UNL     1     -12.132   7.985  71.114  1.00  0.00    -0.300 OA 
BRANCH   3   4
HETATM    4  C   UNL     1     -11.526   6.770  71.222  1.00  0.00    -0.302 A  
HETATM    5  C   UNL     1     -11.595   5.977  72.377  1.00  0.00    -0.349 A  
HETATM    6  C   UNL     1     -10.931   4.750  72.445  1.00  0.00    -0.118 A  
HETATM    7  C   UNL     1     -10.189   4.297  71.357  1.00  0.00    -0.121 A  
HETATM    8  C   UNL     1     -10.123   5.070  70.199  1.00  0.00    -0.338 A  
HETATM    9  C   UNL     1     -10.789   6.303  70.114  1.00  0.00    -0.313 A  
BRANCH   9  10
HETATM   10  O   UNL     1     -10.615   6.907  68.890  1.00  0.00    -0.202 OA 
BRANCH  10  11
HETATM   11  C   UNL     1      -9.592   6.405  68.032  1.00  0.00    -0.118 C  
BRANCH  11  12
HETATM   12  C   UNL     1      -9.866   6.846  66.588  1.00  0.00    -0.153 C  
BRANCH  12  13
HETATM   13  N   UNL     1      -9.205   8.092  66.169  1.00  0.00    -0.254 NA 
HETATM   14  H   UNL     1      -8.681   8.489  66.950  1.00  0.00     0.000 HD 
BRANCH  13  15
HETATM   15  C   UNL     1      -8.335   7.984  64.982  1.00  0.00    -0.113 C  
HETATM   16  C   UNL     1      -6.964   7.493  65.472  1.00  0.00    -0.060 C  
BRANCH  15  17
HETATM   17  C   UNL     1      -8.204   9.310  64.181  1.00  0.00    -0.159 C  
BRANCH  17  18
HETATM   18  C   UNL     1      -8.944  10.447  64.852  1.00  0.00    -0.225 A  
HETATM   19  C   UNL     1     -10.172  10.873  64.335  1.00  0.00    -0.423 A  
HETATM   20  C   UNL     1     -10.757  12.061  64.791  1.00  0.00    -0.306 A  
HETATM   21  C   UNL     1     -10.182  12.778  65.849  1.00  0.00    -0.287 A  
HETATM   22  C   UNL     1      -8.377  11.150  65.916  1.00  0.00    -0.076 A  
HETATM   23  C   UNL     1      -9.003  12.294  66.424  1.00  0.00    -0.117 A  
BRANCH  20  24
HETATM   24  S   UNL     1     -12.166  12.747  63.955  1.00  0.00    -0.470 S  
HETATM   25  O   UNL     1     -12.800  11.689  63.205  1.00  0.00    -0.478 OA 
HETATM   26  N   UNL     1     -13.250  13.127  65.182  1.00  0.00    -0.478 N  
HETATM   27  O   UNL     1     -11.791  14.022  63.389  1.00  0.00    -0.114 OA 
HETATM   28  H1  UNL     1     -14.059  13.521  64.702  1.00  0.00     0.000 HD 
HETATM   29  H2  UNL     1     -13.127  12.994  66.185  1.00  0.00     0.000 HD 
ENDBRANCH  20  24
BRANCH  21  30
HETATM   30  O   UNL     1     -10.820  13.919  66.250  1.00  0.00    -0.288 OA 
HETATM   31  C   UNL     1     -10.159  15.161  66.048  1.00  0.00    -0.302 C  
ENDBRANCH  21  30
ENDBRANCH  17  18
ENDBRANCH  15  17
ENDBRANCH  13  15
ENDBRANCH  12  13
ENDBRANCH  11  12
ENDBRANCH  10  11
ENDBRANCH   9  10
ENDBRANCH   3   4
ENDBRANCH   2   3
TORSDOF 11
ENDMDL
MODEL      250
REMARK 921   NORMALIZED FREE ENERGY PREDICTED BY IDOCK:   -4.16 KCAL/MOL
REMARK 922        TOTAL FREE ENERGY PREDICTED BY IDOCK:   -8.08 KCAL/MOL
REMARK 923 INTER-LIGAND FREE ENERGY PREDICTED BY IDOCK:   -6.96 KCAL/MOL
REMARK 924 INTRA-LIGAND FREE ENERGY PREDICTED BY IDOCK:   -1.12 KCAL/MOL
REMARK 927      BINDING AFFINITY PREDICTED BY RF-SCORE:    0.00 PKD
ROOT
HETATM    1  C   UNL     1     -12.130  15.164  69.662  1.00  0.00    -0.336 C  
HETATM    2  C   UNL     1     -11.830  14.024  68.700  1.00  0.00    -0.361 C  
ENDROOT
BRANCH   2   3
HETATM    3  O   UNL     1     -11.891  14.590  67.397  1.00  0.00    -0.389 OA 
BRANCH   3   4
HETATM    4  C   UNL     1     -11.776  13.807  66.288  1.00  0.00    -0.376 A  
HETATM    5  C   UNL     1     -12.868  13.437  65.491  1.00  0.00    -0.361 A  
HETATM    6  C   UNL     1     -12.697  12.609  64.379  1.00  0.00    -0.417 A  
HETATM    7  C   UNL     1     -11.428  12.140  64.048  1.00  0.00    -0.488 A  
HETATM    8  C   UNL     1     -10.332  12.512  64.825  1.00  0.00    -0.331 A  
HETATM    9  C   UNL     1     -10.488  13.348  65.942  1.00  0.00    -0.287 A  
BRANCH   9  10
HETATM   10  O   UNL     1      -9.291  13.610  66.569  1.00  0.00    -0.268 OA 
BRANCH  10  11
HETATM   11  C   UNL     1      -8.725  12.590  67.390  1.00  0.00    -0.189 C  
BRANCH  11  12
HETATM   12  C   UNL     1      -7.603  13.183  68.252  1.00  0.00    -0.139 C  
BRANCH  12  13
HETATM   13  N   UNL     1      -7.033  12.278  69.262  1.00  0.00    -0.284 NA 
HETATM   14  H   UNL     1      -7.708  11.551  69.500  1.00  0.00     0.000 HD 
BRANCH  13  15
HETATM   15  C   UNL     1      -5.736  11.668  68.910  1.00  0.00    -0.047 C  
HETATM   16  C   UNL     1      -5.336  12.224  67.534  1.00  0.00    -0.113 C  
BRANCH  15  17
HETATM   17  C   UNL     1      -5.760  10.113  68.904  1.00  0.00    -0.034 C  
BRANCH  17  18
HETATM   18  C   UNL     1      -7.134   9.571  69.229  1.00  0.00    -0.058 A  
HETATM   19  C   UNL     1      -8.013   9.248  68.190  1.00  0.00    -0.099 A  
HETATM   20  C   UNL     1      -9.358   8.968  68.464  1.00  0.00    -0.139 A  
HETATM   21  C   UNL     1      -9.817   8.896  69.786  1.00  0.00    -0.180 A  
HETATM   22  C   UNL     1      -7.583   9.485  70.548  1.00  0.00    -0.165 A  
HETATM   23  C   UNL     1      -8.908   9.129  70.824  1.00  0.00    -0.291 A  
BRANCH  20  24
HETATM   24  S   UNL     1     -10.533   8.826  67.139  1.00  0.00    -0.240 S  
HETATM   25  O   UNL     1     -11.398   9.982  67.183  1.00  0.00    -0.113 OA 
HETATM   26  N   UNL     1      -9.624   9.010  65.738  1.00  0.00    -0.395 N  
HETATM   27  O   UNL     1     -11.011   7.464  67.091  1.00  0.00    -0.312 OA 
HETATM   28  H1  UNL     1     -10.299   8.928  64.977  1.00  0.00     0.000 HD 
HETATM   29  H2  UNL     1      -8.620   9.168  65.663  1.00  0.00     0.000 HD 
ENDBRANCH  20  24
BRANCH  21  30
HETATM   30  O   UNL     1     -11.138   8.602  69.974  1.00  0.00    -0.237 OA 
HETATM   31  C   UNL     1     -11.818   9.237  71.049  1.00  0.00    -0.307 C  
ENDBRANCH  21  30
ENDBRANCH  17  18
ENDBRANCH  15  17
ENDBRANCH  13  15
ENDBRANCH  12  13
ENDBRANCH  11  12
ENDBRANCH  10  11
ENDBRANCH   9  10
ENDBRANCH   3   4
ENDBRANCH   2   3
TORSDOF 11
ENDMDL
MODEL      251
REMARK 921   NORMALIZED FREE ENERGY PREDICTED BY IDOCK:   -4.15 KCAL/MOL
REMARK 922        TOTAL FREE ENERGY PREDICTED BY IDOCK:   -8.06 KCAL/MOL
REMARK 923 INTER-LIGAND FREE ENERGY PREDICTED BY IDOCK:   -6.21 KCAL/MOL
REMARK 924 INTRA-LIGAND FREE ENERGY PREDICTED BY IDOCK:   -1.85 KCAL/MOL
REMARK 927      BINDING AFFINITY PREDICTED BY RF-SCORE:    0.00 PKD
ROOT
HETATM    1  C   UNL     1      -7.329  12.534  67.668  1.00  0.00    -0.134 C  
HETATM    2  C   UNL     1      -6.832  11.188  67.164  1.00  0.00    -0.107 C  
ENDROOT
BRANCH   2   3
HETATM    3  O   UNL     1      -7.997  10.449  66.817  1.00  0.00    -0.112 OA 
BRANCH   3   4
HETATM    4  C   UNL     1      -7.951   9.477  65.865  1.00  0.00    -0.111 A  
HETATM    5  C   UNL     1      -8.101   9.736  64.495  1.00  0.00    -0.146 A  
HETATM    6  C   UNL     1      -8.073   8.696  63.561  1.00  0.00    -0.167 A  
HETATM    7  C   UNL     1      -7.892   7.382  63.986  1.00  0.00    -0.120 A  
HETATM    8  C   UNL     1      -7.728   7.114  65.344  1.00  0.00    -0.111 A  
HETATM    9  C   UNL     1      -7.749   8.148  66.293  1.00  0.00    -0.094 A  
BRANCH   9  10
HETATM   10  O   UNL     1      -7.558   7.685  67.575  1.00  0.00    -0.104 OA 
BRANCH  10  11
HETATM   11  C   UNL     1      -8.595   6.907  68.170  1.00  0.00    -0.123 C  
BRANCH  11  12
HETATM   12  C   UNL     1      -9.685   7.834  68.724  1.00  0.00    -0.157 C  
BRANCH  12  13
HETATM   13  N   UNL     1      -9.200   9.036  69.421  1.00  0.00    -0.147 NA 
HETATM   14  H   UNL     1      -8.471   9.489  68.870  1.00  0.00     0.000 HD 
BRANCH  13  15
HETATM   15  C   UNL     1     -10.237  10.018  69.792  1.00  0.00    -0.250 C  
HETATM   16  C   UNL     1     -10.911   9.500  71.072  1.00  0.00    -0.423 C  
BRANCH  15  17
HETATM   17  C   UNL     1     -11.283  10.275  68.670  1.00  0.00    -0.263 C  
BRANCH  17  18
HETATM   18  C   UNL     1     -11.091  11.629  68.023  1.00  0.00    -0.299 A  
HETATM   19  C   UNL     1     -10.865  12.752  68.826  1.00  0.00    -0.270 A  
HETATM   20  C   UNL     1     -10.917  14.038  68.272  1.00  0.00    -0.255 A  
HETATM   21  C   UNL     1     -11.081  14.214  66.892  1.00  0.00    -0.307 A  
HETATM   22  C   UNL     1     -11.239  11.800  66.646  1.00  0.00    -0.383 A  
HETATM   23  C   UNL     1     -11.213  13.081  66.083  1.00  0.00    -0.320 A  
BRANCH  20  24
HETATM   24  S   UNL     1     -10.902  15.470  69.324  1.00  0.00    -0.274 S  
HETATM   25  O   UNL     1     -12.060  16.271  69.003  1.00  0.00    -0.148 OA 
HETATM   26  N   UNL     1     -11.196  14.872  70.867  1.00  0.00    -0.501 N  
HETATM   27  O   UNL     1      -9.555  15.986  69.381  1.00  0.00    -0.247 OA 
HETATM   28  H1  UNL     1     -11.188  15.693  71.471  1.00  0.00     0.000 HD 
HETATM   29  H2  UNL     1     -11.349  13.901  71.140  1.00  0.00     0.000 HD 
ENDBRANCH  20  24
BRANCH  21  30
HETATM   30  O   UNL     1     -11.105  15.499  66.424  1.00  0.00    -0.283 OA 
HETATM   31  C   UNL     1      -9.947  15.991  65.762  1.00  0.00    -0.351 C  
ENDBRANCH  21  30
ENDBRANCH  17  18
ENDBRANCH  15  17
ENDBRANCH  13  15
ENDBRANCH  12  13
ENDBRANCH  11  12
ENDBRANCH  10  11
ENDBRANCH   9  10
ENDBRANCH   3   4
ENDBRANCH   2   3
TORSDOF 11
ENDMDL
MODEL      252
REMARK 921   NORMALIZED FREE ENERGY PREDICTED BY IDOCK:   -4.14 KCAL/MOL
REMARK 922        TOTAL FREE ENERGY PREDICTED BY IDOCK:   -8.04 KCAL/MOL
REMARK 923 INTER-LIGAND FREE ENERGY PREDICTED BY IDOCK:   -7.99 KCAL/MOL
REMARK 924 INTRA-LIGAND FREE ENERGY PREDICTED BY IDOCK:   -0.05 KCAL/MOL
REMARK 927      BINDING AFFINITY PREDICTED BY RF-SCORE:    0.00 PKD
ROOT
HETATM    1  C   UNL     1      -8.331  15.318  67.573  1.00  0.00    -0.191 C  
HETATM    2  C   UNL     1      -7.806  13.908  67.352  1.00  0.00    -0.161 C  
ENDROOT
BRANCH   2   3
HETATM    3  O   UNL     1      -8.942  13.054  67.425  1.00  0.00    -0.185 OA 
BRANCH   3   4
HETATM    4  C   UNL     1      -9.116  12.042  66.531  1.00  0.00    -0.202 A  
HETATM    5  C   UNL     1     -10.202  11.976  65.647  1.00  0.00    -0.284 A  
HETATM    6  C   UNL     1     -10.347  10.900  64.767  1.00  0.00    -0.391 A  
HETATM    7  C   UNL     1      -9.404   9.874  64.760  1.00  0.00    -0.339 A  
HETATM    8  C   UNL     1      -8.313   9.935  65.625  1.00  0.00    -0.140 A  
HETATM    9  C   UNL     1      -8.151  11.013  66.510  1.00  0.00    -0.161 A  
BRANCH   9  10
HETATM   10  O   UNL     1      -7.010  10.898  67.270  1.00  0.00    -0.080 OA 
BRANCH  10  11
HETATM   11  C   UNL     1      -7.028  10.002  68.380  1.00  0.00    -0.067 C  
BRANCH  11  12
HETATM   12  C   UNL     1      -8.471   9.808  68.864  1.00  0.00    -0.129 C  
BRANCH  12  13
HETATM   13  N   UNL     1      -8.671   9.908  70.319  1.00  0.00    -0.334 NA 
HETATM   14  H   UNL     1      -8.520  10.869  70.626  1.00  0.00     0.000 HD 
BRANCH  13  15
HETATM   15  C   UNL     1      -9.968   9.415  70.818  1.00  0.00    -0.289 C  
HETATM   16  C   UNL     1      -9.827   7.897  71.016  1.00  0.00    -0.189 C  
BRANCH  15  17
HETATM   17  C   UNL     1     -11.165   9.751  69.883  1.00  0.00    -0.271 C  
BRANCH  17  18
HETATM   18  C   UNL     1     -11.963  10.929  70.395  1.00  0.00    -0.453 A  
HETATM   19  C   UNL     1     -11.800  12.185  69.801  1.00  0.00    -0.397 A  
HETATM   20  C   UNL     1     -12.346  13.327  70.400  1.00  0.00    -0.295 A  
HETATM   21  C   UNL     1     -13.157  13.217  71.538  1.00  0.00    -0.328 A  
HETATM   22  C   UNL     1     -12.783  10.814  71.519  1.00  0.00    -0.536 A  
HETATM   23  C   UNL     1     -13.392  11.946  72.072  1.00  0.00    -0.425 A  
BRANCH  20  24
HETATM   24  S   UNL     1     -11.917  14.946  69.806  1.00  0.00    -0.328 S  
HETATM   25  O   UNL     1     -13.004  15.841  70.125  1.00  0.00    -0.266 OA 
HETATM   26  N   UNL     1     -10.641  15.438  70.782  1.00  0.00    -0.450 N  
HETATM   27  O   UNL     1     -11.341  14.815  68.488  1.00  0.00    -0.264 OA 
HETATM   28  H1  UNL     1     -10.395  16.366  70.441  1.00  0.00     0.000 HD 
HETATM   29  H2  UNL     1     -10.208  14.922  71.548  1.00  0.00     0.000 HD 
ENDBRANCH  20  24
BRANCH  21  30
HETATM   30  O   UNL     1     -13.667  14.375  72.056  1.00  0.00    -0.367 OA 
HETATM   31  C   UNL     1     -13.111  14.867  73.268  1.00  0.00    -0.469 C  
ENDBRANCH  21  30
ENDBRANCH  17  18
ENDBRANCH  15  17
ENDBRANCH  13  15
ENDBRANCH  12  13
ENDBRANCH  11  12
ENDBRANCH  10  11
ENDBRANCH   9  10
ENDBRANCH   3   4
ENDBRANCH   2   3
TORSDOF 11
ENDMDL
MODEL      253
REMARK 921   NORMALIZED FREE ENERGY PREDICTED BY IDOCK:   -4.13 KCAL/MOL
REMARK 922        TOTAL FREE ENERGY PREDICTED BY IDOCK:   -8.03 KCAL/MOL
REMARK 923 INTER-LIGAND FREE ENERGY PREDICTED BY IDOCK:   -7.30 KCAL/MOL
REMARK 924 INTRA-LIGAND FREE ENERGY PREDICTED BY IDOCK:   -0.74 KCAL/MOL
REMARK 927      BINDING AFFINITY PREDICTED BY RF-SCORE:    0.00 PKD
ROOT
HETATM    1  C   UNL     1      -9.741   7.072  73.782  1.00  0.00    -0.311 C  
HETATM    2  C   UNL     1     -10.263   7.913  72.627  1.00  0.00    -0.296 C  
ENDROOT
BRANCH   2   3
HETATM    3  O   UNL     1      -9.358   7.697  71.551  1.00  0.00    -0.136 OA 
BRANCH   3   4
HETATM    4  C   UNL     1      -9.737   6.994  70.448  1.00  0.00    -0.176 A  
HETATM    5  C   UNL     1      -9.829   5.595  70.423  1.00  0.00    -0.253 A  
HETATM    6  C   UNL     1     -10.197   4.921  69.256  1.00  0.00    -0.205 A  
HETATM    7  C   UNL     1     -10.480   5.638  68.096  1.00  0.00    -0.260 A  
HETATM    8  C   UNL     1     -10.405   7.030  68.112  1.00  0.00    -0.226 A  
HETATM    9  C   UNL     1     -10.042   7.722  69.279  1.00  0.00    -0.199 A  
BRANCH   9  10
HETATM   10  O   UNL     1     -10.038   9.086  69.098  1.00  0.00    -0.184 OA 
BRANCH  10  11
HETATM   11  C   UNL     1     -10.177   9.588  67.770  1.00  0.00    -0.216 C  
BRANCH  11  12
HETATM   12  C   UNL     1     -11.267  10.667  67.737  1.00  0.00    -0.313 C  
BRANCH  12  13
HETATM   13  N   UNL     1     -10.848  12.005  68.184  1.00  0.00    -0.210 NA 
HETATM   14  H   UNL     1      -9.924  11.956  68.615  1.00  0.00     0.000 HD 
BRANCH  13  15
HETATM   15  C   UNL     1     -10.868  13.057  67.150  1.00  0.00    -0.260 C  
HETATM   16  C   UNL     1     -11.784  12.560  66.020  1.00  0.00    -0.472 C  
BRANCH  15  17
HETATM   17  C   UNL     1      -9.457  13.426  66.608  1.00  0.00    -0.264 C  
BRANCH  17  18
HETATM   18  C   UNL     1      -9.319  14.913  66.369  1.00  0.00    -0.327 A  
HETATM   19  C   UNL     1      -8.332  15.633  67.051  1.00  0.00    -0.261 A  
HETATM   20  C   UNL     1      -8.335  17.034  67.025  1.00  0.00    -0.203 A  
HETATM   21  C   UNL     1      -9.252  17.731  66.227  1.00  0.00    -0.182 A  
HETATM   22  C   UNL     1     -10.225  15.603  65.562  1.00  0.00    -0.414 A  
HETATM   23  C   UNL     1     -10.177  16.999  65.475  1.00  0.00    -0.111 A  
BRANCH  20  24
HETATM   24  S   UNL     1      -7.261  17.954  68.100  1.00  0.00    -0.239 S  
HETATM   25  O   UNL     1      -6.359  18.726  67.277  1.00  0.00    -0.185 OA 
HETATM   26  N   UNL     1      -8.259  19.086  68.839  1.00  0.00    -0.311 N  
HETATM   27  O   UNL     1      -6.831  17.088  69.173  1.00  0.00    -0.225 OA 
HETATM   28  H1  UNL     1      -7.642  19.614  69.456  1.00  0.00     0.000 HD 
HETATM   29  H2  UNL     1      -9.261  19.217  68.701  1.00  0.00     0.000 HD 
ENDBRANCH  20  24
BRANCH  21  30
HETATM   30  O   UNL     1      -9.182  19.096  66.242  1.00  0.00    -0.337 OA 
HETATM   31  C   UNL     1     -10.400  19.828  66.212  1.00  0.00    -0.519 C  
ENDBRANCH  21  30
ENDBRANCH  17  18
ENDBRANCH  15  17
ENDBRANCH  13  15
ENDBRANCH  12  13
ENDBRANCH  11  12
ENDBRANCH  10  11
ENDBRANCH   9  10
ENDBRANCH   3   4
ENDBRANCH   2   3
TORSDOF 11
ENDMDL
MODEL      254
REMARK 921   NORMALIZED FREE ENERGY PREDICTED BY IDOCK:   -4.12 KCAL/MOL
REMARK 922        TOTAL FREE ENERGY PREDICTED BY IDOCK:   -8.02 KCAL/MOL
REMARK 923 INTER-LIGAND FREE ENERGY PREDICTED BY IDOCK:   -7.11 KCAL/MOL
REMARK 924 INTRA-LIGAND FREE ENERGY PREDICTED BY IDOCK:   -0.91 KCAL/MOL
REMARK 927      BINDING AFFINITY PREDICTED BY RF-SCORE:    0.00 PKD
ROOT
HETATM    1  C   UNL     1      -7.125  13.300  68.569  1.00  0.00    -0.105 C  
HETATM    2  C   UNL     1      -7.635  14.288  67.531  1.00  0.00    -0.184 C  
ENDROOT
BRANCH   2   3
HETATM    3  O   UNL     1      -8.978  13.908  67.260  1.00  0.00    -0.200 OA 
BRANCH   3   4
HETATM    4  C   UNL     1     -10.006  14.382  68.017  1.00  0.00    -0.225 A  
HETATM    5  C   UNL     1     -10.313  15.745  68.130  1.00  0.00    -0.242 A  
HETATM    6  C   UNL     1     -11.363  16.179  68.944  1.00  0.00    -0.350 A  
HETATM    7  C   UNL     1     -12.122  15.253  69.655  1.00  0.00    -0.342 A  
HETATM    8  C   UNL     1     -11.835  13.894  69.541  1.00  0.00    -0.383 A  
HETATM    9  C   UNL     1     -10.787  13.443  68.723  1.00  0.00    -0.246 A  
BRANCH   9  10
HETATM   10  O   UNL     1     -10.671  12.072  68.733  1.00  0.00    -0.222 OA 
BRANCH  10  11
HETATM   11  C   UNL     1     -11.803  11.304  69.136  1.00  0.00    -0.355 C  
BRANCH  11  12
HETATM   12  C   UNL     1     -11.374  10.252  70.167  1.00  0.00    -0.316 C  
BRANCH  12  13
HETATM   13  N   UNL     1     -12.259  10.109  71.334  1.00  0.00    -0.383 NA 
HETATM   14  H   UNL     1     -13.056  10.741  71.247  1.00  0.00     0.000 HD 
BRANCH  13  15
HETATM   15  C   UNL     1     -12.730   8.739  71.612  1.00  0.00    -0.348 C  
HETATM   16  C   UNL     1     -14.132   8.862  72.230  1.00  0.00    -0.512 C  
BRANCH  15  17
HETATM   17  C   UNL     1     -11.778   7.927  72.535  1.00  0.00    -0.423 C  
BRANCH  17  18
HETATM   18  C   UNL     1     -11.221   6.708  71.834  1.00  0.00    -0.302 A  
HETATM   19  C   UNL     1     -10.521   5.747  72.571  1.00  0.00    -0.246 A  
HETATM   20  C   UNL     1      -9.803   4.739  71.915  1.00  0.00    -0.176 A  
HETATM   21  C   UNL     1      -9.867   4.608  70.521  1.00  0.00    -0.231 A  
HETATM   22  C   UNL     1     -11.300   6.573  70.447  1.00  0.00    -0.443 A  
HETATM   23  C   UNL     1     -10.646   5.519  69.799  1.00  0.00    -0.388 A  
BRANCH  20  24
HETATM   24  S   UNL     1      -8.698   3.686  72.825  1.00  0.00    -0.094 S  
HETATM   25  O   UNL     1      -9.083   2.316  72.580  1.00  0.00    -0.076 OA 
HETATM   26  N   UNL     1      -7.210   3.866  72.065  1.00  0.00    -0.052 N  
HETATM   27  O   UNL     1      -8.508   4.246  74.142  1.00  0.00    -0.094 OA 
HETATM   28  H1  UNL     1      -6.576   3.262  72.587  1.00  0.00     0.000 HD 
HETATM   29  H2  UNL     1      -6.989   4.451  71.259  1.00  0.00     0.000 HD 
ENDBRANCH  20  24
BRANCH  21  30
HETATM   30  O   UNL     1      -9.152   3.590  69.955  1.00  0.00    -0.096 OA 
HETATM   31  C   UNL     1      -8.338   3.890  68.829  1.00  0.00    -0.074 C  
ENDBRANCH  21  30
ENDBRANCH  17  18
ENDBRANCH  15  17
ENDBRANCH  13  15
ENDBRANCH  12  13
ENDBRANCH  11  12
ENDBRANCH  10  11
ENDBRANCH   9  10
ENDBRANCH   3   4
ENDBRANCH   2   3
TORSDOF 11
ENDMDL
MODEL      255
REMARK 921   NORMALIZED FREE ENERGY PREDICTED BY IDOCK:   -4.12 KCAL/MOL
REMARK 922        TOTAL FREE ENERGY PREDICTED BY IDOCK:   -8.01 KCAL/MOL
REMARK 923 INTER-LIGAND FREE ENERGY PREDICTED BY IDOCK:   -6.47 KCAL/MOL
REMARK 924 INTRA-LIGAND FREE ENERGY PREDICTED BY IDOCK:   -1.54 KCAL/MOL
REMARK 927      BINDING AFFINITY PREDICTED BY RF-SCORE:    0.00 PKD
ROOT
HETATM    1  C   UNL     1     -10.957   5.744  73.514  1.00  0.00    -0.208 C  
HETATM    2  C   UNL     1      -9.661   5.637  72.725  1.00  0.00    -0.156 C  
ENDROOT
BRANCH   2   3
HETATM    3  O   UNL     1      -9.900   6.308  71.494  1.00  0.00    -0.172 OA 
BRANCH   3   4
HETATM    4  C   UNL     1      -9.126   7.359  71.108  1.00  0.00    -0.148 A  
HETATM    5  C   UNL     1      -7.729   7.289  71.009  1.00  0.00    -0.089 A  
HETATM    6  C   UNL     1      -6.979   8.407  70.634  1.00  0.00    -0.040 A  
HETATM    7  C   UNL     1      -7.618   9.612  70.352  1.00  0.00    -0.176 A  
HETATM    8  C   UNL     1      -9.007   9.691  70.434  1.00  0.00    -0.239 A  
HETATM    9  C   UNL     1      -9.774   8.574  70.804  1.00  0.00    -0.183 A  
BRANCH   9  10
HETATM   10  O   UNL     1     -11.123   8.847  70.815  1.00  0.00    -0.241 OA 
BRANCH  10  11
HETATM   11  C   UNL     1     -11.545  10.127  71.284  1.00  0.00    -0.306 C  
BRANCH  11  12
HETATM   12  C   UNL     1     -12.647  10.675  70.367  1.00  0.00    -0.316 C  
BRANCH  12  13
HETATM   13  N   UNL     1     -12.406  10.521  68.924  1.00  0.00    -0.735 NA 
HETATM   14  H   UNL     1     -13.270  10.688  68.406  1.00  0.00     0.000 HD 
BRANCH  13  15
HETATM   15  C   UNL     1     -11.317  11.346  68.368  1.00  0.00    -0.281 C  
HETATM   16  C   UNL     1     -11.768  12.812  68.465  1.00  0.00    -0.371 C  
BRANCH  15  17
HETATM   17  C   UNL     1     -10.932  10.971  66.908  1.00  0.00    -0.311 C  
BRANCH  17  18
HETATM   18  C   UNL     1      -9.910   9.857  66.866  1.00  0.00    -0.252 A  
HETATM   19  C   UNL     1     -10.339   8.526  66.853  1.00  0.00    -0.367 A  
HETATM   20  C   UNL     1      -9.421   7.486  67.047  1.00  0.00    -0.162 A  
HETATM   21  C   UNL     1      -8.049   7.754  67.143  1.00  0.00    -0.118 A  
HETATM   22  C   UNL     1      -8.542  10.127  66.946  1.00  0.00    -0.127 A  
HETATM   23  C   UNL     1      -7.619   9.082  67.062  1.00  0.00    -0.091 A  
BRANCH  20  24
HETATM   24  S   UNL     1      -9.990   5.822  67.303  1.00  0.00    -0.174 S  
HETATM   25  O   UNL     1     -10.702   5.781  68.558  1.00  0.00    -0.236 OA 
HETATM   26  N   UNL     1     -11.164   5.584  66.124  1.00  0.00    -0.761 N  
HETATM   27  O   UNL     1      -8.926   4.911  66.950  1.00  0.00    -0.110 OA 
HETATM   28  H1  UNL     1     -11.491   4.630  66.270  1.00  0.00     0.000 HD 
HETATM   29  H2  UNL     1     -11.481   6.248  65.417  1.00  0.00     0.000 HD 
ENDBRANCH  20  24
BRANCH  21  30
HETATM   30  O   UNL     1      -7.214   6.685  67.316  1.00  0.00    -0.080 OA 
HETATM   31  C   UNL     1      -5.817   6.896  67.161  1.00  0.00    -0.017 C  
ENDBRANCH  21  30
ENDBRANCH  17  18
ENDBRANCH  15  17
ENDBRANCH  13  15
ENDBRANCH  12  13
ENDBRANCH  11  12
ENDBRANCH  10  11
ENDBRANCH   9  10
ENDBRANCH   3   4
ENDBRANCH   2   3
TORSDOF 11
ENDMDL
MODEL      256
REMARK 921   NORMALIZED FREE ENERGY PREDICTED BY IDOCK:   -4.12 KCAL/MOL
REMARK 922        TOTAL FREE ENERGY PREDICTED BY IDOCK:   -8.01 KCAL/MOL
REMARK 923 INTER-LIGAND FREE ENERGY PREDICTED BY IDOCK:   -6.91 KCAL/MOL
REMARK 924 INTRA-LIGAND FREE ENERGY PREDICTED BY IDOCK:   -1.09 KCAL/MOL
REMARK 927      BINDING AFFINITY PREDICTED BY RF-SCORE:    0.00 PKD
ROOT
HETATM    1  C   UNL     1      -7.844   9.847  62.331  1.00  0.00    -0.133 C  
HETATM    2  C   UNL     1      -8.837  10.043  63.466  1.00  0.00    -0.236 C  
ENDROOT
BRANCH   2   3
HETATM    3  O   UNL     1      -8.716   8.891  64.291  1.00  0.00    -0.165 OA 
BRANCH   3   4
HETATM    4  C   UNL     1      -7.549   8.610  64.934  1.00  0.00    -0.100 A  
HETATM    5  C   UNL     1      -6.768   7.480  64.652  1.00  0.00    -0.050 A  
HETATM    6  C   UNL     1      -5.592   7.225  65.362  1.00  0.00    -0.033 A  
HETATM    7  C   UNL     1      -5.178   8.100  66.364  1.00  0.00    -0.025 A  
HETATM    8  C   UNL     1      -5.939   9.234  66.645  1.00  0.00    -0.060 A  
HETATM    9  C   UNL     1      -7.120   9.506  65.936  1.00  0.00    -0.096 A  
BRANCH   9  10
HETATM   10  O   UNL     1      -7.719  10.674  66.349  1.00  0.00    -0.128 OA 
BRANCH  10  11
HETATM   11  C   UNL     1      -7.211  11.313  67.518  1.00  0.00    -0.100 C  
BRANCH  11  12
HETATM   12  C   UNL     1      -8.293  11.337  68.606  1.00  0.00    -0.146 C  
BRANCH  12  13
HETATM   13  N   UNL     1      -9.429  10.428  68.390  1.00  0.00    -0.145 NA 
HETATM   14  H   UNL     1      -9.090   9.489  68.180  1.00  0.00     0.000 HD 
BRANCH  13  15
HETATM   15  C   UNL     1     -10.419  10.375  69.483  1.00  0.00    -0.247 C  
HETATM   16  C   UNL     1     -10.482   8.916  69.962  1.00  0.00    -0.227 C  
BRANCH  15  17
HETATM   17  C   UNL     1     -11.827  10.895  69.077  1.00  0.00    -0.370 C  
BRANCH  17  18
HETATM   18  C   UNL     1     -11.742  12.173  68.272  1.00  0.00    -0.401 A  
HETATM   19  C   UNL     1     -11.870  12.122  66.880  1.00  0.00    -0.295 A  
HETATM   20  C   UNL     1     -11.566  13.246  66.101  1.00  0.00    -0.348 A  
HETATM   21  C   UNL     1     -11.240  14.467  66.706  1.00  0.00    -0.337 A  
HETATM   22  C   UNL     1     -11.433  13.391  68.879  1.00  0.00    -0.347 A  
HETATM   23  C   UNL     1     -11.206  14.533  68.103  1.00  0.00    -0.301 A  
BRANCH  20  24
HETATM   24  S   UNL     1     -11.463  13.111  64.332  1.00  0.00    -0.387 S  
HETATM   25  O   UNL     1     -12.144  11.901  63.936  1.00  0.00    -0.420 OA 
HETATM   26  N   UNL     1     -12.418  14.365  63.750  1.00  0.00    -1.058 N  
HETATM   27  O   UNL     1     -10.120  13.451  63.921  1.00  0.00    -0.178 OA 
HETATM   28  H1  UNL     1     -12.359  14.287  62.735  1.00  0.00     0.000 HD 
HETATM   29  H2  UNL     1     -12.942  15.052  64.291  1.00  0.00     0.000 HD 
ENDBRANCH  20  24
BRANCH  21  30
HETATM   30  O   UNL     1     -10.972  15.522  65.880  1.00  0.00    -0.320 OA 
HETATM   31  C   UNL     1     -10.420  16.699  66.456  1.00  0.00    -0.262 C  
ENDBRANCH  21  30
ENDBRANCH  17  18
ENDBRANCH  15  17
ENDBRANCH  13  15
ENDBRANCH  12  13
ENDBRANCH  11  12
ENDBRANCH  10  11
ENDBRANCH   9  10
ENDBRANCH   3   4
ENDBRANCH   2   3
TORSDOF 11
ENDMDL
MODEL      257
REMARK 921   NORMALIZED FREE ENERGY PREDICTED BY IDOCK:   -4.11 KCAL/MOL
REMARK 922        TOTAL FREE ENERGY PREDICTED BY IDOCK:   -8.00 KCAL/MOL
REMARK 923 INTER-LIGAND FREE ENERGY PREDICTED BY IDOCK:   -7.19 KCAL/MOL
REMARK 924 INTRA-LIGAND FREE ENERGY PREDICTED BY IDOCK:   -0.80 KCAL/MOL
REMARK 927      BINDING AFFINITY PREDICTED BY RF-SCORE:    0.00 PKD
ROOT
HETATM    1  C   UNL     1      -9.064  16.121  66.638  1.00  0.00    -0.282 C  
HETATM    2  C   UNL     1      -8.961  14.613  66.474  1.00  0.00    -0.204 C  
ENDROOT
BRANCH   2   3
HETATM    3  O   UNL     1     -10.296  14.125  66.524  1.00  0.00    -0.275 OA 
BRANCH   3   4
HETATM    4  C   UNL     1     -10.837  13.459  65.467  1.00  0.00    -0.289 A  
HETATM    5  C   UNL     1     -11.781  14.029  64.601  1.00  0.00    -0.417 A  
HETATM    6  C   UNL     1     -12.326  13.291  63.547  1.00  0.00    -0.442 A  
HETATM    7  C   UNL     1     -11.931  11.971  63.343  1.00  0.00    -0.571 A  
HETATM    8  C   UNL     1     -10.983  11.397  64.189  1.00  0.00    -0.411 A  
HETATM    9  C   UNL     1     -10.424  12.128  65.249  1.00  0.00    -0.276 A  
BRANCH   9  10
HETATM   10  O   UNL     1      -9.501  11.394  65.959  1.00  0.00    -0.210 OA 
BRANCH  10  11
HETATM   11  C   UNL     1      -9.961  10.251  66.678  1.00  0.00    -0.216 C  
BRANCH  11  12
HETATM   12  C   UNL     1     -10.838  10.697  67.854  1.00  0.00    -0.277 C  
BRANCH  12  13
HETATM   13  N   UNL     1     -10.479  10.132  69.164  1.00  0.00    -0.207 NA 
HETATM   14  H   UNL     1      -9.816  10.745  69.639  1.00  0.00     0.000 HD 
BRANCH  13  15
HETATM   15  C   UNL     1     -11.612   9.825  70.057  1.00  0.00    -0.130 C  
HETATM   16  C   UNL     1     -12.656  10.936  69.858  1.00  0.00    -0.211 C  
BRANCH  15  17
HETATM   17  C   UNL     1     -11.210   9.693  71.554  1.00  0.00    -0.377 C  
BRANCH  17  18
HETATM   18  C   UNL     1     -11.045   8.247  71.966  1.00  0.00    -0.379 A  
HETATM   19  C   UNL     1      -9.778   7.770  72.320  1.00  0.00    -0.241 A  
HETATM   20  C   UNL     1      -9.560   6.395  72.477  1.00  0.00    -0.152 A  
HETATM   21  C   UNL     1     -10.626   5.490  72.396  1.00  0.00    -0.223 A  
HETATM   22  C   UNL     1     -12.112   7.350  71.899  1.00  0.00    -0.341 A  
HETATM   23  C   UNL     1     -11.908   5.986  72.133  1.00  0.00    -0.304 A  
BRANCH  20  24
HETATM   24  S   UNL     1      -7.910   5.763  72.657  1.00  0.00    -0.102 S  
HETATM   25  O   UNL     1      -7.028   6.879  72.908  1.00  0.00    -0.073 OA 
HETATM   26  N   UNL     1      -7.937   4.894  74.095  1.00  0.00    -0.100 N  
HETATM   27  O   UNL     1      -7.682   4.770  71.633  1.00  0.00    -0.090 OA 
HETATM   28  H1  UNL     1      -6.990   4.531  74.199  1.00  0.00     0.000 HD 
HETATM   29  H2  UNL     1      -8.727   4.758  74.726  1.00  0.00     0.000 HD 
ENDBRANCH  20  24
BRANCH  21  30
HETATM   30  O   UNL     1     -10.337   4.166  72.577  1.00  0.00    -0.172 OA 
HETATM   31  C   UNL     1     -11.060   3.454  73.573  1.00  0.00    -0.219 C  
ENDBRANCH  21  30
ENDBRANCH  17  18
ENDBRANCH  15  17
ENDBRANCH  13  15
ENDBRANCH  12  13
ENDBRANCH  11  12
ENDBRANCH  10  11
ENDBRANCH   9  10
ENDBRANCH   3   4
ENDBRANCH   2   3
TORSDOF 11
ENDMDL
MODEL      258
REMARK 921   NORMALIZED FREE ENERGY PREDICTED BY IDOCK:   -4.11 KCAL/MOL
REMARK 922        TOTAL FREE ENERGY PREDICTED BY IDOCK:   -7.99 KCAL/MOL
REMARK 923 INTER-LIGAND FREE ENERGY PREDICTED BY IDOCK:   -7.09 KCAL/MOL
REMARK 924 INTRA-LIGAND FREE ENERGY PREDICTED BY IDOCK:   -0.91 KCAL/MOL
REMARK 927      BINDING AFFINITY PREDICTED BY RF-SCORE:    0.00 PKD
ROOT
HETATM    1  C   UNL     1     -10.370  16.331  65.811  1.00  0.00    -0.393 C  
HETATM    2  C   UNL     1     -10.749  15.493  67.023  1.00  0.00    -0.321 C  
ENDROOT
BRANCH   2   3
HETATM    3  O   UNL     1     -11.842  14.683  66.608  1.00  0.00    -0.375 OA 
BRANCH   3   4
HETATM    4  C   UNL     1     -11.700  13.780  65.598  1.00  0.00    -0.347 A  
HETATM    5  C   UNL     1     -12.258  13.958  64.324  1.00  0.00    -0.447 A  
HETATM    6  C   UNL     1     -12.105  12.986  63.332  1.00  0.00    -0.591 A  
HETATM    7  C   UNL     1     -11.388  11.823  63.600  1.00  0.00    -0.525 A  
HETATM    8  C   UNL     1     -10.817  11.640  64.859  1.00  0.00    -0.359 A  
HETATM    9  C   UNL     1     -10.959  12.610  65.864  1.00  0.00    -0.278 A  
BRANCH   9  10
HETATM   10  O   UNL     1     -10.315  12.255  67.027  1.00  0.00    -0.217 OA 
BRANCH  10  11
HETATM   11  C   UNL     1      -8.893  12.360  67.067  1.00  0.00    -0.210 C  
BRANCH  11  12
HETATM   12  C   UNL     1      -8.384  11.963  68.459  1.00  0.00    -0.118 C  
BRANCH  12  13
HETATM   13  N   UNL     1      -8.392  10.521  68.750  1.00  0.00    -0.128 NA 
HETATM   14  H   UNL     1      -7.482  10.233  69.112  1.00  0.00     0.000 HD 
BRANCH  13  15
HETATM   15  C   UNL     1      -9.464  10.060  69.653  1.00  0.00    -0.223 C  
HETATM   16  C   UNL     1      -8.815   9.114  70.676  1.00  0.00    -0.278 C  
BRANCH  15  17
HETATM   17  C   UNL     1     -10.645   9.366  68.916  1.00  0.00    -0.231 C  
BRANCH  17  18
HETATM   18  C   UNL     1     -10.157   8.372  67.886  1.00  0.00    -0.254 A  
HETATM   19  C   UNL     1     -10.076   7.016  68.219  1.00  0.00    -0.185 A  
HETATM   20  C   UNL     1      -9.414   6.119  67.370  1.00  0.00    -0.114 A  
HETATM   21  C   UNL     1      -8.927   6.541  66.126  1.00  0.00    -0.146 A  
HETATM   22  C   UNL     1      -9.686   8.793  66.641  1.00  0.00    -0.309 A  
HETATM   23  C   UNL     1      -9.096   7.880  65.760  1.00  0.00    -0.084 A  
BRANCH  20  24
HETATM   24  S   UNL     1      -9.070   4.461  67.908  1.00  0.00    -0.135 S  
HETATM   25  O   UNL     1      -9.877   4.193  69.075  1.00  0.00    -0.154 OA 
HETATM   26  N   UNL     1      -9.703   3.477  66.701  1.00  0.00    -0.403 N  
HETATM   27  O   UNL     1      -7.643   4.243  67.848  1.00  0.00    -0.068 OA 
HETATM   28  H1  UNL     1      -9.506   2.526  67.010  1.00  0.00     0.000 HD 
HETATM   29  H2  UNL     1     -10.180   3.767  65.848  1.00  0.00     0.000 HD 
ENDBRANCH  20  24
BRANCH  21  30
HETATM   30  O   UNL     1      -8.308   5.604  65.346  1.00  0.00    -0.132 OA 
HETATM   31  C   UNL     1      -7.173   6.006  64.591  1.00  0.00    -0.063 C  
ENDBRANCH  21  30
ENDBRANCH  17  18
ENDBRANCH  15  17
ENDBRANCH  13  15
ENDBRANCH  12  13
ENDBRANCH  11  12
ENDBRANCH  10  11
ENDBRANCH   9  10
ENDBRANCH   3   4
ENDBRANCH   2   3
TORSDOF 11
ENDMDL
MODEL      259
REMARK 921   NORMALIZED FREE ENERGY PREDICTED BY IDOCK:   -4.11 KCAL/MOL
REMARK 922        TOTAL FREE ENERGY PREDICTED BY IDOCK:   -7.99 KCAL/MOL
REMARK 923 INTER-LIGAND FREE ENERGY PREDICTED BY IDOCK:   -7.15 KCAL/MOL
REMARK 924 INTRA-LIGAND FREE ENERGY PREDICTED BY IDOCK:   -0.84 KCAL/MOL
REMARK 927      BINDING AFFINITY PREDICTED BY RF-SCORE:    0.00 PKD
ROOT
HETATM    1  C   UNL     1      -9.043  12.967  66.881  1.00  0.00    -0.227 C  
HETATM    2  C   UNL     1     -10.157  13.579  66.045  1.00  0.00    -0.310 C  
ENDROOT
BRANCH   2   3
HETATM    3  O   UNL     1     -11.367  13.281  66.731  1.00  0.00    -0.304 OA 
BRANCH   3   4
HETATM    4  C   UNL     1     -11.632  13.827  67.950  1.00  0.00    -0.341 A  
HETATM    5  C   UNL     1     -11.541  15.200  68.213  1.00  0.00    -0.357 A  
HETATM    6  C   UNL     1     -11.798  15.705  69.491  1.00  0.00    -0.387 A  
HETATM    7  C   UNL     1     -12.153  14.840  70.523  1.00  0.00    -0.378 A  
HETATM    8  C   UNL     1     -12.260  13.473  70.271  1.00  0.00    -0.417 A  
HETATM    9  C   UNL     1     -12.010  12.953  68.991  1.00  0.00    -0.251 A  
BRANCH   9  10
HETATM   10  O   UNL     1     -12.180  11.588  68.940  1.00  0.00    -0.415 OA 
BRANCH  10  11
HETATM   11  C   UNL     1     -11.044  10.760  69.184  1.00  0.00    -0.249 C  
BRANCH  11  12
HETATM   12  C   UNL     1     -11.291   9.899  70.430  1.00  0.00    -0.307 C  
BRANCH  12  13
HETATM   13  N   UNL     1     -11.908   8.586  70.182  1.00  0.00    -0.406 NA 
HETATM   14  H   UNL     1     -11.301   8.022  69.588  1.00  0.00     0.000 HD 
BRANCH  13  15
HETATM   15  C   UNL     1     -12.287   7.824  71.387  1.00  0.00    -0.323 C  
HETATM   16  C   UNL     1     -13.792   8.043  71.604  1.00  0.00    -0.444 C  
BRANCH  15  17
HETATM   17  C   UNL     1     -11.473   8.213  72.654  1.00  0.00    -0.454 C  
BRANCH  17  18
HETATM   18  C   UNL     1     -10.372   7.217  72.942  1.00  0.00    -0.307 A  
HETATM   19  C   UNL     1      -9.401   6.961  71.969  1.00  0.00    -0.146 A  
HETATM   20  C   UNL     1      -8.517   5.884  72.119  1.00  0.00    -0.125 A  
HETATM   21  C   UNL     1      -8.516   5.121  73.294  1.00  0.00    -0.113 A  
HETATM   22  C   UNL     1     -10.364   6.469  74.120  1.00  0.00    -0.351 A  
HETATM   23  C   UNL     1      -9.430   5.443  74.303  1.00  0.00    -0.142 A  
BRANCH  20  24
HETATM   24  S   UNL     1      -7.468   5.388  70.773  1.00  0.00    -0.082 S  
HETATM   25  O   UNL     1      -7.807   4.030  70.420  1.00  0.00    -0.051 OA 
HETATM   26  N   UNL     1      -7.973   6.321  69.470  1.00  0.00    -0.107 N  
HETATM   27  O   UNL     1      -6.123   5.838  71.047  1.00  0.00    -0.031 OA 
HETATM   28  H1  UNL     1      -7.372   6.036  68.697  1.00  0.00     0.000 HD 
HETATM   29  H2  UNL     1      -8.718   7.018  69.454  1.00  0.00     0.000 HD 
ENDBRANCH  20  24
BRANCH  21  30
HETATM   30  O   UNL     1      -7.613   4.097  73.374  1.00  0.00    -0.074 OA 
HETATM   31  C   UNL     1      -6.523   4.236  74.276  1.00  0.00    -0.052 C  
ENDBRANCH  21  30
ENDBRANCH  17  18
ENDBRANCH  15  17
ENDBRANCH  13  15
ENDBRANCH  12  13
ENDBRANCH  11  12
ENDBRANCH  10  11
ENDBRANCH   9  10
ENDBRANCH   3   4
ENDBRANCH   2   3
TORSDOF 11
ENDMDL
MODEL      260
REMARK 921   NORMALIZED FREE ENERGY PREDICTED BY IDOCK:   -4.10 KCAL/MOL
REMARK 922        TOTAL FREE ENERGY PREDICTED BY IDOCK:   -7.98 KCAL/MOL
REMARK 923 INTER-LIGAND FREE ENERGY PREDICTED BY IDOCK:   -6.96 KCAL/MOL
REMARK 924 INTRA-LIGAND FREE ENERGY PREDICTED BY IDOCK:   -1.02 KCAL/MOL
REMARK 927      BINDING AFFINITY PREDICTED BY RF-SCORE:    0.00 PKD
ROOT
HETATM    1  C   UNL     1     -10.616   6.183  73.384  1.00  0.00    -0.288 C  
HETATM    2  C   UNL     1      -9.996   5.280  72.329  1.00  0.00    -0.177 C  
ENDROOT
BRANCH   2   3
HETATM    3  O   UNL     1     -10.296   5.883  71.076  1.00  0.00    -0.205 OA 
BRANCH   3   4
HETATM    4  C   UNL     1      -9.469   6.819  70.535  1.00  0.00    -0.169 A  
HETATM    5  C   UNL     1      -8.112   6.586  70.272  1.00  0.00    -0.121 A  
HETATM    6  C   UNL     1      -7.300   7.592  69.740  1.00  0.00    -0.081 A  
HETATM    7  C   UNL     1      -7.838   8.847  69.462  1.00  0.00    -0.094 A  
HETATM    8  C   UNL     1      -9.189   9.087  69.707  1.00  0.00    -0.172 A  
HETATM    9  C   UNL     1     -10.017   8.084  70.236  1.00  0.00    -0.189 A  
BRANCH   9  10
HETATM   10  O   UNL     1     -11.317   8.509  70.392  1.00  0.00    -0.256 OA 
BRANCH  10  11
HETATM   11  C   UNL     1     -11.547   9.711  71.125  1.00  0.00    -0.381 C  
BRANCH  11  12
HETATM   12  C   UNL     1     -12.649  10.530  70.441  1.00  0.00    -0.286 C  
BRANCH  12  13
HETATM   13  N   UNL     1     -12.368  10.940  69.056  1.00  0.00    -0.731 NA 
HETATM   14  H   UNL     1     -13.242  11.058  68.543  1.00  0.00     0.000 HD 
BRANCH  13  15
HETATM   15  C   UNL     1     -11.528  12.144  68.906  1.00  0.00    -0.297 C  
HETATM   16  C   UNL     1     -12.059  13.189  69.900  1.00  0.00    -0.357 C  
BRANCH  15  17
HETATM   17  C   UNL     1     -11.500  12.709  67.458  1.00  0.00    -0.397 C  
BRANCH  17  18
HETATM   18  C   UNL     1     -10.674  13.973  67.365  1.00  0.00    -0.285 A  
HETATM   19  C   UNL     1      -9.283  13.900  67.489  1.00  0.00    -0.205 A  
HETATM   20  C   UNL     1      -8.525  15.069  67.639  1.00  0.00    -0.160 A  
HETATM   21  C   UNL     1      -9.131  16.329  67.552  1.00  0.00    -0.192 A  
HETATM   22  C   UNL     1     -11.280  15.227  67.263  1.00  0.00    -0.306 A  
HETATM   23  C   UNL     1     -10.511  16.394  67.334  1.00  0.00    -0.309 A  
BRANCH  20  24
HETATM   24  S   UNL     1      -6.803  14.973  68.068  1.00  0.00    -0.157 S  
HETATM   25  O   UNL     1      -6.686  15.170  69.493  1.00  0.00    -0.144 OA 
HETATM   26  N   UNL     1      -6.385  13.366  67.811  1.00  0.00    -0.151 N  
HETATM   27  O   UNL     1      -6.042  15.712  67.087  1.00  0.00    -0.323 OA 
HETATM   28  H1  UNL     1      -5.397  13.311  68.057  1.00  0.00     0.000 HD 
HETATM   29  H2  UNL     1      -6.986  12.611  67.481  1.00  0.00     0.000 HD 
ENDBRANCH  20  24
BRANCH  21  30
HETATM   30  O   UNL     1      -8.323  17.423  67.692  1.00  0.00    -0.207 OA 
HETATM   31  C   UNL     1      -8.857  18.570  68.339  1.00  0.00    -0.322 C  
ENDBRANCH  21  30
ENDBRANCH  17  18
ENDBRANCH  15  17
ENDBRANCH  13  15
ENDBRANCH  12  13
ENDBRANCH  11  12
ENDBRANCH  10  11
ENDBRANCH   9  10
ENDBRANCH   3   4
ENDBRANCH   2   3
TORSDOF 11
ENDMDL
MODEL      261
REMARK 921   NORMALIZED FREE ENERGY PREDICTED BY IDOCK:   -4.09 KCAL/MOL
REMARK 922        TOTAL FREE ENERGY PREDICTED BY IDOCK:   -7.96 KCAL/MOL
REMARK 923 INTER-LIGAND FREE ENERGY PREDICTED BY IDOCK:   -7.43 KCAL/MOL
REMARK 924 INTRA-LIGAND FREE ENERGY PREDICTED BY IDOCK:   -0.54 KCAL/MOL
REMARK 927      BINDING AFFINITY PREDICTED BY RF-SCORE:    0.00 PKD
ROOT
HETATM    1  C   UNL     1      -9.798  19.394  66.070  1.00  0.00    -0.383 C  
HETATM    2  C   UNL     1     -10.481  18.144  66.602  1.00  0.00    -0.339 C  
ENDROOT
BRANCH   2   3
HETATM    3  O   UNL     1      -9.997  17.069  65.806  1.00  0.00    -0.524 OA 
BRANCH   3   4
HETATM    4  C   UNL     1     -10.784  15.992  65.531  1.00  0.00    -0.361 A  
HETATM    5  C   UNL     1     -11.540  15.873  64.356  1.00  0.00    -0.234 A  
HETATM    6  C   UNL     1     -12.354  14.759  64.136  1.00  0.00    -0.259 A  
HETATM    7  C   UNL     1     -12.421  13.745  65.090  1.00  0.00    -0.483 A  
HETATM    8  C   UNL     1     -11.664  13.846  66.256  1.00  0.00    -0.402 A  
HETATM    9  C   UNL     1     -10.838  14.958  66.488  1.00  0.00    -0.322 A  
BRANCH   9  10
HETATM   10  O   UNL     1     -10.164  14.867  67.684  1.00  0.00    -0.234 OA 
BRANCH  10  11
HETATM   11  C   UNL     1      -8.836  14.346  67.670  1.00  0.00    -0.193 C  
BRANCH  11  12
HETATM   12  C   UNL     1      -8.841  12.903  68.192  1.00  0.00    -0.194 C  
BRANCH  12  13
HETATM   13  N   UNL     1     -10.029  12.513  68.967  1.00  0.00    -0.409 NA 
HETATM   14  H   UNL     1     -10.848  13.019  68.628  1.00  0.00     0.000 HD 
BRANCH  13  15
HETATM   15  C   UNL     1     -10.312  11.066  69.012  1.00  0.00    -0.209 C  
HETATM   16  C   UNL     1      -8.959  10.346  69.122  1.00  0.00    -0.188 C  
BRANCH  15  17
HETATM   17  C   UNL     1     -11.126  10.551  67.792  1.00  0.00    -0.382 C  
BRANCH  17  18
HETATM   18  C   UNL     1     -10.403   9.440  67.063  1.00  0.00    -0.322 A  
HETATM   19  C   UNL     1     -10.512   8.124  67.526  1.00  0.00    -0.326 A  
HETATM   20  C   UNL     1      -9.675   7.124  67.016  1.00  0.00    -0.170 A  
HETATM   21  C   UNL     1      -8.798   7.399  65.958  1.00  0.00    -0.146 A  
HETATM   22  C   UNL     1      -9.541   9.714  65.999  1.00  0.00    -0.305 A  
HETATM   23  C   UNL     1      -8.762   8.697  65.438  1.00  0.00    -0.208 A  
BRANCH  20  24
HETATM   24  S   UNL     1      -9.618   5.523  67.783  1.00  0.00    -0.129 S  
HETATM   25  O   UNL     1      -8.330   5.378  68.420  1.00  0.00    -0.094 OA 
HETATM   26  N   UNL     1     -10.725   5.612  69.045  1.00  0.00    -0.263 N  
HETATM   27  O   UNL     1     -10.179   4.554  66.871  1.00  0.00    -0.201 OA 
HETATM   28  H1  UNL     1     -10.692   4.693  69.486  1.00  0.00     0.000 HD 
HETATM   29  H2  UNL     1     -11.302   6.409  69.312  1.00  0.00     0.000 HD 
ENDBRANCH  20  24
BRANCH  21  30
HETATM   30  O   UNL     1      -8.025   6.367  65.503  1.00  0.00    -0.103 OA 
HETATM   31  C   UNL     1      -6.620   6.570  65.421  1.00  0.00    -0.043 C  
ENDBRANCH  21  30
ENDBRANCH  17  18
ENDBRANCH  15  17
ENDBRANCH  13  15
ENDBRANCH  12  13
ENDBRANCH  11  12
ENDBRANCH  10  11
ENDBRANCH   9  10
ENDBRANCH   3   4
ENDBRANCH   2   3
TORSDOF 11
ENDMDL
MODEL      262
REMARK 921   NORMALIZED FREE ENERGY PREDICTED BY IDOCK:   -4.07 KCAL/MOL
REMARK 922        TOTAL FREE ENERGY PREDICTED BY IDOCK:   -7.93 KCAL/MOL
REMARK 923 INTER-LIGAND FREE ENERGY PREDICTED BY IDOCK:   -7.32 KCAL/MOL
REMARK 924 INTRA-LIGAND FREE ENERGY PREDICTED BY IDOCK:   -0.61 KCAL/MOL
REMARK 927      BINDING AFFINITY PREDICTED BY RF-SCORE:    0.00 PKD
ROOT
HETATM    1  C   UNL     1      -8.756   9.098  70.767  1.00  0.00    -0.285 C  
HETATM    2  C   UNL     1      -7.969   8.414  71.874  1.00  0.00    -0.136 C  
ENDROOT
BRANCH   2   3
HETATM    3  O   UNL     1      -8.919   8.088  72.881  1.00  0.00    -0.188 OA 
BRANCH   3   4
HETATM    4  C   UNL     1      -9.510   6.862  72.916  1.00  0.00    -0.140 A  
HETATM    5  C   UNL     1      -8.787   5.661  72.946  1.00  0.00    -0.124 A  
HETATM    6  C   UNL     1      -9.443   4.428  72.953  1.00  0.00    -0.155 A  
HETATM    7  C   UNL     1     -10.836   4.379  72.932  1.00  0.00    -0.257 A  
HETATM    8  C   UNL     1     -11.566   5.566  72.915  1.00  0.00    -0.280 A  
HETATM    9  C   UNL     1     -10.920   6.813  72.913  1.00  0.00    -0.263 A  
BRANCH   9  10
HETATM   10  O   UNL     1     -11.810   7.862  72.909  1.00  0.00    -0.307 OA 
BRANCH  10  11
HETATM   11  C   UNL     1     -12.393   8.244  71.664  1.00  0.00    -0.315 C  
BRANCH  11  12
HETATM   12  C   UNL     1     -12.874   9.699  71.743  1.00  0.00    -0.421 C  
BRANCH  12  13
HETATM   13  N   UNL     1     -12.966  10.407  70.456  1.00  0.00    -0.507 NA 
HETATM   14  H   UNL     1     -13.797  10.999  70.443  1.00  0.00     0.000 HD 
BRANCH  13  15
HETATM   15  C   UNL     1     -11.778  11.196  70.078  1.00  0.00    -0.356 C  
HETATM   16  C   UNL     1     -12.240  12.651  69.906  1.00  0.00    -0.238 C  
BRANCH  15  17
HETATM   17  C   UNL     1     -11.066  10.676  68.796  1.00  0.00    -0.316 C  
BRANCH  17  18
HETATM   18  C   UNL     1     -10.683  11.808  67.869  1.00  0.00    -0.241 A  
HETATM   19  C   UNL     1      -9.595  12.626  68.191  1.00  0.00    -0.219 A  
HETATM   20  C   UNL     1      -9.366  13.810  67.478  1.00  0.00    -0.222 A  
HETATM   21  C   UNL     1     -10.151  14.135  66.364  1.00  0.00    -0.293 A  
HETATM   22  C   UNL     1     -11.457  12.121  66.751  1.00  0.00    -0.418 A  
HETATM   23  C   UNL     1     -11.179  13.264  65.992  1.00  0.00    -0.316 A  
BRANCH  20  24
HETATM   24  S   UNL     1      -8.160  14.983  68.050  1.00  0.00    -0.138 S  
HETATM   25  O   UNL     1      -7.129  15.090  67.044  1.00  0.00    -0.184 OA 
HETATM   26  N   UNL     1      -8.954  16.464  68.023  1.00  0.00    -0.184 N  
HETATM   27  O   UNL     1      -7.899  14.732  69.448  1.00  0.00    -0.152 OA 
HETATM   28  H1  UNL     1      -8.262  17.137  68.351  1.00  0.00     0.000 HD 
HETATM   29  H2  UNL     1      -9.917  16.649  67.741  1.00  0.00     0.000 HD 
ENDBRANCH  20  24
BRANCH  21  30
HETATM   30  O   UNL     1      -9.856  15.299  65.710  1.00  0.00    -0.319 OA 
HETATM   31  C   UNL     1     -10.925  16.017  65.108  1.00  0.00    -0.348 C  
ENDBRANCH  21  30
ENDBRANCH  17  18
ENDBRANCH  15  17
ENDBRANCH  13  15
ENDBRANCH  12  13
ENDBRANCH  11  12
ENDBRANCH  10  11
ENDBRANCH   9  10
ENDBRANCH   3   4
ENDBRANCH   2   3
TORSDOF 11
ENDMDL
MODEL      263
REMARK 921   NORMALIZED FREE ENERGY PREDICTED BY IDOCK:   -4.07 KCAL/MOL
REMARK 922        TOTAL FREE ENERGY PREDICTED BY IDOCK:   -7.93 KCAL/MOL
REMARK 923 INTER-LIGAND FREE ENERGY PREDICTED BY IDOCK:   -7.55 KCAL/MOL
REMARK 924 INTRA-LIGAND FREE ENERGY PREDICTED BY IDOCK:   -0.38 KCAL/MOL
REMARK 927      BINDING AFFINITY PREDICTED BY RF-SCORE:    0.00 PKD
ROOT
HETATM    1  C   UNL     1      -7.580   9.493  62.499  1.00  0.00    -0.112 C  
HETATM    2  C   UNL     1      -8.620  10.047  63.460  1.00  0.00    -0.208 C  
ENDROOT
BRANCH   2   3
HETATM    3  O   UNL     1      -8.548   9.232  64.623  1.00  0.00    -0.168 OA 
BRANCH   3   4
HETATM    4  C   UNL     1      -7.572   9.425  65.553  1.00  0.00    -0.099 A  
HETATM    5  C   UNL     1      -6.463   8.578  65.691  1.00  0.00    -0.056 A  
HETATM    6  C   UNL     1      -5.504   8.807  66.681  1.00  0.00    -0.039 A  
HETATM    7  C   UNL     1      -5.641   9.890  67.547  1.00  0.00    -0.039 A  
HETATM    8  C   UNL     1      -6.732  10.747  67.412  1.00  0.00    -0.076 A  
HETATM    9  C   UNL     1      -7.701  10.532  66.418  1.00  0.00    -0.135 A  
BRANCH   9  10
HETATM   10  O   UNL     1      -8.689  11.489  66.437  1.00  0.00    -0.184 OA 
BRANCH  10  11
HETATM   11  C   UNL     1      -9.818  11.274  67.282  1.00  0.00    -0.182 C  
BRANCH  11  12
HETATM   12  C   UNL     1     -11.108  11.376  66.458  1.00  0.00    -0.251 C  
BRANCH  12  13
HETATM   13  N   UNL     1     -10.983  12.071  65.167  1.00  0.00    -0.302 NA 
HETATM   14  H   UNL     1     -10.669  11.419  64.448  1.00  0.00     0.000 HD 
BRANCH  13  15
HETATM   15  C   UNL     1     -12.190  12.785  64.708  1.00  0.00    -0.459 C  
HETATM   16  C   UNL     1     -12.752  11.998  63.514  1.00  0.00    -0.567 C  
BRANCH  15  17
HETATM   17  C   UNL     1     -11.930  14.271  64.331  1.00  0.00    -0.476 C  
BRANCH  17  18
HETATM   18  C   UNL     1     -11.327  15.046  65.481  1.00  0.00    -0.312 A  
HETATM   19  C   UNL     1     -11.534  14.607  66.793  1.00  0.00    -0.371 A  
HETATM   20  C   UNL     1     -11.187  15.427  67.875  1.00  0.00    -0.329 A  
HETATM   21  C   UNL     1     -10.525  16.644  67.665  1.00  0.00    -0.320 A  
HETATM   22  C   UNL     1     -10.654  16.250  65.268  1.00  0.00    -0.357 A  
HETATM   23  C   UNL     1     -10.238  17.031  66.352  1.00  0.00    -0.330 A  
BRANCH  20  24
HETATM   24  S   UNL     1     -11.692  14.999  69.524  1.00  0.00    -0.342 S  
HETATM   25  O   UNL     1     -10.620  15.349  70.425  1.00  0.00    -0.306 OA 
HETATM   26  N   UNL     1     -12.936  16.071  69.884  1.00  0.00    -0.517 N  
HETATM   27  O   UNL     1     -12.325  13.701  69.490  1.00  0.00    -0.294 OA 
HETATM   28  H1  UNL     1     -13.226  15.825  70.830  1.00  0.00     0.000 HD 
HETATM   29  H2  UNL     1     -13.317  16.805  69.288  1.00  0.00     0.000 HD 
ENDBRANCH  20  24
BRANCH  21  30
HETATM   30  O   UNL     1     -10.205  17.380  68.771  1.00  0.00    -0.327 OA 
HETATM   31  C   UNL     1     -10.034  18.783  68.614  1.00  0.00    -0.394 C  
ENDBRANCH  21  30
ENDBRANCH  17  18
ENDBRANCH  15  17
ENDBRANCH  13  15
ENDBRANCH  12  13
ENDBRANCH  11  12
ENDBRANCH  10  11
ENDBRANCH   9  10
ENDBRANCH   3   4
ENDBRANCH   2   3
TORSDOF 11
ENDMDL
MODEL      264
REMARK 921   NORMALIZED FREE ENERGY PREDICTED BY IDOCK:   -4.06 KCAL/MOL
REMARK 922        TOTAL FREE ENERGY PREDICTED BY IDOCK:   -7.92 KCAL/MOL
REMARK 923 INTER-LIGAND FREE ENERGY PREDICTED BY IDOCK:   -7.62 KCAL/MOL
REMARK 924 INTRA-LIGAND FREE ENERGY PREDICTED BY IDOCK:   -0.30 KCAL/MOL
REMARK 927      BINDING AFFINITY PREDICTED BY RF-SCORE:    0.00 PKD
ROOT
HETATM    1  C   UNL     1     -10.653   9.217  67.585  1.00  0.00    -0.307 C  
HETATM    2  C   UNL     1     -10.036  10.606  67.631  1.00  0.00    -0.169 C  
ENDROOT
BRANCH   2   3
HETATM    3  O   UNL     1      -8.884  10.547  66.798  1.00  0.00    -0.130 OA 
BRANCH   3   4
HETATM    4  C   UNL     1      -9.000  10.330  65.459  1.00  0.00    -0.173 A  
HETATM    5  C   UNL     1      -8.330   9.298  64.787  1.00  0.00    -0.167 A  
HETATM    6  C   UNL     1      -8.463   9.136  63.405  1.00  0.00    -0.195 A  
HETATM    7  C   UNL     1      -9.271  10.006  62.676  1.00  0.00    -0.317 A  
HETATM    8  C   UNL     1      -9.952  11.028  63.335  1.00  0.00    -0.428 A  
HETATM    9  C   UNL     1      -9.832  11.199  64.724  1.00  0.00    -0.277 A  
BRANCH   9  10
HETATM   10  O   UNL     1     -10.590  12.250  65.188  1.00  0.00    -0.268 OA 
BRANCH  10  11
HETATM   11  C   UNL     1     -10.868  13.325  64.292  1.00  0.00    -0.392 C  
BRANCH  11  12
HETATM   12  C   UNL     1     -10.666  14.664  65.013  1.00  0.00    -0.430 C  
BRANCH  12  13
HETATM   13  N   UNL     1      -9.512  14.727  65.924  1.00  0.00    -0.477 NA 
HETATM   14  H   UNL     1      -9.071  15.645  65.866  1.00  0.00     0.000 HD 
BRANCH  13  15
HETATM   15  C   UNL     1      -9.793  14.389  67.332  1.00  0.00    -0.224 C  
HETATM   16  C   UNL     1     -11.172  14.979  67.669  1.00  0.00    -0.331 C  
BRANCH  15  17
HETATM   17  C   UNL     1      -8.707  14.895  68.324  1.00  0.00    -0.166 C  
BRANCH  17  18
HETATM   18  C   UNL     1      -7.994  16.121  67.798  1.00  0.00    -0.155 A  
HETATM   19  C   UNL     1      -8.605  17.375  67.905  1.00  0.00    -0.232 A  
HETATM   20  C   UNL     1      -8.076  18.479  67.225  1.00  0.00    -0.241 A  
HETATM   21  C   UNL     1      -6.868  18.372  66.523  1.00  0.00    -0.208 A  
HETATM   22  C   UNL     1      -6.783  16.014  67.113  1.00  0.00    -0.205 A  
HETATM   23  C   UNL     1      -6.214  17.136  66.498  1.00  0.00    -0.248 A  
BRANCH  20  24
HETATM   24  S   UNL     1      -8.989  20.000  67.134  1.00  0.00    -0.361 S  
HETATM   25  O   UNL     1      -9.732  20.002  65.896  1.00  0.00    -0.411 OA 
HETATM   26  N   UNL     1     -10.151  19.876  68.342  1.00  0.00    -0.444 N  
HETATM   27  O   UNL     1      -8.130  21.080  67.561  1.00  0.00    -0.200 OA 
HETATM   28  H1  UNL     1     -10.675  20.749  68.290  1.00  0.00     0.000 HD 
HETATM   29  H2  UNL     1     -10.299  19.099  68.986  1.00  0.00     0.000 HD 
ENDBRANCH  20  24
BRANCH  21  30
HETATM   30  O   UNL     1      -6.406  19.497  65.898  1.00  0.00    -0.189 OA 
HETATM   31  C   UNL     1      -5.962  19.381  64.553  1.00  0.00    -0.273 C  
ENDBRANCH  21  30
ENDBRANCH  17  18
ENDBRANCH  15  17
ENDBRANCH  13  15
ENDBRANCH  12  13
ENDBRANCH  11  12
ENDBRANCH  10  11
ENDBRANCH   9  10
ENDBRANCH   3   4
ENDBRANCH   2   3
TORSDOF 11
ENDMDL
MODEL      265
REMARK 921   NORMALIZED FREE ENERGY PREDICTED BY IDOCK:   -4.05 KCAL/MOL
REMARK 922        TOTAL FREE ENERGY PREDICTED BY IDOCK:   -7.90 KCAL/MOL
REMARK 923 INTER-LIGAND FREE ENERGY PREDICTED BY IDOCK:   -6.09 KCAL/MOL
REMARK 924 INTRA-LIGAND FREE ENERGY PREDICTED BY IDOCK:   -1.81 KCAL/MOL
REMARK 927      BINDING AFFINITY PREDICTED BY RF-SCORE:    0.00 PKD
ROOT
HETATM    1  C   UNL     1      -9.873   5.576  66.535  1.00  0.00    -0.194 C  
HETATM    2  C   UNL     1      -8.857   6.213  65.600  1.00  0.00    -0.092 C  
ENDROOT
BRANCH   2   3
HETATM    3  O   UNL     1      -8.549   7.481  66.167  1.00  0.00    -0.135 OA 
BRANCH   3   4
HETATM    4  C   UNL     1      -9.150   8.615  65.712  1.00  0.00    -0.187 A  
HETATM    5  C   UNL     1      -8.890   9.170  64.450  1.00  0.00    -0.156 A  
HETATM    6  C   UNL     1      -9.514  10.352  64.044  1.00  0.00    -0.351 A  
HETATM    7  C   UNL     1     -10.410  10.995  64.894  1.00  0.00    -0.378 A  
HETATM    8  C   UNL     1     -10.687  10.446  66.146  1.00  0.00    -0.076 A  
HETATM    9  C   UNL     1     -10.071   9.257  66.566  1.00  0.00    -0.273 A  
BRANCH   9  10
HETATM   10  O   UNL     1     -10.482   8.871  67.821  1.00  0.00    -0.237 OA 
BRANCH  10  11
HETATM   11  C   UNL     1      -9.569   9.029  68.905  1.00  0.00    -0.156 C  
BRANCH  11  12
HETATM   12  C   UNL     1      -9.687  10.448  69.477  1.00  0.00    -0.170 C  
BRANCH  12  13
HETATM   13  N   UNL     1      -8.476  11.278  69.370  1.00  0.00    -0.349 NA 
HETATM   14  H   UNL     1      -8.105  11.476  70.299  1.00  0.00     0.000 HD 
BRANCH  13  15
HETATM   15  C   UNL     1      -7.410  10.738  68.505  1.00  0.00    -0.096 C  
HETATM   16  C   UNL     1      -6.118  10.728  69.338  1.00  0.00    -0.053 C  
BRANCH  15  17
HETATM   17  C   UNL     1      -7.219  11.531  67.181  1.00  0.00    -0.140 C  
BRANCH  17  18
HETATM   18  C   UNL     1      -7.454  13.012  67.374  1.00  0.00    -0.136 A  
HETATM   19  C   UNL     1      -8.717  13.551  67.107  1.00  0.00    -0.222 A  
HETATM   20  C   UNL     1      -8.895  14.940  67.054  1.00  0.00    -0.232 A  
HETATM   21  C   UNL     1      -7.844  15.807  67.379  1.00  0.00    -0.175 A  
HETATM   22  C   UNL     1      -6.408  13.872  67.713  1.00  0.00    -0.169 A  
HETATM   23  C   UNL     1      -6.608  15.257  67.736  1.00  0.00    -0.182 A  
BRANCH  20  24
HETATM   24  S   UNL     1     -10.419  15.627  66.453  1.00  0.00    -0.311 S  
HETATM   25  O   UNL     1     -11.418  14.584  66.471  1.00  0.00    -0.345 OA 
HETATM   26  N   UNL     1     -10.899  16.715  67.641  1.00  0.00    -0.300 N  
HETATM   27  O   UNL     1     -10.132  16.448  65.299  1.00  0.00    -0.545 OA 
HETATM   28  H1  UNL     1     -11.773  17.109  67.296  1.00  0.00     0.000 HD 
HETATM   29  H2  UNL     1     -10.421  16.932  68.515  1.00  0.00     0.000 HD 
ENDBRANCH  20  24
BRANCH  21  30
HETATM   30  O   UNL     1      -8.099  17.149  67.320  1.00  0.00    -0.179 OA 
HETATM   31  C   UNL     1      -7.348  18.010  68.165  1.00  0.00    -0.250 C  
ENDBRANCH  21  30
ENDBRANCH  17  18
ENDBRANCH  15  17
ENDBRANCH  13  15
ENDBRANCH  12  13
ENDBRANCH  11  12
ENDBRANCH  10  11
ENDBRANCH   9  10
ENDBRANCH   3   4
ENDBRANCH   2   3
TORSDOF 11
ENDMDL
MODEL      266
REMARK 921   NORMALIZED FREE ENERGY PREDICTED BY IDOCK:   -4.05 KCAL/MOL
REMARK 922        TOTAL FREE ENERGY PREDICTED BY IDOCK:   -7.89 KCAL/MOL
REMARK 923 INTER-LIGAND FREE ENERGY PREDICTED BY IDOCK:   -8.15 KCAL/MOL
REMARK 924 INTRA-LIGAND FREE ENERGY PREDICTED BY IDOCK:    0.26 KCAL/MOL
REMARK 927      BINDING AFFINITY PREDICTED BY RF-SCORE:    0.00 PKD
ROOT
HETATM    1  C   UNL     1      -9.947  19.678  68.914  1.00  0.00    -0.524 C  
HETATM    2  C   UNL     1      -9.902  20.384  67.568  1.00  0.00    -0.424 C  
ENDROOT
BRANCH   2   3
HETATM    3  O   UNL     1      -9.598  19.375  66.611  1.00  0.00    -0.316 OA 
BRANCH   3   4
HETATM    4  C   UNL     1      -8.308  19.082  66.290  1.00  0.00    -0.283 A  
HETATM    5  C   UNL     1      -7.471  19.963  65.590  1.00  0.00    -0.285 A  
HETATM    6  C   UNL     1      -6.162  19.601  65.262  1.00  0.00    -0.282 A  
HETATM    7  C   UNL     1      -5.671  18.350  65.631  1.00  0.00    -0.241 A  
HETATM    8  C   UNL     1      -6.489  17.471  66.338  1.00  0.00    -0.283 A  
HETATM    9  C   UNL     1      -7.805  17.823  66.680  1.00  0.00    -0.244 A  
BRANCH   9  10
HETATM   10  O   UNL     1      -8.445  16.831  67.386  1.00  0.00    -0.184 OA 
BRANCH  10  11
HETATM   11  C   UNL     1      -8.525  15.533  66.798  1.00  0.00    -0.279 C  
BRANCH  11  12
HETATM   12  C   UNL     1      -9.988  15.201  66.477  1.00  0.00    -0.266 C  
BRANCH  12  13
HETATM   13  N   UNL     1     -10.514  13.979  67.104  1.00  0.00    -0.269 NA 
HETATM   14  H   UNL     1     -11.494  14.111  67.359  1.00  0.00     0.000 HD 
BRANCH  13  15
HETATM   15  C   UNL     1     -10.360  12.742  66.316  1.00  0.00    -0.258 C  
HETATM   16  C   UNL     1     -11.772  12.282  65.918  1.00  0.00    -0.451 C  
BRANCH  15  17
HETATM   17  C   UNL     1      -9.593  11.615  67.065  1.00  0.00    -0.196 C  
BRANCH  17  18
HETATM   18  C   UNL     1     -10.232  11.291  68.397  1.00  0.00    -0.205 A  
HETATM   19  C   UNL     1      -9.874  10.116  69.067  1.00  0.00    -0.211 A  
HETATM   20  C   UNL     1     -10.613   9.681  70.174  1.00  0.00    -0.272 A  
HETATM   21  C   UNL     1     -11.647  10.470  70.697  1.00  0.00    -0.352 A  
HETATM   22  C   UNL     1     -11.251  12.087  68.923  1.00  0.00    -0.315 A  
HETATM   23  C   UNL     1     -11.937  11.689  70.076  1.00  0.00    -0.429 A  
BRANCH  20  24
HETATM   24  S   UNL     1     -10.338   8.065  70.859  1.00  0.00    -0.202 S  
HETATM   25  O   UNL     1      -9.062   7.588  70.381  1.00  0.00    -0.152 OA 
HETATM   26  N   UNL     1     -10.120   8.327  72.505  1.00  0.00    -0.298 N  
HETATM   27  O   UNL     1     -11.566   7.310  70.767  1.00  0.00    -0.290 OA 
HETATM   28  H1  UNL     1      -9.962   7.400  72.898  1.00  0.00     0.000 HD 
HETATM   29  H2  UNL     1     -10.141   9.217  73.002  1.00  0.00     0.000 HD 
ENDBRANCH  20  24
BRANCH  21  30
HETATM   30  O   UNL     1     -12.311   9.986  71.789  1.00  0.00    -0.390 OA 
HETATM   31  C   UNL     1     -13.697   9.698  71.655  1.00  0.00    -0.253 C  
ENDBRANCH  21  30
ENDBRANCH  17  18
ENDBRANCH  15  17
ENDBRANCH  13  15
ENDBRANCH  12  13
ENDBRANCH  11  12
ENDBRANCH  10  11
ENDBRANCH   9  10
ENDBRANCH   3   4
ENDBRANCH   2   3
TORSDOF 11
ENDMDL
MODEL      267
REMARK 921   NORMALIZED FREE ENERGY PREDICTED BY IDOCK:   -4.04 KCAL/MOL
REMARK 922        TOTAL FREE ENERGY PREDICTED BY IDOCK:   -7.88 KCAL/MOL
REMARK 923 INTER-LIGAND FREE ENERGY PREDICTED BY IDOCK:   -7.09 KCAL/MOL
REMARK 924 INTRA-LIGAND FREE ENERGY PREDICTED BY IDOCK:   -0.79 KCAL/MOL
REMARK 927      BINDING AFFINITY PREDICTED BY RF-SCORE:    0.00 PKD
ROOT
HETATM    1  C   UNL     1     -10.793   7.258  67.152  1.00  0.00    -0.378 C  
HETATM    2  C   UNL     1      -9.473   6.512  67.284  1.00  0.00    -0.125 C  
ENDROOT
BRANCH   2   3
HETATM    3  O   UNL     1      -9.402   6.088  68.640  1.00  0.00    -0.118 OA 
BRANCH   3   4
HETATM    4  C   UNL     1     -10.108   6.729  69.612  1.00  0.00    -0.183 A  
HETATM    5  C   UNL     1     -11.358   6.289  70.070  1.00  0.00    -0.486 A  
HETATM    6  C   UNL     1     -12.054   7.000  71.051  1.00  0.00    -0.413 A  
HETATM    7  C   UNL     1     -11.506   8.163  71.589  1.00  0.00    -0.323 A  
HETATM    8  C   UNL     1     -10.259   8.603  71.151  1.00  0.00    -0.294 A  
HETATM    9  C   UNL     1      -9.546   7.896  70.170  1.00  0.00    -0.175 A  
BRANCH   9  10
HETATM   10  O   UNL     1      -8.334   8.480  69.883  1.00  0.00    -0.117 OA 
BRANCH  10  11
HETATM   11  C   UNL     1      -8.224   9.897  70.008  1.00  0.00    -0.168 C  
BRANCH  11  12
HETATM   12  C   UNL     1      -6.744  10.303  70.009  1.00  0.00    -0.137 C  
BRANCH  12  13
HETATM   13  N   UNL     1      -6.111  10.393  68.683  1.00  0.00    -0.044 NA 
HETATM   14  H   UNL     1      -6.221   9.510  68.184  1.00  0.00     0.000 HD 
BRANCH  13  15
HETATM   15  C   UNL     1      -6.563  11.512  67.836  1.00  0.00    -0.064 C  
HETATM   16  C   UNL     1      -5.615  11.574  66.628  1.00  0.00    -0.140 C  
BRANCH  15  17
HETATM   17  C   UNL     1      -6.615  12.877  68.580  1.00  0.00    -0.091 C  
BRANCH  17  18
HETATM   18  C   UNL     1      -7.548  13.853  67.899  1.00  0.00    -0.158 A  
HETATM   19  C   UNL     1      -8.801  13.415  67.456  1.00  0.00    -0.210 A  
HETATM   20  C   UNL     1      -9.580  14.230  66.624  1.00  0.00    -0.289 A  
HETATM   21  C   UNL     1      -9.172  15.534  66.317  1.00  0.00    -0.329 A  
HETATM   22  C   UNL     1      -7.145  15.157  67.608  1.00  0.00    -0.210 A  
HETATM   23  C   UNL     1      -7.960  15.997  66.842  1.00  0.00    -0.283 A  
BRANCH  20  24
HETATM   24  S   UNL     1     -11.037  13.581  65.841  1.00  0.00    -0.285 S  
HETATM   25  O   UNL     1     -12.168  14.362  66.283  1.00  0.00    -0.412 OA 
HETATM   26  N   UNL     1     -10.853  13.956  64.213  1.00  0.00    -0.591 N  
HETATM   27  O   UNL     1     -10.984  12.138  65.893  1.00  0.00    -0.271 OA 
HETATM   28  H1  UNL     1     -11.689  13.584  63.764  1.00  0.00     0.000 HD 
HETATM   29  H2  UNL     1     -10.076  14.448  63.771  1.00  0.00     0.000 HD 
ENDBRANCH  20  24
BRANCH  21  30
HETATM   30  O   UNL     1      -9.993  16.274  65.513  1.00  0.00    -0.491 OA 
HETATM   31  C   UNL     1     -10.406  17.553  65.975  1.00  0.00    -0.306 C  
ENDBRANCH  21  30
ENDBRANCH  17  18
ENDBRANCH  15  17
ENDBRANCH  13  15
ENDBRANCH  12  13
ENDBRANCH  11  12
ENDBRANCH  10  11
ENDBRANCH   9  10
ENDBRANCH   3   4
ENDBRANCH   2   3
TORSDOF 11
ENDMDL
MODEL      268
REMARK 921   NORMALIZED FREE ENERGY PREDICTED BY IDOCK:   -4.04 KCAL/MOL
REMARK 922        TOTAL FREE ENERGY PREDICTED BY IDOCK:   -7.88 KCAL/MOL
REMARK 923 INTER-LIGAND FREE ENERGY PREDICTED BY IDOCK:   -6.52 KCAL/MOL
REMARK 924 INTRA-LIGAND FREE ENERGY PREDICTED BY IDOCK:   -1.36 KCAL/MOL
REMARK 927      BINDING AFFINITY PREDICTED BY RF-SCORE:    0.00 PKD
ROOT
HETATM    1  C   UNL     1      -7.382   9.396  64.860  1.00  0.00    -0.106 C  
HETATM    2  C   UNL     1      -8.793   9.853  65.197  1.00  0.00    -0.180 C  
ENDROOT
BRANCH   2   3
HETATM    3  O   UNL     1      -8.805  11.260  64.988  1.00  0.00    -0.086 OA 
BRANCH   3   4
HETATM    4  C   UNL     1      -9.966  11.916  64.710  1.00  0.00    -0.235 A  
HETATM    5  C   UNL     1     -10.995  11.362  63.937  1.00  0.00    -0.442 A  
HETATM    6  C   UNL     1     -12.156  12.090  63.659  1.00  0.00    -0.627 A  
HETATM    7  C   UNL     1     -12.302  13.384  64.154  1.00  0.00    -0.395 A  
HETATM    8  C   UNL     1     -11.290  13.941  64.935  1.00  0.00    -0.349 A  
HETATM    9  C   UNL     1     -10.122  13.219  65.227  1.00  0.00    -0.239 A  
BRANCH   9  10
HETATM   10  O   UNL     1      -9.252  13.932  66.020  1.00  0.00    -0.101 OA 
BRANCH  10  11
HETATM   11  C   UNL     1      -9.171  13.592  67.403  1.00  0.00    -0.222 C  
BRANCH  11  12
HETATM   12  C   UNL     1      -7.711  13.309  67.781  1.00  0.00    -0.159 C  
BRANCH  12  13
HETATM   13  N   UNL     1      -7.512  12.615  69.063  1.00  0.00    -0.313 NA 
HETATM   14  H   UNL     1      -8.414  12.413  69.495  1.00  0.00     0.000 HD 
BRANCH  13  15
HETATM   15  C   UNL     1      -6.695  11.387  69.002  1.00  0.00    -0.092 C  
HETATM   16  C   UNL     1      -5.484  11.697  68.108  1.00  0.00    -0.043 C  
BRANCH  15  17
HETATM   17  C   UNL     1      -7.474  10.145  68.483  1.00  0.00    -0.086 C  
BRANCH  17  18
HETATM   18  C   UNL     1      -8.660   9.818  69.363  1.00  0.00    -0.168 A  
HETATM   19  C   UNL     1      -9.892  10.435  69.119  1.00  0.00    -0.237 A  
HETATM   20  C   UNL     1     -10.932  10.329  70.052  1.00  0.00    -0.311 A  
HETATM   21  C   UNL     1     -10.796   9.513  71.183  1.00  0.00    -0.355 A  
HETATM   22  C   UNL     1      -8.526   8.993  70.481  1.00  0.00    -0.226 A  
HETATM   23  C   UNL     1      -9.593   8.825  71.371  1.00  0.00    -0.337 A  
BRANCH  20  24
HETATM   24  S   UNL     1     -12.394  11.325  69.883  1.00  0.00    -0.188 S  
HETATM   25  O   UNL     1     -13.527  10.438  69.761  1.00  0.00     0.210 OA 
HETATM   26  N   UNL     1     -12.579  12.072  71.378  1.00  0.00    -0.285 N  
HETATM   27  O   UNL     1     -12.113  12.405  68.966  1.00  0.00    -0.259 OA 
HETATM   28  H1  UNL     1     -13.418  12.643  71.281  1.00  0.00     0.000 HD 
HETATM   29  H2  UNL     1     -11.984  11.975  72.200  1.00  0.00     0.000 HD 
ENDBRANCH  20  24
BRANCH  21  30
HETATM   30  O   UNL     1     -11.860   9.448  72.038  1.00  0.00    -0.355 OA 
HETATM   31  C   UNL     1     -12.587   8.228  72.109  1.00  0.00    -0.337 C  
ENDBRANCH  21  30
ENDBRANCH  17  18
ENDBRANCH  15  17
ENDBRANCH  13  15
ENDBRANCH  12  13
ENDBRANCH  11  12
ENDBRANCH  10  11
ENDBRANCH   9  10
ENDBRANCH   3   4
ENDBRANCH   2   3
TORSDOF 11
ENDMDL
MODEL      269
REMARK 921   NORMALIZED FREE ENERGY PREDICTED BY IDOCK:   -4.01 KCAL/MOL
REMARK 922        TOTAL FREE ENERGY PREDICTED BY IDOCK:   -7.84 KCAL/MOL
REMARK 923 INTER-LIGAND FREE ENERGY PREDICTED BY IDOCK:   -7.24 KCAL/MOL
REMARK 924 INTRA-LIGAND FREE ENERGY PREDICTED BY IDOCK:   -0.60 KCAL/MOL
REMARK 927      BINDING AFFINITY PREDICTED BY RF-SCORE:    0.00 PKD
ROOT
HETATM    1  C   UNL     1      -7.024  12.693  68.712  1.00  0.00    -0.096 C  
HETATM    2  C   UNL     1      -7.284  13.806  67.709  1.00  0.00    -0.163 C  
ENDROOT
BRANCH   2   3
HETATM    3  O   UNL     1      -8.665  13.717  67.380  1.00  0.00    -0.190 OA 
BRANCH   3   4
HETATM    4  C   UNL     1      -9.601  14.396  68.100  1.00  0.00    -0.218 A  
HETATM    5  C   UNL     1      -9.300  15.516  68.887  1.00  0.00    -0.222 A  
HETATM    6  C   UNL     1     -10.295  16.160  69.629  1.00  0.00    -0.271 A  
HETATM    7  C   UNL     1     -11.606  15.691  69.591  1.00  0.00    -0.364 A  
HETATM    8  C   UNL     1     -11.920  14.586  68.802  1.00  0.00    -0.315 A  
HETATM    9  C   UNL     1     -10.932  13.932  68.048  1.00  0.00    -0.251 A  
BRANCH   9  10
HETATM   10  O   UNL     1     -11.439  12.876  67.327  1.00  0.00    -0.298 OA 
BRANCH  10  11
HETATM   11  C   UNL     1     -11.423  11.582  67.929  1.00  0.00    -0.301 C  
BRANCH  11  12
HETATM   12  C   UNL     1     -11.841  11.692  69.401  1.00  0.00    -0.342 C  
BRANCH  12  13
HETATM   13  N   UNL     1     -12.577  10.537  69.939  1.00  0.00    -0.535 NA 
HETATM   14  H   UNL     1     -11.942   9.749  70.069  1.00  0.00     0.000 HD 
BRANCH  13  15
HETATM   15  C   UNL     1     -13.332  10.786  71.182  1.00  0.00    -0.026 C  
HETATM   16  C   UNL     1     -13.123  12.265  71.546  1.00  0.00    -0.356 C  
BRANCH  15  17
HETATM   17  C   UNL     1     -12.924   9.854  72.358  1.00  0.00    -0.263 C  
BRANCH  17  18
HETATM   18  C   UNL     1     -12.073   8.696  71.887  1.00  0.00    -0.422 A  
HETATM   19  C   UNL     1     -10.681   8.828  71.861  1.00  0.00    -0.429 A  
HETATM   20  C   UNL     1      -9.892   7.866  71.217  1.00  0.00    -0.168 A  
HETATM   21  C   UNL     1     -10.472   6.704  70.690  1.00  0.00    -0.217 A  
HETATM   22  C   UNL     1     -12.653   7.533  71.377  1.00  0.00    -0.382 A  
HETATM   23  C   UNL     1     -11.856   6.536  70.803  1.00  0.00    -0.394 A  
BRANCH  20  24
HETATM   24  S   UNL     1      -8.161   8.160  70.944  1.00  0.00    -0.116 S  
HETATM   25  O   UNL     1      -7.419   7.118  71.613  1.00  0.00    -0.084 OA 
HETATM   26  N   UNL     1      -7.932   7.877  69.303  1.00  0.00    -0.115 N  
HETATM   27  O   UNL     1      -7.901   9.571  71.113  1.00  0.00    -0.326 OA 
HETATM   28  H1  UNL     1      -6.938   8.046  69.146  1.00  0.00     0.000 HD 
HETATM   29  H2  UNL     1      -8.631   7.598  68.615  1.00  0.00     0.000 HD 
ENDBRANCH  20  24
BRANCH  21  30
HETATM   30  O   UNL     1      -9.636   5.804  70.091  1.00  0.00    -0.158 OA 
HETATM   31  C   UNL     1      -9.786   4.429  70.420  1.00  0.00    -0.214 C  
ENDBRANCH  21  30
ENDBRANCH  17  18
ENDBRANCH  15  17
ENDBRANCH  13  15
ENDBRANCH  12  13
ENDBRANCH  11  12
ENDBRANCH  10  11
ENDBRANCH   9  10
ENDBRANCH   3   4
ENDBRANCH   2   3
TORSDOF 11
ENDMDL
MODEL      270
REMARK 921   NORMALIZED FREE ENERGY PREDICTED BY IDOCK:   -4.01 KCAL/MOL
REMARK 922        TOTAL FREE ENERGY PREDICTED BY IDOCK:   -7.83 KCAL/MOL
REMARK 923 INTER-LIGAND FREE ENERGY PREDICTED BY IDOCK:   -7.10 KCAL/MOL
REMARK 924 INTRA-LIGAND FREE ENERGY PREDICTED BY IDOCK:   -0.73 KCAL/MOL
REMARK 927      BINDING AFFINITY PREDICTED BY RF-SCORE:    0.00 PKD
ROOT
HETATM    1  C   UNL     1     -14.209  15.389  72.086  1.00  0.00    -0.660 C  
HETATM    2  C   UNL     1     -14.409  13.882  72.043  1.00  0.00    -0.388 C  
ENDROOT
BRANCH   2   3
HETATM    3  O   UNL     1     -13.104  13.316  72.089  1.00  0.00    -0.395 OA 
BRANCH   3   4
HETATM    4  C   UNL     1     -12.545  12.757  70.980  1.00  0.00    -0.271 A  
HETATM    5  C   UNL     1     -11.947  13.509  69.959  1.00  0.00    -0.410 A  
HETATM    6  C   UNL     1     -11.412  12.886  68.828  1.00  0.00    -0.345 A  
HETATM    7  C   UNL     1     -11.468  11.500  68.704  1.00  0.00    -0.354 A  
HETATM    8  C   UNL     1     -12.049  10.740  69.718  1.00  0.00    -0.389 A  
HETATM    9  C   UNL     1     -12.586  11.352  70.863  1.00  0.00    -0.356 A  
BRANCH   9  10
HETATM   10  O   UNL     1     -13.100  10.437  71.752  1.00  0.00    -0.420 OA 
BRANCH  10  11
HETATM   11  C   UNL     1     -14.154   9.585  71.305  1.00  0.00     0.081 C  
BRANCH  11  12
HETATM   12  C   UNL     1     -13.836   8.131  71.677  1.00  0.00    -0.375 C  
BRANCH  12  13
HETATM   13  N   UNL     1     -12.753   7.501  70.905  1.00  0.00    -0.565 NA 
HETATM   14  H   UNL     1     -12.421   8.141  70.183  1.00  0.00     0.000 HD 
BRANCH  13  15
HETATM   15  C   UNL     1     -11.614   7.001  71.699  1.00  0.00    -0.285 C  
HETATM   16  C   UNL     1     -11.692   7.680  73.076  1.00  0.00    -0.081 C  
BRANCH  15  17
HETATM   17  C   UNL     1     -10.232   7.246  71.029  1.00  0.00    -0.198 C  
BRANCH  17  18
HETATM   18  C   UNL     1      -9.538   5.947  70.682  1.00  0.00    -0.208 A  
HETATM   19  C   UNL     1      -9.323   5.617  69.340  1.00  0.00    -0.156 A  
HETATM   20  C   UNL     1      -8.898   4.329  68.989  1.00  0.00    -0.096 A  
HETATM   21  C   UNL     1      -8.575   3.390  69.978  1.00  0.00    -0.062 A  
HETATM   22  C   UNL     1      -9.202   5.020  71.670  1.00  0.00    -0.178 A  
HETATM   23  C   UNL     1      -8.704   3.760  71.321  1.00  0.00    -0.121 A  
BRANCH  20  24
HETATM   24  S   UNL     1      -8.885   3.820  67.287  1.00  0.00    -0.134 S  
HETATM   25  O   UNL     1      -7.510   3.622  66.891  1.00  0.00    -0.077 OA 
HETATM   26  N   UNL     1      -9.566   2.284  67.292  1.00  0.00    -0.406 N  
HETATM   27  O   UNL     1      -9.825   4.637  66.554  1.00  0.00    -0.181 OA 
HETATM   28  H1  UNL     1      -9.558   1.992  66.315  1.00  0.00     0.000 HD 
HETATM   29  H2  UNL     1      -9.912   1.759  68.094  1.00  0.00     0.000 HD 
ENDBRANCH  20  24
BRANCH  21  30
HETATM   30  O   UNL     1      -8.152   2.160  69.558  1.00  0.00    -0.045 OA 
HETATM   31  C   UNL     1      -6.753   1.939  69.434  1.00  0.00    -0.029 C  
ENDBRANCH  21  30
ENDBRANCH  17  18
ENDBRANCH  15  17
ENDBRANCH  13  15
ENDBRANCH  12  13
ENDBRANCH  11  12
ENDBRANCH  10  11
ENDBRANCH   9  10
ENDBRANCH   3   4
ENDBRANCH   2   3
TORSDOF 11
ENDMDL
MODEL      271
REMARK 921   NORMALIZED FREE ENERGY PREDICTED BY IDOCK:   -4.00 KCAL/MOL
REMARK 922        TOTAL FREE ENERGY PREDICTED BY IDOCK:   -7.82 KCAL/MOL
REMARK 923 INTER-LIGAND FREE ENERGY PREDICTED BY IDOCK:   -7.20 KCAL/MOL
REMARK 924 INTRA-LIGAND FREE ENERGY PREDICTED BY IDOCK:   -0.62 KCAL/MOL
REMARK 927      BINDING AFFINITY PREDICTED BY RF-SCORE:    0.00 PKD
ROOT
HETATM    1  C   UNL     1     -12.610   9.600  71.162  1.00  0.00    -0.411 C  
HETATM    2  C   UNL     1     -13.386   8.463  71.809  1.00  0.00    -0.357 C  
ENDROOT
BRANCH   2   3
HETATM    3  O   UNL     1     -12.708   7.269  71.438  1.00  0.00    -0.362 OA 
BRANCH   3   4
HETATM    4  C   UNL     1     -11.483   6.972  71.953  1.00  0.00    -0.268 A  
HETATM    5  C   UNL     1     -11.081   7.343  73.244  1.00  0.00    -0.303 A  
HETATM    6  C   UNL     1      -9.801   7.036  73.713  1.00  0.00    -0.341 A  
HETATM    7  C   UNL     1      -8.905   6.351  72.895  1.00  0.00    -0.124 A  
HETATM    8  C   UNL     1      -9.297   5.965  71.614  1.00  0.00    -0.162 A  
HETATM    9  C   UNL     1     -10.582   6.262  71.132  1.00  0.00    -0.239 A  
BRANCH   9  10
HETATM   10  O   UNL     1     -10.782   5.789  69.855  1.00  0.00    -0.292 OA 
BRANCH  10  11
HETATM   11  C   UNL     1     -11.281   6.695  68.873  1.00  0.00    -0.200 C  
BRANCH  11  12
HETATM   12  C   UNL     1     -10.155   7.080  67.905  1.00  0.00    -0.169 C  
BRANCH  12  13
HETATM   13  N   UNL     1      -9.008   7.776  68.511  1.00  0.00    -0.134 NA 
HETATM   14  H   UNL     1      -8.164   7.597  67.967  1.00  0.00     0.000 HD 
BRANCH  13  15
HETATM   15  C   UNL     1      -9.179   9.227  68.715  1.00  0.00    -0.136 C  
HETATM   16  C   UNL     1      -9.089   9.482  70.228  1.00  0.00    -0.296 C  
BRANCH  15  17
HETATM   17  C   UNL     1     -10.506   9.787  68.128  1.00  0.00    -0.258 C  
BRANCH  17  18
HETATM   18  C   UNL     1     -10.286  11.085  67.383  1.00  0.00    -0.229 A  
HETATM   19  C   UNL     1      -9.378  12.024  67.884  1.00  0.00    -0.190 A  
HETATM   20  C   UNL     1      -9.329  13.316  67.346  1.00  0.00    -0.217 A  
HETATM   21  C   UNL     1     -10.104  13.653  66.228  1.00  0.00    -0.299 A  
HETATM   22  C   UNL     1     -11.048  11.412  66.260  1.00  0.00    -0.281 A  
HETATM   23  C   UNL     1     -10.941  12.679  65.675  1.00  0.00    -0.313 A  
BRANCH  20  24
HETATM   24  S   UNL     1      -8.381  14.587  68.147  1.00  0.00    -0.157 S  
HETATM   25  O   UNL     1      -9.287  15.392  68.933  1.00  0.00    -0.191 OA 
HETATM   26  N   UNL     1      -7.431  13.772  69.268  1.00  0.00    -0.326 N  
HETATM   27  O   UNL     1      -7.441  15.131  67.194  1.00  0.00    -0.203 OA 
HETATM   28  H1  UNL     1      -6.887  14.501  69.728  1.00  0.00     0.000 HD 
HETATM   29  H2  UNL     1      -7.404  12.769  69.449  1.00  0.00     0.000 HD 
ENDBRANCH  20  24
BRANCH  21  30
HETATM   30  O   UNL     1      -9.990  14.929  65.750  1.00  0.00    -0.305 OA 
HETATM   31  C   UNL     1     -11.012  15.414  64.888  1.00  0.00    -0.437 C  
ENDBRANCH  21  30
ENDBRANCH  17  18
ENDBRANCH  15  17
ENDBRANCH  13  15
ENDBRANCH  12  13
ENDBRANCH  11  12
ENDBRANCH  10  11
ENDBRANCH   9  10
ENDBRANCH   3   4
ENDBRANCH   2   3
TORSDOF 11
ENDMDL
MODEL      272
REMARK 921   NORMALIZED FREE ENERGY PREDICTED BY IDOCK:   -4.00 KCAL/MOL
REMARK 922        TOTAL FREE ENERGY PREDICTED BY IDOCK:   -7.82 KCAL/MOL
REMARK 923 INTER-LIGAND FREE ENERGY PREDICTED BY IDOCK:   -6.95 KCAL/MOL
REMARK 924 INTRA-LIGAND FREE ENERGY PREDICTED BY IDOCK:   -0.87 KCAL/MOL
REMARK 927      BINDING AFFINITY PREDICTED BY RF-SCORE:    0.00 PKD
ROOT
HETATM    1  C   UNL     1      -9.548   5.365  66.919  1.00  0.00    -0.150 C  
HETATM    2  C   UNL     1     -10.086   5.479  68.337  1.00  0.00    -0.178 C  
ENDROOT
BRANCH   2   3
HETATM    3  O   UNL     1     -10.549   6.818  68.470  1.00  0.00    -0.195 OA 
BRANCH   3   4
HETATM    4  C   UNL     1     -10.465   7.472  69.661  1.00  0.00    -0.234 A  
HETATM    5  C   UNL     1     -11.487   7.458  70.621  1.00  0.00    -0.307 A  
HETATM    6  C   UNL     1     -11.359   8.170  71.816  1.00  0.00    -0.333 A  
HETATM    7  C   UNL     1     -10.204   8.907  72.068  1.00  0.00    -0.363 A  
HETATM    8  C   UNL     1      -9.176   8.919  71.127  1.00  0.00    -0.324 A  
HETATM    9  C   UNL     1      -9.288   8.204  69.925  1.00  0.00    -0.159 A  
BRANCH   9  10
HETATM   10  O   UNL     1      -8.167   8.329  69.136  1.00  0.00    -0.118 OA 
BRANCH  10  11
HETATM   11  C   UNL     1      -8.138   9.380  68.171  1.00  0.00    -0.110 C  
BRANCH  11  12
HETATM   12  C   UNL     1      -7.309   8.944  66.956  1.00  0.00    -0.083 C  
BRANCH  12  13
HETATM   13  N   UNL     1      -7.310   9.878  65.819  1.00  0.00    -0.105 NA 
HETATM   14  H   UNL     1      -6.353  10.069  65.524  1.00  0.00     0.000 HD 
BRANCH  13  15
HETATM   15  C   UNL     1      -8.124   9.468  64.659  1.00  0.00    -0.136 C  
HETATM   16  C   UNL     1      -7.676  10.329  63.468  1.00  0.00    -0.115 C  
BRANCH  15  17
HETATM   17  C   UNL     1      -9.656   9.589  64.897  1.00  0.00    -0.158 C  
BRANCH  17  18
HETATM   18  C   UNL     1     -10.117  11.029  64.860  1.00  0.00    -0.359 A  
HETATM   19  C   UNL     1      -9.953  11.836  65.991  1.00  0.00    -0.258 A  
HETATM   20  C   UNL     1     -10.575  13.089  66.061  1.00  0.00    -0.279 A  
HETATM   21  C   UNL     1     -11.275  13.601  64.961  1.00  0.00    -0.321 A  
HETATM   22  C   UNL     1     -10.801  11.542  63.756  1.00  0.00    -0.486 A  
HETATM   23  C   UNL     1     -11.356  12.826  63.799  1.00  0.00    -0.520 A  
BRANCH  20  24
HETATM   24  S   UNL     1     -10.597  13.997  67.589  1.00  0.00    -0.250 S  
HETATM   25  O   UNL     1      -9.740  13.311  68.528  1.00  0.00    -0.215 OA 
HETATM   26  N   UNL     1      -9.805  15.438  67.243  1.00  0.00    -0.216 N  
HETATM   27  O   UNL     1     -11.958  14.386  67.875  1.00  0.00    -0.353 OA 
HETATM   28  H1  UNL     1      -9.817  15.959  68.120  1.00  0.00     0.000 HD 
HETATM   29  H2  UNL     1      -9.401  15.729  66.353  1.00  0.00     0.000 HD 
ENDBRANCH  20  24
BRANCH  21  30
HETATM   30  O   UNL     1     -11.841  14.838  65.100  1.00  0.00    -0.359 OA 
HETATM   31  C   UNL     1     -11.292  15.913  64.350  1.00  0.00    -0.267 C  
ENDBRANCH  21  30
ENDBRANCH  17  18
ENDBRANCH  15  17
ENDBRANCH  13  15
ENDBRANCH  12  13
ENDBRANCH  11  12
ENDBRANCH  10  11
ENDBRANCH   9  10
ENDBRANCH   3   4
ENDBRANCH   2   3
TORSDOF 11
ENDMDL
MODEL      273
REMARK 921   NORMALIZED FREE ENERGY PREDICTED BY IDOCK:   -4.00 KCAL/MOL
REMARK 922        TOTAL FREE ENERGY PREDICTED BY IDOCK:   -7.82 KCAL/MOL
REMARK 923 INTER-LIGAND FREE ENERGY PREDICTED BY IDOCK:   -6.71 KCAL/MOL
REMARK 924 INTRA-LIGAND FREE ENERGY PREDICTED BY IDOCK:   -1.11 KCAL/MOL
REMARK 927      BINDING AFFINITY PREDICTED BY RF-SCORE:    0.00 PKD
ROOT
HETATM    1  C   UNL     1     -10.811  14.231  65.014  1.00  0.00    -0.414 C  
HETATM    2  C   UNL     1     -11.631  14.561  66.252  1.00  0.00    -0.360 C  
ENDROOT
BRANCH   2   3
HETATM    3  O   UNL     1     -10.688  14.883  67.268  1.00  0.00    -0.282 OA 
BRANCH   3   4
HETATM    4  C   UNL     1     -10.101  16.110  67.313  1.00  0.00    -0.265 A  
HETATM    5  C   UNL     1     -10.820  17.301  67.489  1.00  0.00    -0.206 A  
HETATM    6  C   UNL     1     -10.170  18.537  67.502  1.00  0.00    -0.414 A  
HETATM    7  C   UNL     1      -8.788  18.600  67.339  1.00  0.00    -0.284 A  
HETATM    8  C   UNL     1      -8.060  17.422  67.176  1.00  0.00    -0.229 A  
HETATM    9  C   UNL     1      -8.699  16.172  67.167  1.00  0.00    -0.194 A  
BRANCH   9  10
HETATM   10  O   UNL     1      -7.811  15.133  67.009  1.00  0.00    -0.211 OA 
BRANCH  10  11
HETATM   11  C   UNL     1      -7.163  14.620  68.172  1.00  0.00    -0.124 C  
BRANCH  11  12
HETATM   12  C   UNL     1      -7.473  13.124  68.318  1.00  0.00    -0.129 C  
BRANCH  12  13
HETATM   13  N   UNL     1      -8.899  12.778  68.416  1.00  0.00    -0.311 NA 
HETATM   14  H   UNL     1      -9.472  13.604  68.240  1.00  0.00     0.000 HD 
BRANCH  13  15
HETATM   15  C   UNL     1      -9.344  11.663  67.558  1.00  0.00    -0.168 C  
HETATM   16  C   UNL     1     -10.751  11.265  68.031  1.00  0.00    -0.245 C  
BRANCH  15  17
HETATM   17  C   UNL     1      -8.381  10.443  67.571  1.00  0.00    -0.114 C  
BRANCH  17  18
HETATM   18  C   UNL     1      -8.622   9.549  68.767  1.00  0.00    -0.123 A  
HETATM   19  C   UNL     1      -9.358   8.370  68.611  1.00  0.00    -0.143 A  
HETATM   20  C   UNL     1      -9.790   7.653  69.735  1.00  0.00    -0.181 A  
HETATM   21  C   UNL     1      -9.396   8.040  71.022  1.00  0.00    -0.149 A  
HETATM   22  C   UNL     1      -8.215   9.929  70.047  1.00  0.00    -0.187 A  
HETATM   23  C   UNL     1      -8.581   9.168  71.163  1.00  0.00    -0.196 A  
BRANCH  20  24
HETATM   24  S   UNL     1     -10.947   6.316  69.557  1.00  0.00    -0.409 S  
HETATM   25  O   UNL     1     -11.224   6.149  68.149  1.00  0.00    -0.314 OA 
HETATM   26  N   UNL     1     -10.087   4.942  70.001  1.00  0.00    -0.262 N  
HETATM   27  O   UNL     1     -11.968   6.453  70.569  1.00  0.00    -0.341 OA 
HETATM   28  H1  UNL     1     -10.750   4.175  69.898  1.00  0.00     0.000 HD 
HETATM   29  H2  UNL     1      -9.115   4.887  70.305  1.00  0.00     0.000 HD 
ENDBRANCH  20  24
BRANCH  21  30
HETATM   30  O   UNL     1      -9.843   7.281  72.067  1.00  0.00    -0.162 OA 
HETATM   31  C   UNL     1      -9.748   7.824  73.378  1.00  0.00    -0.290 C  
ENDBRANCH  21  30
ENDBRANCH  17  18
ENDBRANCH  15  17
ENDBRANCH  13  15
ENDBRANCH  12  13
ENDBRANCH  11  12
ENDBRANCH  10  11
ENDBRANCH   9  10
ENDBRANCH   3   4
ENDBRANCH   2   3
TORSDOF 11
ENDMDL
MODEL      274
REMARK 921   NORMALIZED FREE ENERGY PREDICTED BY IDOCK:   -4.00 KCAL/MOL
REMARK 922        TOTAL FREE ENERGY PREDICTED BY IDOCK:   -7.81 KCAL/MOL
REMARK 923 INTER-LIGAND FREE ENERGY PREDICTED BY IDOCK:   -7.31 KCAL/MOL
REMARK 924 INTRA-LIGAND FREE ENERGY PREDICTED BY IDOCK:   -0.50 KCAL/MOL
REMARK 927      BINDING AFFINITY PREDICTED BY RF-SCORE:    0.00 PKD
ROOT
HETATM    1  C   UNL     1      -6.019   7.889  68.135  1.00  0.00    -0.041 C  
HETATM    2  C   UNL     1      -5.881   6.552  68.847  1.00  0.00    -0.021 C  
ENDROOT
BRANCH   2   3
HETATM    3  O   UNL     1      -7.149   6.294  69.438  1.00  0.00    -0.068 OA 
BRANCH   3   4
HETATM    4  C   UNL     1      -7.901   5.231  69.042  1.00  0.00    -0.082 A  
HETATM    5  C   UNL     1      -7.597   3.905  69.380  1.00  0.00    -0.053 A  
HETATM    6  C   UNL     1      -8.388   2.847  68.924  1.00  0.00    -0.087 A  
HETATM    7  C   UNL     1      -9.499   3.103  68.123  1.00  0.00    -0.217 A  
HETATM    8  C   UNL     1      -9.819   4.418  67.790  1.00  0.00    -0.152 A  
HETATM    9  C   UNL     1      -9.036   5.491  68.245  1.00  0.00    -0.108 A  
BRANCH   9  10
HETATM   10  O   UNL     1      -9.521   6.708  67.823  1.00  0.00    -0.122 OA 
BRANCH  10  11
HETATM   11  C   UNL     1     -10.455   7.386  68.661  1.00  0.00    -0.189 C  
BRANCH  11  12
HETATM   12  C   UNL     1     -11.037   6.405  69.687  1.00  0.00    -0.401 C  
BRANCH  12  13
HETATM   13  N   UNL     1     -11.965   6.989  70.668  1.00  0.00    -0.505 NA 
HETATM   14  H   UNL     1     -12.101   6.344  71.447  1.00  0.00     0.000 HD 
BRANCH  13  15
HETATM   15  C   UNL     1     -11.596   8.324  71.177  1.00  0.00    -0.279 C  
HETATM   16  C   UNL     1     -10.570   8.110  72.301  1.00  0.00    -0.378 C  
BRANCH  15  17
HETATM   17  C   UNL     1     -12.810   9.159  71.675  1.00  0.00    -0.431 C  
BRANCH  17  18
HETATM   18  C   UNL     1     -12.777  10.573  71.138  1.00  0.00    -0.518 A  
HETATM   19  C   UNL     1     -12.285  10.811  69.850  1.00  0.00    -0.384 A  
HETATM   20  C   UNL     1     -12.029  12.120  69.423  1.00  0.00    -0.270 A  
HETATM   21  C   UNL     1     -12.367  13.214  70.231  1.00  0.00    -0.249 A  
HETATM   22  C   UNL     1     -13.129  11.660  71.940  1.00  0.00    -0.490 A  
HETATM   23  C   UNL     1     -12.945  12.969  71.481  1.00  0.00    -0.398 A  
BRANCH  20  24
HETATM   24  S   UNL     1     -11.156  12.414  67.903  1.00  0.00    -0.257 S  
HETATM   25  O   UNL     1      -9.832  12.886  68.232  1.00  0.00    -0.225 OA 
HETATM   26  N   UNL     1     -10.926  10.888  67.238  1.00  0.00    -0.291 N  
HETATM   27  O   UNL     1     -12.046  13.084  66.983  1.00  0.00    -0.362 OA 
HETATM   28  H1  UNL     1     -10.425  11.056  66.367  1.00  0.00     0.000 HD 
HETATM   29  H2  UNL     1     -11.221   9.990  67.622  1.00  0.00     0.000 HD 
ENDBRANCH  20  24
BRANCH  21  30
HETATM   30  O   UNL     1     -12.102  14.461  69.738  1.00  0.00    -0.303 OA 
HETATM   31  C   UNL     1     -12.529  15.585  70.497  1.00  0.00    -0.427 C  
ENDBRANCH  21  30
ENDBRANCH  17  18
ENDBRANCH  15  17
ENDBRANCH  13  15
ENDBRANCH  12  13
ENDBRANCH  11  12
ENDBRANCH  10  11
ENDBRANCH   9  10
ENDBRANCH   3   4
ENDBRANCH   2   3
TORSDOF 11
ENDMDL
MODEL      275
REMARK 921   NORMALIZED FREE ENERGY PREDICTED BY IDOCK:   -3.99 KCAL/MOL
REMARK 922        TOTAL FREE ENERGY PREDICTED BY IDOCK:   -7.81 KCAL/MOL
REMARK 923 INTER-LIGAND FREE ENERGY PREDICTED BY IDOCK:   -6.90 KCAL/MOL
REMARK 924 INTRA-LIGAND FREE ENERGY PREDICTED BY IDOCK:   -0.91 KCAL/MOL
REMARK 927      BINDING AFFINITY PREDICTED BY RF-SCORE:    0.00 PKD
ROOT
HETATM    1  C   UNL     1      -9.405  15.223  66.140  1.00  0.00    -0.360 C  
HETATM    2  C   UNL     1     -10.435  14.309  65.493  1.00  0.00    -0.346 C  
ENDROOT
BRANCH   2   3
HETATM    3  O   UNL     1     -11.644  14.517  66.212  1.00  0.00    -0.357 OA 
BRANCH   3   4
HETATM    4  C   UNL     1     -11.757  14.139  67.515  1.00  0.00    -0.386 A  
HETATM    5  C   UNL     1     -11.770  15.050  68.581  1.00  0.00    -0.363 A  
HETATM    6  C   UNL     1     -11.860  14.606  69.903  1.00  0.00    -0.372 A  
HETATM    7  C   UNL     1     -11.941  13.242  70.177  1.00  0.00    -0.388 A  
HETATM    8  C   UNL     1     -11.942  12.328  69.125  1.00  0.00    -0.303 A  
HETATM    9  C   UNL     1     -11.857  12.759  67.791  1.00  0.00    -0.332 A  
BRANCH   9  10
HETATM   10  O   UNL     1     -11.886  11.711  66.900  1.00  0.00    -0.577 OA 
BRANCH  10  11
HETATM   11  C   UNL     1     -10.910  10.680  67.043  1.00  0.00    -0.238 C  
BRANCH  11  12
HETATM   12  C   UNL     1     -10.193  10.459  65.705  1.00  0.00    -0.235 C  
BRANCH  12  13
HETATM   13  N   UNL     1      -9.850   9.062  65.393  1.00  0.00    -0.395 NA 
HETATM   14  H   UNL     1      -9.455   9.001  64.454  1.00  0.00     0.000 HD 
BRANCH  13  15
HETATM   15  C   UNL     1      -8.958   8.394  66.361  1.00  0.00    -0.171 C  
HETATM   16  C   UNL     1      -7.622   8.145  65.643  1.00  0.00    -0.083 C  
BRANCH  15  17
HETATM   17  C   UNL     1      -9.540   7.074  66.939  1.00  0.00    -0.214 C  
BRANCH  17  18
HETATM   18  C   UNL     1      -9.567   7.086  68.451  1.00  0.00    -0.135 A  
HETATM   19  C   UNL     1      -8.461   6.612  69.165  1.00  0.00    -0.124 A  
HETATM   20  C   UNL     1      -8.552   6.398  70.547  1.00  0.00    -0.143 A  
HETATM   21  C   UNL     1      -9.708   6.762  71.251  1.00  0.00    -0.172 A  
HETATM   22  C   UNL     1     -10.714   7.463  69.151  1.00  0.00    -0.180 A  
HETATM   23  C   UNL     1     -10.775   7.322  70.542  1.00  0.00    -0.249 A  
BRANCH  20  24
HETATM   24  S   UNL     1      -7.253   5.547  71.410  1.00  0.00    -0.075 S  
HETATM   25  O   UNL     1      -6.165   5.336  70.485  1.00  0.00    -0.021 OA 
HETATM   26  N   UNL     1      -6.673   6.665  72.523  1.00  0.00    -0.063 N  
HETATM   27  O   UNL     1      -7.843   4.501  72.214  1.00  0.00    -0.088 OA 
HETATM   28  H1  UNL     1      -5.928   6.176  73.019  1.00  0.00     0.000 HD 
HETATM   29  H2  UNL     1      -6.995   7.621  72.671  1.00  0.00     0.000 HD 
ENDBRANCH  20  24
BRANCH  21  30
HETATM   30  O   UNL     1      -9.714   6.537  72.599  1.00  0.00    -0.161 OA 
HETATM   31  C   UNL     1     -10.721   7.171  73.378  1.00  0.00    -0.368 C  
ENDBRANCH  21  30
ENDBRANCH  17  18
ENDBRANCH  15  17
ENDBRANCH  13  15
ENDBRANCH  12  13
ENDBRANCH  11  12
ENDBRANCH  10  11
ENDBRANCH   9  10
ENDBRANCH   3   4
ENDBRANCH   2   3
TORSDOF 11
ENDMDL
MODEL      276
REMARK 921   NORMALIZED FREE ENERGY PREDICTED BY IDOCK:   -3.98 KCAL/MOL
REMARK 922        TOTAL FREE ENERGY PREDICTED BY IDOCK:   -7.79 KCAL/MOL
REMARK 923 INTER-LIGAND FREE ENERGY PREDICTED BY IDOCK:   -7.09 KCAL/MOL
REMARK 924 INTRA-LIGAND FREE ENERGY PREDICTED BY IDOCK:   -0.70 KCAL/MOL
REMARK 927      BINDING AFFINITY PREDICTED BY RF-SCORE:    0.00 PKD
ROOT
HETATM    1  C   UNL     1     -10.779   2.798  73.798  1.00  0.00    -0.275 C  
HETATM    2  C   UNL     1     -10.041   3.917  73.078  1.00  0.00    -0.150 C  
ENDROOT
BRANCH   2   3
HETATM    3  O   UNL     1     -10.467   3.853  71.723  1.00  0.00    -0.026 OA 
BRANCH   3   4
HETATM    4  C   UNL     1      -9.849   4.592  70.760  1.00  0.00    -0.210 A  
HETATM    5  C   UNL     1      -8.556   4.318  70.293  1.00  0.00    -0.102 A  
HETATM    6  C   UNL     1      -7.957   5.126  69.322  1.00  0.00    -0.080 A  
HETATM    7  C   UNL     1      -8.648   6.219  68.803  1.00  0.00    -0.122 A  
HETATM    8  C   UNL     1      -9.939   6.493  69.250  1.00  0.00    -0.172 A  
HETATM    9  C   UNL     1     -10.555   5.688  70.221  1.00  0.00    -0.300 A  
BRANCH   9  10
HETATM   10  O   UNL     1     -11.829   6.112  70.519  1.00  0.00    -0.227 OA 
BRANCH  10  11
HETATM   11  C   UNL     1     -12.044   6.769  71.767  1.00  0.00    -0.350 C  
BRANCH  11  12
HETATM   12  C   UNL     1     -13.061   7.904  71.586  1.00  0.00    -0.332 C  
BRANCH  12  13
HETATM   13  N   UNL     1     -12.555   9.258  71.859  1.00  0.00    -0.366 NA 
HETATM   14  H   UNL     1     -11.920   9.239  72.657  1.00  0.00     0.000 HD 
BRANCH  13  15
HETATM   15  C   UNL     1     -11.912   9.939  70.719  1.00  0.00    -0.323 C  
HETATM   16  C   UNL     1     -10.405   9.657  70.818  1.00  0.00    -0.356 C  
BRANCH  15  17
HETATM   17  C   UNL     1     -12.196  11.468  70.664  1.00  0.00    -0.473 C  
BRANCH  17  18
HETATM   18  C   UNL     1     -11.675  12.090  69.388  1.00  0.00    -0.402 A  
HETATM   19  C   UNL     1     -11.134  13.380  69.419  1.00  0.00    -0.160 A  
HETATM   20  C   UNL     1     -10.862  14.061  68.225  1.00  0.00    -0.255 A  
HETATM   21  C   UNL     1     -11.019  13.422  66.988  1.00  0.00    -0.287 A  
HETATM   22  C   UNL     1     -11.817  11.445  68.158  1.00  0.00    -0.288 A  
HETATM   23  C   UNL     1     -11.472  12.099  66.970  1.00  0.00    -0.415 A  
BRANCH  20  24
HETATM   24  S   UNL     1     -10.436  15.786  68.252  1.00  0.00    -0.268 S  
HETATM   25  O   UNL     1     -11.433  16.504  67.493  1.00  0.00     0.038 OA 
HETATM   26  N   UNL     1     -10.672  16.261  69.847  1.00  0.00    -0.332 N  
HETATM   27  O   UNL     1      -9.013  15.912  68.038  1.00  0.00    -0.180 OA 
HETATM   28  H1  UNL     1     -10.428  17.251  69.863  1.00  0.00     0.000 HD 
HETATM   29  H2  UNL     1     -10.990  15.687  70.628  1.00  0.00     0.000 HD 
ENDBRANCH  20  24
BRANCH  21  30
HETATM   30  O   UNL     1     -10.718  14.146  65.868  1.00  0.00    -0.287 OA 
HETATM   31  C   UNL     1     -10.967  13.552  64.601  1.00  0.00    -0.385 C  
ENDBRANCH  21  30
ENDBRANCH  17  18
ENDBRANCH  15  17
ENDBRANCH  13  15
ENDBRANCH  12  13
ENDBRANCH  11  12
ENDBRANCH  10  11
ENDBRANCH   9  10
ENDBRANCH   3   4
ENDBRANCH   2   3
TORSDOF 11
ENDMDL
MODEL      277
REMARK 921   NORMALIZED FREE ENERGY PREDICTED BY IDOCK:   -3.98 KCAL/MOL
REMARK 922        TOTAL FREE ENERGY PREDICTED BY IDOCK:   -7.78 KCAL/MOL
REMARK 923 INTER-LIGAND FREE ENERGY PREDICTED BY IDOCK:   -7.37 KCAL/MOL
REMARK 924 INTRA-LIGAND FREE ENERGY PREDICTED BY IDOCK:   -0.41 KCAL/MOL
REMARK 927      BINDING AFFINITY PREDICTED BY RF-SCORE:    0.00 PKD
ROOT
HETATM    1  C   UNL     1      -7.924   8.180  72.462  1.00  0.00    -0.195 C  
HETATM    2  C   UNL     1      -8.517   7.997  73.851  1.00  0.00    -0.260 C  
ENDROOT
BRANCH   2   3
HETATM    3  O   UNL     1      -9.780   7.374  73.654  1.00  0.00    -0.256 OA 
BRANCH   3   4
HETATM    4  C   UNL     1      -9.887   6.018  73.581  1.00  0.00    -0.178 A  
HETATM    5  C   UNL     1      -8.986   5.142  74.201  1.00  0.00    -0.115 A  
HETATM    6  C   UNL     1      -9.126   3.757  74.071  1.00  0.00    -0.095 A  
HETATM    7  C   UNL     1     -10.173   3.230  73.318  1.00  0.00    -0.224 A  
HETATM    8  C   UNL     1     -11.083   4.091  72.707  1.00  0.00    -0.007 A  
HETATM    9  C   UNL     1     -10.958   5.484  72.834  1.00  0.00    -0.285 A  
BRANCH   9  10
HETATM   10  O   UNL     1     -11.957   6.160  72.172  1.00  0.00    -0.331 OA 
BRANCH  10  11
HETATM   11  C   UNL     1     -11.680   6.656  70.863  1.00  0.00    -0.375 C  
BRANCH  11  12
HETATM   12  C   UNL     1     -11.621   8.189  70.892  1.00  0.00    -0.267 C  
BRANCH  12  13
HETATM   13  N   UNL     1     -10.495   8.794  70.162  1.00  0.00    -0.207 NA 
HETATM   14  H   UNL     1     -10.403   8.361  69.243  1.00  0.00     0.000 HD 
BRANCH  13  15
HETATM   15  C   UNL     1     -10.540  10.262  70.027  1.00  0.00    -0.269 C  
HETATM   16  C   UNL     1     -11.829  10.605  69.264  1.00  0.00    -0.309 C  
BRANCH  15  17
HETATM   17  C   UNL     1      -9.292  10.862  69.320  1.00  0.00    -0.027 C  
BRANCH  17  18
HETATM   18  C   UNL     1      -9.507  11.008  67.830  1.00  0.00    -0.169 A  
HETATM   19  C   UNL     1     -10.182  12.129  67.336  1.00  0.00    -0.211 A  
HETATM   20  C   UNL     1     -10.594  12.172  65.998  1.00  0.00    -0.257 A  
HETATM   21  C   UNL     1     -10.239  11.149  65.108  1.00  0.00    -0.289 A  
HETATM   22  C   UNL     1      -9.138   9.994  66.944  1.00  0.00    -0.157 A  
HETATM   23  C   UNL     1      -9.483  10.076  65.590  1.00  0.00    -0.278 A  
BRANCH  20  24
HETATM   24  S   UNL     1     -11.681  13.460  65.434  1.00  0.00    -0.349 S  
HETATM   25  O   UNL     1     -12.920  12.848  65.016  1.00  0.00    -0.777 OA 
HETATM   26  N   UNL     1     -12.068  14.332  66.818  1.00  0.00    -0.456 N  
HETATM   27  O   UNL     1     -10.922  14.381  64.621  1.00  0.00    -0.390 OA 
HETATM   28  H1  UNL     1     -12.692  15.070  66.495  1.00  0.00     0.000 HD 
HETATM   29  H2  UNL     1     -11.749  14.160  67.772  1.00  0.00     0.000 HD 
ENDBRANCH  20  24
BRANCH  21  30
HETATM   30  O   UNL     1     -10.665  11.270  63.815  1.00  0.00    -0.370 OA 
HETATM   31  C   UNL     1      -9.735  10.992  62.776  1.00  0.00    -0.269 C  
ENDBRANCH  21  30
ENDBRANCH  17  18
ENDBRANCH  15  17
ENDBRANCH  13  15
ENDBRANCH  12  13
ENDBRANCH  11  12
ENDBRANCH  10  11
ENDBRANCH   9  10
ENDBRANCH   3   4
ENDBRANCH   2   3
TORSDOF 11
ENDMDL
MODEL      278
REMARK 921   NORMALIZED FREE ENERGY PREDICTED BY IDOCK:   -3.95 KCAL/MOL
REMARK 922        TOTAL FREE ENERGY PREDICTED BY IDOCK:   -7.73 KCAL/MOL
REMARK 923 INTER-LIGAND FREE ENERGY PREDICTED BY IDOCK:   -6.14 KCAL/MOL
REMARK 924 INTRA-LIGAND FREE ENERGY PREDICTED BY IDOCK:   -1.60 KCAL/MOL
REMARK 927      BINDING AFFINITY PREDICTED BY RF-SCORE:    0.00 PKD
ROOT
HETATM    1  C   UNL     1      -6.778  10.680  69.844  1.00  0.00    -0.147 C  
HETATM    2  C   UNL     1      -8.176  10.277  69.403  1.00  0.00    -0.165 C  
ENDROOT
BRANCH   2   3
HETATM    3  O   UNL     1      -8.452  11.044  68.237  1.00  0.00    -0.125 OA 
BRANCH   3   4
HETATM    4  C   UNL     1      -9.166  12.201  68.314  1.00  0.00    -0.192 A  
HETATM    5  C   UNL     1      -8.589  13.471  68.175  1.00  0.00    -0.173 A  
HETATM    6  C   UNL     1      -9.364  14.628  68.290  1.00  0.00    -0.199 A  
HETATM    7  C   UNL     1     -10.730  14.530  68.545  1.00  0.00    -0.253 A  
HETATM    8  C   UNL     1     -11.318  13.272  68.673  1.00  0.00    -0.324 A  
HETATM    9  C   UNL     1     -10.552  12.101  68.555  1.00  0.00    -0.233 A  
BRANCH   9  10
HETATM   10  O   UNL     1     -11.313  10.964  68.698  1.00  0.00    -0.250 OA 
BRANCH  10  11
HETATM   11  C   UNL     1     -12.410  10.999  69.610  1.00  0.00    -0.234 C  
BRANCH  11  12
HETATM   12  C   UNL     1     -12.031  10.263  70.902  1.00  0.00    -0.375 C  
BRANCH  12  13
HETATM   13  N   UNL     1     -12.804   9.043  71.186  1.00  0.00    -0.497 NA 
HETATM   14  H   UNL     1     -13.229   8.691  70.328  1.00  0.00     0.000 HD 
BRANCH  13  15
HETATM   15  C   UNL     1     -12.061   7.962  71.862  1.00  0.00    -0.312 C  
HETATM   16  C   UNL     1     -10.676   8.523  72.219  1.00  0.00    -0.411 C  
BRANCH  15  17
HETATM   17  C   UNL     1     -11.941   6.664  71.014  1.00  0.00    -0.415 C  
BRANCH  17  18
HETATM   18  C   UNL     1     -10.607   6.578  70.306  1.00  0.00    -0.278 A  
HETATM   19  C   UNL     1     -10.424   7.252  69.094  1.00  0.00    -0.222 A  
HETATM   20  C   UNL     1      -9.290   7.001  68.310  1.00  0.00    -0.126 A  
HETATM   21  C   UNL     1      -8.270   6.162  68.779  1.00  0.00    -0.108 A  
HETATM   22  C   UNL     1      -9.587   5.753  70.783  1.00  0.00    -0.210 A  
HETATM   23  C   UNL     1      -8.419   5.564  70.035  1.00  0.00    -0.120 A  
BRANCH  20  24
HETATM   24  S   UNL     1      -9.182   7.641  66.657  1.00  0.00    -0.177 S  
HETATM   25  O   UNL     1     -10.144   8.710  66.527  1.00  0.00    -0.273 OA 
HETATM   26  N   UNL     1      -7.680   8.392  66.584  1.00  0.00    -0.089 N  
HETATM   27  O   UNL     1      -9.082   6.531  65.738  1.00  0.00    -0.103 OA 
HETATM   28  H1  UNL     1      -7.618   8.759  65.635  1.00  0.00     0.000 HD 
HETATM   29  H2  UNL     1      -6.983   8.464  67.325  1.00  0.00     0.000 HD 
ENDBRANCH  20  24
BRANCH  21  30
HETATM   30  O   UNL     1      -7.188   5.979  67.965  1.00  0.00    -0.076 OA 
HETATM   31  C   UNL     1      -6.745   4.649  67.729  1.00  0.00    -0.051 C  
ENDBRANCH  21  30
ENDBRANCH  17  18
ENDBRANCH  15  17
ENDBRANCH  13  15
ENDBRANCH  12  13
ENDBRANCH  11  12
ENDBRANCH  10  11
ENDBRANCH   9  10
ENDBRANCH   3   4
ENDBRANCH   2   3
TORSDOF 11
ENDMDL
MODEL      279
REMARK 921   NORMALIZED FREE ENERGY PREDICTED BY IDOCK:   -3.95 KCAL/MOL
REMARK 922        TOTAL FREE ENERGY PREDICTED BY IDOCK:   -7.73 KCAL/MOL
REMARK 923 INTER-LIGAND FREE ENERGY PREDICTED BY IDOCK:   -7.01 KCAL/MOL
REMARK 924 INTRA-LIGAND FREE ENERGY PREDICTED BY IDOCK:   -0.72 KCAL/MOL
REMARK 927      BINDING AFFINITY PREDICTED BY RF-SCORE:    0.00 PKD
ROOT
HETATM    1  C   UNL     1     -10.082  18.967  68.791  1.00  0.00    -0.429 C  
HETATM    2  C   UNL     1      -9.956  18.975  67.275  1.00  0.00    -0.344 C  
ENDROOT
BRANCH   2   3
HETATM    3  O   UNL     1      -9.400  17.713  66.926  1.00  0.00    -0.249 OA 
BRANCH   3   4
HETATM    4  C   UNL     1      -8.051  17.532  66.883  1.00  0.00    -0.227 A  
HETATM    5  C   UNL     1      -7.217  18.180  65.960  1.00  0.00    -0.305 A  
HETATM    6  C   UNL     1      -5.841  17.936  65.942  1.00  0.00    -0.237 A  
HETATM    7  C   UNL     1      -5.280  17.041  66.850  1.00  0.00    -0.189 A  
HETATM    8  C   UNL     1      -6.096  16.401  67.780  1.00  0.00    -0.152 A  
HETATM    9  C   UNL     1      -7.479  16.639  67.814  1.00  0.00    -0.155 A  
BRANCH   9  10
HETATM   10  O   UNL     1      -8.109  15.926  68.808  1.00  0.00    -0.164 OA 
BRANCH  10  11
HETATM   11  C   UNL     1      -7.991  14.504  68.793  1.00  0.00    -0.142 C  
BRANCH  11  12
HETATM   12  C   UNL     1      -9.224  13.891  68.116  1.00  0.00    -0.202 C  
BRANCH  12  13
HETATM   13  N   UNL     1      -9.617  12.559  68.602  1.00  0.00    -0.400 NA 
HETATM   14  H   UNL     1     -10.540  12.314  68.242  1.00  0.00     0.000 HD 
BRANCH  13  15
HETATM   15  C   UNL     1      -8.661  11.471  68.321  1.00  0.00    -0.161 C  
HETATM   16  C   UNL     1      -9.281  10.601  67.216  1.00  0.00    -0.155 C  
BRANCH  15  17
HETATM   17  C   UNL     1      -8.299  10.619  69.571  1.00  0.00    -0.013 C  
BRANCH  17  18
HETATM   18  C   UNL     1      -9.321   9.533  69.825  1.00  0.00    -0.227 A  
HETATM   19  C   UNL     1     -10.551   9.864  70.402  1.00  0.00    -0.364 A  
HETATM   20  C   UNL     1     -11.412   8.857  70.857  1.00  0.00    -0.288 A  
HETATM   21  C   UNL     1     -11.108   7.507  70.640  1.00  0.00    -0.265 A  
HETATM   22  C   UNL     1      -9.021   8.190  69.593  1.00  0.00    -0.154 A  
HETATM   23  C   UNL     1      -9.918   7.186  69.978  1.00  0.00    -0.182 A  
BRANCH  20  24
HETATM   24  S   UNL     1     -12.841   9.269  71.829  1.00  0.00    -0.415 S  
HETATM   25  O   UNL     1     -13.221  10.626  71.513  1.00  0.00    -0.389 OA 
HETATM   26  N   UNL     1     -14.074   8.311  71.207  1.00  0.00    -0.626 N  
HETATM   27  O   UNL     1     -12.640   8.780  73.174  1.00  0.00    -0.087 OA 
HETATM   28  H1  UNL     1     -14.894   8.547  71.765  1.00  0.00     0.000 HD 
HETATM   29  H2  UNL     1     -14.016   7.641  70.440  1.00  0.00     0.000 HD 
ENDBRANCH  20  24
BRANCH  21  30
HETATM   30  O   UNL     1     -12.004   6.582  71.098  1.00  0.00    -0.353 OA 
HETATM   31  C   UNL     1     -11.588   5.704  72.136  1.00  0.00    -0.137 C  
ENDBRANCH  21  30
ENDBRANCH  17  18
ENDBRANCH  15  17
ENDBRANCH  13  15
ENDBRANCH  12  13
ENDBRANCH  11  12
ENDBRANCH  10  11
ENDBRANCH   9  10
ENDBRANCH   3   4
ENDBRANCH   2   3
TORSDOF 11
ENDMDL
MODEL      280
REMARK 921   NORMALIZED FREE ENERGY PREDICTED BY IDOCK:   -3.94 KCAL/MOL
REMARK 922        TOTAL FREE ENERGY PREDICTED BY IDOCK:   -7.72 KCAL/MOL
REMARK 923 INTER-LIGAND FREE ENERGY PREDICTED BY IDOCK:   -6.66 KCAL/MOL
REMARK 924 INTRA-LIGAND FREE ENERGY PREDICTED BY IDOCK:   -1.07 KCAL/MOL
REMARK 927      BINDING AFFINITY PREDICTED BY RF-SCORE:    0.00 PKD
ROOT
HETATM    1  C   UNL     1      -6.886  15.205  68.983  1.00  0.00    -0.122 C  
HETATM    2  C   UNL     1      -6.964  16.244  67.875  1.00  0.00    -0.138 C  
ENDROOT
BRANCH   2   3
HETATM    3  O   UNL     1      -7.175  17.491  68.526  1.00  0.00    -0.219 OA 
BRANCH   3   4
HETATM    4  C   UNL     1      -8.037  18.412  68.011  1.00  0.00    -0.274 A  
HETATM    5  C   UNL     1      -7.615  19.561  67.329  1.00  0.00    -0.275 A  
HETATM    6  C   UNL     1      -8.541  20.489  66.844  1.00  0.00    -0.271 A  
HETATM    7  C   UNL     1      -9.905  20.276  67.035  1.00  0.00    -0.607 A  
HETATM    8  C   UNL     1     -10.337  19.131  67.700  1.00  0.00    -0.521 A  
HETATM    9  C   UNL     1      -9.418  18.188  68.188  1.00  0.00    -0.294 A  
BRANCH   9  10
HETATM   10  O   UNL     1     -10.038  17.123  68.801  1.00  0.00    -0.292 OA 
BRANCH  10  11
HETATM   11  C   UNL     1     -11.348  16.766  68.364  1.00  0.00    -0.068 C  
BRANCH  11  12
HETATM   12  C   UNL     1     -11.351  15.310  67.877  1.00  0.00    -0.334 C  
BRANCH  12  13
HETATM   13  N   UNL     1     -12.421  14.461  68.425  1.00  0.00    -0.538 NA 
HETATM   14  H   UNL     1     -12.916  13.991  67.666  1.00  0.00     0.000 HD 
BRANCH  13  15
HETATM   15  C   UNL     1     -11.995  13.474  69.436  1.00  0.00    -0.330 C  
HETATM   16  C   UNL     1     -12.423  14.022  70.806  1.00  0.00    -0.442 C  
BRANCH  15  17
HETATM   17  C   UNL     1     -10.471  13.166  69.404  1.00  0.00     0.314 C  
BRANCH  17  18
HETATM   18  C   UNL     1     -10.186  11.805  68.810  1.00  0.00    -0.175 A  
HETATM   19  C   UNL     1     -10.586  10.654  69.497  1.00  0.00    -0.265 A  
HETATM   20  C   UNL     1     -10.132   9.393  69.088  1.00  0.00    -0.195 A  
HETATM   21  C   UNL     1      -9.368   9.254  67.922  1.00  0.00    -0.129 A  
HETATM   22  C   UNL     1      -9.437  11.669  67.640  1.00  0.00    -0.177 A  
HETATM   23  C   UNL     1      -9.050  10.402  67.188  1.00  0.00    -0.152 A  
BRANCH  20  24
HETATM   24  S   UNL     1     -10.410   7.965  70.106  1.00  0.00    -0.219 S  
HETATM   25  O   UNL     1     -11.628   8.178  70.853  1.00  0.00    -0.282 OA 
HETATM   26  N   UNL     1     -10.769   6.729  69.025  1.00  0.00    -0.232 N  
HETATM   27  O   UNL     1      -9.156   7.574  70.706  1.00  0.00    -0.152 OA 
HETATM   28  H1  UNL     1     -10.929   5.909  69.609  1.00  0.00     0.000 HD 
HETATM   29  H2  UNL     1     -10.817   6.786  68.008  1.00  0.00     0.000 HD 
ENDBRANCH  20  24
BRANCH  21  30
HETATM   30  O   UNL     1      -8.976   7.990  67.578  1.00  0.00    -0.136 OA 
HETATM   31  C   UNL     1      -8.306   7.812  66.337  1.00  0.00    -0.131 C  
ENDBRANCH  21  30
ENDBRANCH  17  18
ENDBRANCH  15  17
ENDBRANCH  13  15
ENDBRANCH  12  13
ENDBRANCH  11  12
ENDBRANCH  10  11
ENDBRANCH   9  10
ENDBRANCH   3   4
ENDBRANCH   2   3
TORSDOF 11
ENDMDL
MODEL      281
REMARK 921   NORMALIZED FREE ENERGY PREDICTED BY IDOCK:   -3.94 KCAL/MOL
REMARK 922        TOTAL FREE ENERGY PREDICTED BY IDOCK:   -7.72 KCAL/MOL
REMARK 923 INTER-LIGAND FREE ENERGY PREDICTED BY IDOCK:   -7.32 KCAL/MOL
REMARK 924 INTRA-LIGAND FREE ENERGY PREDICTED BY IDOCK:   -0.40 KCAL/MOL
REMARK 927      BINDING AFFINITY PREDICTED BY RF-SCORE:    0.00 PKD
ROOT
HETATM    1  C   UNL     1     -10.533  18.819  66.590  1.00  0.00    -0.483 C  
HETATM    2  C   UNL     1     -10.548  17.465  67.283  1.00  0.00    -0.284 C  
ENDROOT
BRANCH   2   3
HETATM    3  O   UNL     1     -10.085  16.530  66.316  1.00  0.00    -0.300 OA 
BRANCH   3   4
HETATM    4  C   UNL     1     -10.872  15.494  65.914  1.00  0.00    -0.313 A  
HETATM    5  C   UNL     1     -11.477  15.434  64.651  1.00  0.00    -0.339 A  
HETATM    6  C   UNL     1     -12.298  14.359  64.298  1.00  0.00    -0.402 A  
HETATM    7  C   UNL     1     -12.524  13.327  65.207  1.00  0.00    -0.543 A  
HETATM    8  C   UNL     1     -11.918  13.369  66.461  1.00  0.00    -0.452 A  
HETATM    9  C   UNL     1     -11.086  14.440  66.827  1.00  0.00    -0.323 A  
BRANCH   9  10
HETATM   10  O   UNL     1     -10.573  14.293  68.095  1.00  0.00    -0.237 OA 
BRANCH  10  11
HETATM   11  C   UNL     1      -9.198  13.936  68.227  1.00  0.00    -0.207 C  
BRANCH  11  12
HETATM   12  C   UNL     1      -8.890  12.728  67.332  1.00  0.00    -0.190 C  
BRANCH  12  13
HETATM   13  N   UNL     1      -7.641  12.013  67.640  1.00  0.00    -0.126 NA 
HETATM   14  H   UNL     1      -7.693  11.605  68.574  1.00  0.00     0.000 HD 
BRANCH  13  15
HETATM   15  C   UNL     1      -7.240  10.983  66.662  1.00  0.00    -0.143 C  
HETATM   16  C   UNL     1      -8.471  10.685  65.791  1.00  0.00    -0.179 C  
BRANCH  15  17
HETATM   17  C   UNL     1      -6.684   9.685  67.314  1.00  0.00    -0.071 C  
BRANCH  17  18
HETATM   18  C   UNL     1      -7.791   8.826  67.884  1.00  0.00    -0.102 A  
HETATM   19  C   UNL     1      -8.040   7.565  67.332  1.00  0.00    -0.116 A  
HETATM   20  C   UNL     1      -9.196   6.856  67.684  1.00  0.00    -0.119 A  
HETATM   21  C   UNL     1     -10.058   7.344  68.676  1.00  0.00    -0.179 A  
HETATM   22  C   UNL     1      -8.639   9.308  68.883  1.00  0.00    -0.130 A  
HETATM   23  C   UNL     1      -9.751   8.562  69.290  1.00  0.00    -0.173 A  
BRANCH  20  24
HETATM   24  S   UNL     1      -9.657   5.390  66.792  1.00  0.00    -0.160 S  
HETATM   25  O   UNL     1      -9.699   4.292  67.729  1.00  0.00    -0.165 OA 
HETATM   26  N   UNL     1     -11.256   5.646  66.343  1.00  0.00    -0.727 N  
HETATM   27  O   UNL     1      -8.926   5.360  65.547  1.00  0.00    -0.159 OA 
HETATM   28  H1  UNL     1     -11.521   4.805  65.832  1.00  0.00     0.000 HD 
HETATM   29  H2  UNL     1     -11.836   6.462  66.539  1.00  0.00     0.000 HD 
ENDBRANCH  20  24
BRANCH  21  30
HETATM   30  O   UNL     1     -11.157   6.587  68.976  1.00  0.00    -0.302 OA 
HETATM   31  C   UNL     1     -11.504   6.427  70.345  1.00  0.00    -0.393 C  
ENDBRANCH  21  30
ENDBRANCH  17  18
ENDBRANCH  15  17
ENDBRANCH  13  15
ENDBRANCH  12  13
ENDBRANCH  11  12
ENDBRANCH  10  11
ENDBRANCH   9  10
ENDBRANCH   3   4
ENDBRANCH   2   3
TORSDOF 11
ENDMDL
MODEL      282
REMARK 921   NORMALIZED FREE ENERGY PREDICTED BY IDOCK:   -3.94 KCAL/MOL
REMARK 922        TOTAL FREE ENERGY PREDICTED BY IDOCK:   -7.72 KCAL/MOL
REMARK 923 INTER-LIGAND FREE ENERGY PREDICTED BY IDOCK:   -7.15 KCAL/MOL
REMARK 924 INTRA-LIGAND FREE ENERGY PREDICTED BY IDOCK:   -0.57 KCAL/MOL
REMARK 927      BINDING AFFINITY PREDICTED BY RF-SCORE:    0.00 PKD
ROOT
HETATM    1  C   UNL     1      -9.450   5.880  69.516  1.00  0.00    -0.166 C  
HETATM    2  C   UNL     1     -10.353   6.546  70.543  1.00  0.00    -0.201 C  
ENDROOT
BRANCH   2   3
HETATM    3  O   UNL     1     -10.653   7.834  70.020  1.00  0.00    -0.230 OA 
BRANCH   3   4
HETATM    4  C   UNL     1     -11.491   8.680  70.680  1.00  0.00    -0.228 A  
HETATM    5  C   UNL     1     -12.193   8.317  71.838  1.00  0.00    -0.383 A  
HETATM    6  C   UNL     1     -13.062   9.216  72.462  1.00  0.00    -0.445 A  
HETATM    7  C   UNL     1     -13.240  10.493  71.935  1.00  0.00    -0.526 A  
HETATM    8  C   UNL     1     -12.538  10.870  70.791  1.00  0.00    -0.470 A  
HETATM    9  C   UNL     1     -11.657   9.979  70.157  1.00  0.00    -0.252 A  
BRANCH   9  10
HETATM   10  O   UNL     1     -11.051  10.539  69.056  1.00  0.00    -0.219 OA 
BRANCH  10  11
HETATM   11  C   UNL     1     -11.061  11.961  68.934  1.00  0.00    -0.247 C  
BRANCH  11  12
HETATM   12  C   UNL     1     -11.899  12.369  67.716  1.00  0.00    -0.298 C  
BRANCH  12  13
HETATM   13  N   UNL     1     -12.124  13.815  67.557  1.00  0.00    -0.413 NA 
HETATM   14  H   UNL     1     -11.476  14.336  68.148  1.00  0.00     0.000 HD 
BRANCH  13  15
HETATM   15  C   UNL     1     -12.061  14.320  66.172  1.00  0.00    -0.406 C  
HETATM   16  C   UNL     1     -11.870  13.100  65.257  1.00  0.00    -0.400 C  
BRANCH  15  17
HETATM   17  C   UNL     1     -10.942  15.376  65.943  1.00  0.00    -0.293 C  
BRANCH  17  18
HETATM   18  C   UNL     1      -9.713  15.080  66.773  1.00  0.00    -0.253 A  
HETATM   19  C   UNL     1      -9.038  13.867  66.599  1.00  0.00    -0.209 A  
HETATM   20  C   UNL     1      -8.047  13.474  67.508  1.00  0.00    -0.186 A  
HETATM   21  C   UNL     1      -7.638  14.336  68.535  1.00  0.00    -0.127 A  
HETATM   22  C   UNL     1      -9.298  15.948  67.785  1.00  0.00    -0.207 A  
HETATM   23  C   UNL     1      -8.254  15.587  68.644  1.00  0.00    -0.162 A  
BRANCH  20  24
HETATM   24  S   UNL     1      -7.381  11.828  67.454  1.00  0.00    -0.146 S  
HETATM   25  O   UNL     1      -7.842  11.120  68.625  1.00  0.00    -0.123 OA 
HETATM   26  N   UNL     1      -8.161  11.092  66.160  1.00  0.00    -0.218 N  
HETATM   27  O   UNL     1      -5.995  11.905  67.052  1.00  0.00    -0.139 OA 
HETATM   28  H1  UNL     1      -7.779  10.147  66.129  1.00  0.00     0.000 HD 
HETATM   29  H2  UNL     1      -8.862  11.499  65.542  1.00  0.00     0.000 HD 
ENDBRANCH  20  24
BRANCH  21  30
HETATM   30  O   UNL     1      -6.654  13.889  69.372  1.00  0.00    -0.114 OA 
HETATM   31  C   UNL     1      -5.497  14.698  69.538  1.00  0.00    -0.091 C  
ENDBRANCH  21  30
ENDBRANCH  17  18
ENDBRANCH  15  17
ENDBRANCH  13  15
ENDBRANCH  12  13
ENDBRANCH  11  12
ENDBRANCH  10  11
ENDBRANCH   9  10
ENDBRANCH   3   4
ENDBRANCH   2   3
TORSDOF 11
ENDMDL
MODEL      283
REMARK 921   NORMALIZED FREE ENERGY PREDICTED BY IDOCK:   -3.94 KCAL/MOL
REMARK 922        TOTAL FREE ENERGY PREDICTED BY IDOCK:   -7.72 KCAL/MOL
REMARK 923 INTER-LIGAND FREE ENERGY PREDICTED BY IDOCK:   -7.61 KCAL/MOL
REMARK 924 INTRA-LIGAND FREE ENERGY PREDICTED BY IDOCK:   -0.10 KCAL/MOL
REMARK 927      BINDING AFFINITY PREDICTED BY RF-SCORE:    0.00 PKD
ROOT
HETATM    1  C   UNL     1      -5.990   6.410  70.833  1.00  0.00    -0.027 C  
HETATM    2  C   UNL     1      -7.027   7.034  69.911  1.00  0.00    -0.062 C  
ENDROOT
BRANCH   2   3
HETATM    3  O   UNL     1      -8.191   6.226  70.034  1.00  0.00    -0.120 OA 
BRANCH   3   4
HETATM    4  C   UNL     1      -8.763   5.652  68.940  1.00  0.00    -0.107 A  
HETATM    5  C   UNL     1      -8.265   4.491  68.332  1.00  0.00    -0.086 A  
HETATM    6  C   UNL     1      -8.875   3.959  67.193  1.00  0.00    -0.133 A  
HETATM    7  C   UNL     1      -9.995   4.581  66.647  1.00  0.00    -0.253 A  
HETATM    8  C   UNL     1     -10.508   5.729  67.250  1.00  0.00    -0.330 A  
HETATM    9  C   UNL     1      -9.909   6.272  68.398  1.00  0.00    -0.130 A  
BRANCH   9  10
HETATM   10  O   UNL     1     -10.567   7.393  68.850  1.00  0.00    -0.207 OA 
BRANCH  10  11
HETATM   11  C   UNL     1     -10.881   8.414  67.905  1.00  0.00     0.032 C  
BRANCH  11  12
HETATM   12  C   UNL     1     -10.243   9.739  68.344  1.00  0.00    -0.185 C  
BRANCH  12  13
HETATM   13  N   UNL     1      -8.959  10.067  67.705  1.00  0.00    -0.131 NA 
HETATM   14  H   UNL     1      -8.556   9.231  67.281  1.00  0.00     0.000 HD 
BRANCH  13  15
HETATM   15  C   UNL     1      -9.000  11.164  66.719  1.00  0.00    -0.165 C  
HETATM   16  C   UNL     1      -8.538  10.578  65.376  1.00  0.00    -0.188 C  
BRANCH  15  17
HETATM   17  C   UNL     1      -8.141  12.397  67.121  1.00  0.00    -0.167 C  
BRANCH  17  18
HETATM   18  C   UNL     1      -8.839  13.698  66.791  1.00  0.00    -0.150 A  
HETATM   19  C   UNL     1     -10.078  13.672  66.142  1.00  0.00    -0.311 A  
HETATM   20  C   UNL     1     -10.628  14.851  65.622  1.00  0.00    -0.344 A  
HETATM   21  C   UNL     1     -10.005  16.086  65.842  1.00  0.00    -0.352 A  
HETATM   22  C   UNL     1      -8.223  14.928  67.025  1.00  0.00    -0.228 A  
HETATM   23  C   UNL     1      -8.812  16.114  66.573  1.00  0.00    -0.331 A  
BRANCH  20  24
HETATM   24  S   UNL     1     -12.057  14.786  64.568  1.00  0.00    -0.375 S  
HETATM   25  O   UNL     1     -12.125  16.026  63.831  1.00  0.00    -0.880 OA 
HETATM   26  N   UNL     1     -11.692  13.613  63.421  1.00  0.00    -0.640 N  
HETATM   27  O   UNL     1     -13.160  14.233  65.320  1.00  0.00    -0.707 OA 
HETATM   28  H1  UNL     1     -12.511  13.576  62.816  1.00  0.00     0.000 HD 
HETATM   29  H2  UNL     1     -10.838  13.060  63.346  1.00  0.00     0.000 HD 
ENDBRANCH  20  24
BRANCH  21  30
HETATM   30  O   UNL     1     -10.611  17.194  65.318  1.00  0.00    -0.662 OA 
HETATM   31  C   UNL     1     -10.517  18.413  66.043  1.00  0.00    -0.374 C  
ENDBRANCH  21  30
ENDBRANCH  17  18
ENDBRANCH  15  17
ENDBRANCH  13  15
ENDBRANCH  12  13
ENDBRANCH  11  12
ENDBRANCH  10  11
ENDBRANCH   9  10
ENDBRANCH   3   4
ENDBRANCH   2   3
TORSDOF 11
ENDMDL
MODEL      284
REMARK 921   NORMALIZED FREE ENERGY PREDICTED BY IDOCK:   -3.93 KCAL/MOL
REMARK 922        TOTAL FREE ENERGY PREDICTED BY IDOCK:   -7.70 KCAL/MOL
REMARK 923 INTER-LIGAND FREE ENERGY PREDICTED BY IDOCK:   -7.08 KCAL/MOL
REMARK 924 INTRA-LIGAND FREE ENERGY PREDICTED BY IDOCK:   -0.62 KCAL/MOL
REMARK 927      BINDING AFFINITY PREDICTED BY RF-SCORE:    0.00 PKD
ROOT
HETATM    1  C   UNL     1      -6.179   5.897  67.667  1.00  0.00    -0.033 C  
HETATM    2  C   UNL     1      -6.967   5.576  68.928  1.00  0.00    -0.060 C  
ENDROOT
BRANCH   2   3
HETATM    3  O   UNL     1      -7.661   6.770  69.268  1.00  0.00    -0.092 OA 
BRANCH   3   4
HETATM    4  C   UNL     1      -8.969   6.736  69.644  1.00  0.00    -0.143 A  
HETATM    5  C   UNL     1      -9.751   5.573  69.602  1.00  0.00    -0.230 A  
HETATM    6  C   UNL     1     -11.097   5.600  69.974  1.00  0.00    -0.198 A  
HETATM    7  C   UNL     1     -11.680   6.792  70.397  1.00  0.00    -0.418 A  
HETATM    8  C   UNL     1     -10.910   7.952  70.457  1.00  0.00    -0.242 A  
HETATM    9  C   UNL     1      -9.554   7.939  70.090  1.00  0.00    -0.175 A  
BRANCH   9  10
HETATM   10  O   UNL     1      -8.964   9.175  70.229  1.00  0.00    -0.178 OA 
BRANCH  10  11
HETATM   11  C   UNL     1      -9.450  10.246  69.422  1.00  0.00    -0.206 C  
BRANCH  11  12
HETATM   12  C   UNL     1      -9.438   9.828  67.946  1.00  0.00    -0.130 C  
BRANCH  12  13
HETATM   13  N   UNL     1     -10.636  10.192  67.174  1.00  0.00    -0.253 NA 
HETATM   14  H   UNL     1     -11.226  10.820  67.721  1.00  0.00     0.000 HD 
BRANCH  13  15
HETATM   15  C   UNL     1     -10.382  10.772  65.841  1.00  0.00    -0.238 C  
HETATM   16  C   UNL     1      -8.943  11.309  65.850  1.00  0.00    -0.206 C  
BRANCH  15  17
HETATM   17  C   UNL     1     -11.395  11.882  65.440  1.00  0.00    -0.334 C  
BRANCH  17  18
HETATM   18  C   UNL     1     -11.201  13.140  66.257  1.00  0.00    -0.328 A  
HETATM   19  C   UNL     1     -11.485  13.124  67.627  1.00  0.00    -0.366 A  
HETATM   20  C   UNL     1     -11.537  14.322  68.351  1.00  0.00    -0.320 A  
HETATM   21  C   UNL     1     -11.195  15.538  67.745  1.00  0.00    -0.302 A  
HETATM   22  C   UNL     1     -10.845  14.347  65.653  1.00  0.00    -0.320 A  
HETATM   23  C   UNL     1     -10.821  15.532  66.397  1.00  0.00    -0.277 A  
BRANCH  20  24
HETATM   24  S   UNL     1     -12.159  14.339  70.015  1.00  0.00    -0.356 S  
HETATM   25  O   UNL     1     -12.466  12.979  70.391  1.00  0.00    -0.280 OA 
HETATM   26  N   UNL     1     -10.838  14.768  70.963  1.00  0.00    -0.489 N  
HETATM   27  O   UNL     1     -13.082  15.441  70.152  1.00  0.00    -0.183 OA 
HETATM   28  H1  UNL     1     -11.195  14.778  71.918  1.00  0.00     0.000 HD 
HETATM   29  H2  UNL     1      -9.889  14.974  70.652  1.00  0.00     0.000 HD 
ENDBRANCH  20  24
BRANCH  21  30
HETATM   30  O   UNL     1     -11.253  16.662  68.521  1.00  0.00    -0.344 OA 
HETATM   31  C   UNL     1     -10.228  17.635  68.368  1.00  0.00    -0.381 C  
ENDBRANCH  21  30
ENDBRANCH  17  18
ENDBRANCH  15  17
ENDBRANCH  13  15
ENDBRANCH  12  13
ENDBRANCH  11  12
ENDBRANCH  10  11
ENDBRANCH   9  10
ENDBRANCH   3   4
ENDBRANCH   2   3
TORSDOF 11
ENDMDL
MODEL      285
REMARK 921   NORMALIZED FREE ENERGY PREDICTED BY IDOCK:   -3.92 KCAL/MOL
REMARK 922        TOTAL FREE ENERGY PREDICTED BY IDOCK:   -7.68 KCAL/MOL
REMARK 923 INTER-LIGAND FREE ENERGY PREDICTED BY IDOCK:   -5.29 KCAL/MOL
REMARK 924 INTRA-LIGAND FREE ENERGY PREDICTED BY IDOCK:   -2.39 KCAL/MOL
REMARK 927      BINDING AFFINITY PREDICTED BY RF-SCORE:    0.00 PKD
ROOT
HETATM    1  C   UNL     1      -9.934   6.415  74.520  1.00  0.00    -0.370 C  
HETATM    2  C   UNL     1      -8.934   7.449  74.026  1.00  0.00    -0.239 C  
ENDROOT
BRANCH   2   3
HETATM    3  O   UNL     1      -8.904   7.314  72.610  1.00  0.00    -0.123 OA 
BRANCH   3   4
HETATM    4  C   UNL     1      -7.726   7.138  71.949  1.00  0.00    -0.091 A  
HETATM    5  C   UNL     1      -6.629   6.461  72.500  1.00  0.00    -0.064 A  
HETATM    6  C   UNL     1      -5.433   6.333  71.789  1.00  0.00    -0.027 A  
HETATM    7  C   UNL     1      -5.320   6.880  70.513  1.00  0.00    -0.023 A  
HETATM    8  C   UNL     1      -6.408   7.544  69.949  1.00  0.00    -0.027 A  
HETATM    9  C   UNL     1      -7.617   7.676  70.650  1.00  0.00    -0.080 A  
BRANCH   9  10
HETATM   10  O   UNL     1      -8.572   8.349  69.922  1.00  0.00    -0.127 OA 
BRANCH  10  11
HETATM   11  C   UNL     1      -8.828   9.714  70.250  1.00  0.00    -0.211 C  
BRANCH  11  12
HETATM   12  C   UNL     1     -10.339   9.937  70.391  1.00  0.00    -0.260 C  
BRANCH  12  13
HETATM   13  N   UNL     1     -10.964   9.318  71.572  1.00  0.00    -0.360 NA 
HETATM   14  H   UNL     1     -11.178  10.033  72.268  1.00  0.00     0.000 HD 
BRANCH  13  15
HETATM   15  C   UNL     1     -12.162   8.501  71.303  1.00  0.00    -0.277 C  
HETATM   16  C   UNL     1     -13.283   9.034  72.209  1.00  0.00    -0.519 C  
BRANCH  15  17
HETATM   17  C   UNL     1     -11.940   6.977  71.521  1.00  0.00    -0.372 C  
BRANCH  17  18
HETATM   18  C   UNL     1     -11.364   6.312  70.291  1.00  0.00    -0.457 A  
HETATM   19  C   UNL     1     -10.493   5.227  70.436  1.00  0.00    -0.322 A  
HETATM   20  C   UNL     1      -9.771   4.748  69.335  1.00  0.00    -0.196 A  
HETATM   21  C   UNL     1      -9.995   5.271  68.054  1.00  0.00    -0.152 A  
HETATM   22  C   UNL     1     -11.600   6.825  69.014  1.00  0.00     0.048 A  
HETATM   23  C   UNL     1     -10.937   6.293  67.902  1.00  0.00    -0.421 A  
BRANCH  20  24
HETATM   24  S   UNL     1      -8.470   3.560  69.562  1.00  0.00    -0.064 S  
HETATM   25  O   UNL     1      -7.232   4.164  69.129  1.00  0.00    -0.050 OA 
HETATM   26  N   UNL     1      -8.322   3.398  71.228  1.00  0.00    -0.066 N  
HETATM   27  O   UNL     1      -8.940   2.271  69.109  1.00  0.00    -0.085 OA 
HETATM   28  H1  UNL     1      -7.576   2.716  71.358  1.00  0.00     0.000 HD 
HETATM   29  H2  UNL     1      -8.860   3.877  71.950  1.00  0.00     0.000 HD 
ENDBRANCH  20  24
BRANCH  21  30
HETATM   30  O   UNL     1      -9.264   4.741  67.027  1.00  0.00    -0.118 OA 
HETATM   31  C   UNL     1      -9.940   4.433  65.815  1.00  0.00    -0.239 C  
ENDBRANCH  21  30
ENDBRANCH  17  18
ENDBRANCH  15  17
ENDBRANCH  13  15
ENDBRANCH  12  13
ENDBRANCH  11  12
ENDBRANCH  10  11
ENDBRANCH   9  10
ENDBRANCH   3   4
ENDBRANCH   2   3
TORSDOF 11
ENDMDL
MODEL      286
REMARK 921   NORMALIZED FREE ENERGY PREDICTED BY IDOCK:   -3.91 KCAL/MOL
REMARK 922        TOTAL FREE ENERGY PREDICTED BY IDOCK:   -7.67 KCAL/MOL
REMARK 923 INTER-LIGAND FREE ENERGY PREDICTED BY IDOCK:   -6.63 KCAL/MOL
REMARK 924 INTRA-LIGAND FREE ENERGY PREDICTED BY IDOCK:   -1.04 KCAL/MOL
REMARK 927      BINDING AFFINITY PREDICTED BY RF-SCORE:    0.00 PKD
ROOT
HETATM    1  C   UNL     1      -9.288  15.835  66.412  1.00  0.00    -0.333 C  
HETATM    2  C   UNL     1      -8.983  14.713  67.393  1.00  0.00    -0.195 C  
ENDROOT
BRANCH   2   3
HETATM    3  O   UNL     1     -10.199  13.992  67.548  1.00  0.00    -0.241 OA 
BRANCH   3   4
HETATM    4  C   UNL     1     -10.831  13.445  66.473  1.00  0.00    -0.282 A  
HETATM    5  C   UNL     1     -12.021  13.958  65.938  1.00  0.00    -0.429 A  
HETATM    6  C   UNL     1     -12.642  13.342  64.849  1.00  0.00    -0.444 A  
HETATM    7  C   UNL     1     -12.079  12.203  64.278  1.00  0.00    -0.465 A  
HETATM    8  C   UNL     1     -10.889  11.691  64.792  1.00  0.00    -0.367 A  
HETATM    9  C   UNL     1     -10.250  12.303  65.883  1.00  0.00    -0.249 A  
BRANCH   9  10
HETATM   10  O   UNL     1      -9.086  11.660  66.234  1.00  0.00    -0.210 OA 
BRANCH  10  11
HETATM   11  C   UNL     1      -9.163  10.604  67.191  1.00  0.00    -0.147 C  
BRANCH  11  12
HETATM   12  C   UNL     1      -8.688  11.111  68.559  1.00  0.00    -0.161 C  
BRANCH  12  13
HETATM   13  N   UNL     1      -9.474  10.649  69.714  1.00  0.00    -0.388 NA 
HETATM   14  H   UNL     1      -9.584  11.408  70.387  1.00  0.00     0.000 HD 
BRANCH  13  15
HETATM   15  C   UNL     1     -10.790  10.064  69.395  1.00  0.00    -0.239 C  
HETATM   16  C   UNL     1     -11.811  11.212  69.415  1.00  0.00    -0.415 C  
BRANCH  15  17
HETATM   17  C   UNL     1     -11.214   8.918  70.357  1.00  0.00    -0.259 C  
BRANCH  17  18
HETATM   18  C   UNL     1     -10.273   7.736  70.272  1.00  0.00    -0.199 A  
HETATM   19  C   UNL     1      -9.971   7.183  69.022  1.00  0.00    -0.174 A  
HETATM   20  C   UNL     1      -9.297   5.958  68.937  1.00  0.00    -0.126 A  
HETATM   21  C   UNL     1      -8.815   5.327  70.091  1.00  0.00    -0.125 A  
HETATM   22  C   UNL     1      -9.782   7.118  71.422  1.00  0.00    -0.170 A  
HETATM   23  C   UNL     1      -9.040   5.934  71.330  1.00  0.00    -0.148 A  
BRANCH  20  24
HETATM   24  S   UNL     1      -9.151   5.121  67.376  1.00  0.00    -0.115 S  
HETATM   25  O   UNL     1      -9.910   3.895  67.454  1.00  0.00    -0.168 OA 
HETATM   26  N   UNL     1      -9.991   6.090  66.289  1.00  0.00    -0.364 N  
HETATM   27  O   UNL     1      -7.775   5.191  66.942  1.00  0.00    -0.091 OA 
HETATM   28  H1  UNL     1      -9.907   5.609  65.394  1.00  0.00     0.000 HD 
HETATM   29  H2  UNL     1     -10.477   6.965  66.482  1.00  0.00     0.000 HD 
ENDBRANCH  20  24
BRANCH  21  30
HETATM   30  O   UNL     1      -8.152   4.143  69.925  1.00  0.00    -0.055 OA 
HETATM   31  C   UNL     1      -8.625   3.006  70.636  1.00  0.00    -0.067 C  
ENDBRANCH  21  30
ENDBRANCH  17  18
ENDBRANCH  15  17
ENDBRANCH  13  15
ENDBRANCH  12  13
ENDBRANCH  11  12
ENDBRANCH  10  11
ENDBRANCH   9  10
ENDBRANCH   3   4
ENDBRANCH   2   3
TORSDOF 11
ENDMDL
MODEL      287
REMARK 921   NORMALIZED FREE ENERGY PREDICTED BY IDOCK:   -3.91 KCAL/MOL
REMARK 922        TOTAL FREE ENERGY PREDICTED BY IDOCK:   -7.66 KCAL/MOL
REMARK 923 INTER-LIGAND FREE ENERGY PREDICTED BY IDOCK:   -7.13 KCAL/MOL
REMARK 924 INTRA-LIGAND FREE ENERGY PREDICTED BY IDOCK:   -0.53 KCAL/MOL
REMARK 927      BINDING AFFINITY PREDICTED BY RF-SCORE:    0.00 PKD
ROOT
HETATM    1  C   UNL     1     -11.717  16.008  70.384  1.00  0.00    -0.326 C  
HETATM    2  C   UNL     1     -11.054  14.897  69.585  1.00  0.00    -0.276 C  
ENDROOT
BRANCH   2   3
HETATM    3  O   UNL     1     -12.031  14.452  68.653  1.00  0.00    -0.326 OA 
BRANCH   3   4
HETATM    4  C   UNL     1     -11.664  13.882  67.472  1.00  0.00    -0.380 A  
HETATM    5  C   UNL     1     -11.153  14.615  66.391  1.00  0.00    -0.334 A  
HETATM    6  C   UNL     1     -10.816  13.983  65.191  1.00  0.00    -0.376 A  
HETATM    7  C   UNL     1     -10.985  12.607  65.056  1.00  0.00    -0.323 A  
HETATM    8  C   UNL     1     -11.479  11.866  66.128  1.00  0.00    -0.352 A  
HETATM    9  C   UNL     1     -11.817  12.486  67.342  1.00  0.00    -0.312 A  
BRANCH   9  10
HETATM   10  O   UNL     1     -12.273  11.587  68.279  1.00  0.00    -0.561 OA 
BRANCH  10  11
HETATM   11  C   UNL     1     -11.685  11.614  69.578  1.00  0.00    -0.344 C  
BRANCH  11  12
HETATM   12  C   UNL     1     -10.976  10.281  69.853  1.00  0.00    -0.303 C  
BRANCH  12  13
HETATM   13  N   UNL     1     -11.161   9.242  68.828  1.00  0.00    -0.453 NA 
HETATM   14  H   UNL     1     -11.456   9.667  67.949  1.00  0.00     0.000 HD 
BRANCH  13  15
HETATM   15  C   UNL     1     -10.000   8.361  68.598  1.00  0.00    -0.184 C  
HETATM   16  C   UNL     1      -9.124   8.433  69.859  1.00  0.00    -0.146 C  
BRANCH  15  17
HETATM   17  C   UNL     1      -9.184   8.724  67.325  1.00  0.00    -0.165 C  
BRANCH  17  18
HETATM   18  C   UNL     1      -8.478   7.516  66.747  1.00  0.00    -0.124 A  
HETATM   19  C   UNL     1      -9.222   6.532  66.088  1.00  0.00    -0.126 A  
HETATM   20  C   UNL     1      -8.632   5.306  65.753  1.00  0.00    -0.139 A  
HETATM   21  C   UNL     1      -7.265   5.090  65.970  1.00  0.00    -0.076 A  
HETATM   22  C   UNL     1      -7.113   7.311  66.951  1.00  0.00    -0.086 A  
HETATM   23  C   UNL     1      -6.507   6.116  66.546  1.00  0.00    -0.046 A  
BRANCH  20  24
HETATM   24  S   UNL     1      -9.631   3.959  65.166  1.00  0.00    -0.189 S  
HETATM   25  O   UNL     1      -9.604   2.916  66.164  1.00  0.00    -0.022 OA 
HETATM   26  N   UNL     1     -11.204   4.550  65.190  1.00  0.00    -0.978 N  
HETATM   27  O   UNL     1      -9.340   3.746  63.768  1.00  0.00    -0.122 OA 
HETATM   28  H1  UNL     1     -11.778   3.777  64.854  1.00  0.00     0.000 HD 
HETATM   29  H2  UNL     1     -11.518   5.476  65.478  1.00  0.00     0.000 HD 
ENDBRANCH  20  24
BRANCH  21  30
HETATM   30  O   UNL     1      -6.758   3.875  65.602  1.00  0.00    -0.046 OA 
HETATM   31  C   UNL     1      -5.463   3.521  66.070  1.00  0.00    -0.017 C  
ENDBRANCH  21  30
ENDBRANCH  17  18
ENDBRANCH  15  17
ENDBRANCH  13  15
ENDBRANCH  12  13
ENDBRANCH  11  12
ENDBRANCH  10  11
ENDBRANCH   9  10
ENDBRANCH   3   4
ENDBRANCH   2   3
TORSDOF 11
ENDMDL
MODEL      288
REMARK 921   NORMALIZED FREE ENERGY PREDICTED BY IDOCK:   -3.90 KCAL/MOL
REMARK 922        TOTAL FREE ENERGY PREDICTED BY IDOCK:   -7.66 KCAL/MOL
REMARK 923 INTER-LIGAND FREE ENERGY PREDICTED BY IDOCK:   -6.52 KCAL/MOL
REMARK 924 INTRA-LIGAND FREE ENERGY PREDICTED BY IDOCK:   -1.13 KCAL/MOL
REMARK 927      BINDING AFFINITY PREDICTED BY RF-SCORE:    0.00 PKD
ROOT
HETATM    1  C   UNL     1      -9.153  12.781  67.979  1.00  0.00    -0.207 C  
HETATM    2  C   UNL     1      -8.685  11.482  67.342  1.00  0.00    -0.147 C  
ENDROOT
BRANCH   2   3
HETATM    3  O   UNL     1      -9.841  10.901  66.751  1.00  0.00    -0.186 OA 
BRANCH   3   4
HETATM    4  C   UNL     1     -10.485  11.517  65.721  1.00  0.00    -0.259 A  
HETATM    5  C   UNL     1     -11.697  12.204  65.875  1.00  0.00    -0.393 A  
HETATM    6  C   UNL     1     -12.331  12.796  64.779  1.00  0.00    -0.540 A  
HETATM    7  C   UNL     1     -11.757  12.709  63.512  1.00  0.00    -0.604 A  
HETATM    8  C   UNL     1     -10.545  12.040  63.349  1.00  0.00    -0.478 A  
HETATM    9  C   UNL     1      -9.895  11.445  64.442  1.00  0.00    -0.261 A  
BRANCH   9  10
HETATM   10  O   UNL     1      -8.710  10.846  64.082  1.00  0.00    -0.119 OA 
BRANCH  10  11
HETATM   11  C   UNL     1      -8.768   9.672  63.274  1.00  0.00    -0.230 C  
BRANCH  11  12
HETATM   12  C   UNL     1      -8.407   8.444  64.119  1.00  0.00    -0.074 C  
BRANCH  12  13
HETATM   13  N   UNL     1      -7.368   8.659  65.138  1.00  0.00    -0.087 NA 
HETATM   14  H   UNL     1      -7.265   9.657  65.327  1.00  0.00     0.000 HD 
BRANCH  13  15
HETATM   15  C   UNL     1      -7.554   7.923  66.403  1.00  0.00    -0.091 C  
HETATM   16  C   UNL     1      -6.251   7.155  66.673  1.00  0.00    -0.039 C  
BRANCH  15  17
HETATM   17  C   UNL     1      -8.779   6.965  66.393  1.00  0.00    -0.147 C  
BRANCH  17  18
HETATM   18  C   UNL     1      -9.527   6.995  67.707  1.00  0.00    -0.132 A  
HETATM   19  C   UNL     1      -8.943   7.612  68.819  1.00  0.00    -0.133 A  
HETATM   20  C   UNL     1      -9.505   7.451  70.092  1.00  0.00    -0.165 A  
HETATM   21  C   UNL     1     -10.718   6.768  70.256  1.00  0.00    -0.244 A  
HETATM   22  C   UNL     1     -10.742   6.327  67.864  1.00  0.00    -0.380 A  
HETATM   23  C   UNL     1     -11.343   6.233  69.125  1.00  0.00    -0.358 A  
BRANCH  20  24
HETATM   24  S   UNL     1      -8.628   7.999  71.537  1.00  0.00    -0.139 S  
HETATM   25  O   UNL     1      -8.084   6.836  72.198  1.00  0.00    -0.100 OA 
HETATM   26  N   UNL     1      -7.294   8.829  70.940  1.00  0.00    -0.076 N  
HETATM   27  O   UNL     1      -9.420   9.008  72.202  1.00  0.00    -0.340 OA 
HETATM   28  H1  UNL     1      -6.791   9.144  71.769  1.00  0.00     0.000 HD 
HETATM   29  H2  UNL     1      -7.043   8.984  69.964  1.00  0.00     0.000 HD 
ENDBRANCH  20  24
BRANCH  21  30
HETATM   30  O   UNL     1     -11.212   6.666  71.527  1.00  0.00    -0.248 OA 
HETATM   31  C   UNL     1     -12.441   7.316  71.820  1.00  0.00    -0.343 C  
ENDBRANCH  21  30
ENDBRANCH  17  18
ENDBRANCH  15  17
ENDBRANCH  13  15
ENDBRANCH  12  13
ENDBRANCH  11  12
ENDBRANCH  10  11
ENDBRANCH   9  10
ENDBRANCH   3   4
ENDBRANCH   2   3
TORSDOF 11
ENDMDL
MODEL      289
REMARK 921   NORMALIZED FREE ENERGY PREDICTED BY IDOCK:   -3.90 KCAL/MOL
REMARK 922        TOTAL FREE ENERGY PREDICTED BY IDOCK:   -7.65 KCAL/MOL
REMARK 923 INTER-LIGAND FREE ENERGY PREDICTED BY IDOCK:   -7.69 KCAL/MOL
REMARK 924 INTRA-LIGAND FREE ENERGY PREDICTED BY IDOCK:    0.03 KCAL/MOL
REMARK 927      BINDING AFFINITY PREDICTED BY RF-SCORE:    0.00 PKD
ROOT
HETATM    1  C   UNL     1     -11.481  14.308  69.476  1.00  0.00    -0.336 C  
HETATM    2  C   UNL     1     -11.831  15.723  69.042  1.00  0.00    -0.355 C  
ENDROOT
BRANCH   2   3
HETATM    3  O   UNL     1     -10.634  16.479  69.179  1.00  0.00    -0.278 OA 
BRANCH   3   4
HETATM    4  C   UNL     1     -10.379  17.539  68.364  1.00  0.00    -0.378 A  
HETATM    5  C   UNL     1     -10.120  18.832  68.841  1.00  0.00    -0.360 A  
HETATM    6  C   UNL     1      -9.891  19.891  67.959  1.00  0.00    -0.534 A  
HETATM    7  C   UNL     1      -9.917  19.670  66.584  1.00  0.00    -0.532 A  
HETATM    8  C   UNL     1     -10.161  18.387  66.097  1.00  0.00    -0.408 A  
HETATM    9  C   UNL     1     -10.388  17.312  66.971  1.00  0.00    -0.318 A  
BRANCH   9  10
HETATM   10  O   UNL     1     -10.595  16.128  66.302  1.00  0.00    -0.310 OA 
BRANCH  10  11
HETATM   11  C   UNL     1      -9.539  15.169  66.289  1.00  0.00    -0.297 C  
BRANCH  11  12
HETATM   12  C   UNL     1     -10.059  13.835  65.738  1.00  0.00    -0.307 C  
BRANCH  12  13
HETATM   13  N   UNL     1      -9.998  12.697  66.668  1.00  0.00    -0.237 NA 
HETATM   14  H   UNL     1     -10.291  12.992  67.600  1.00  0.00     0.000 HD 
BRANCH  13  15
HETATM   15  C   UNL     1     -10.754  11.498  66.258  1.00  0.00    -0.272 C  
HETATM   16  C   UNL     1     -11.127  10.740  67.542  1.00  0.00    -0.374 C  
BRANCH  15  17
HETATM   17  C   UNL     1      -9.981  10.581  65.268  1.00  0.00    -0.364 C  
BRANCH  17  18
HETATM   18  C   UNL     1      -9.133   9.560  65.994  1.00  0.00    -0.220 A  
HETATM   19  C   UNL     1      -9.472   8.204  65.922  1.00  0.00    -0.082 A  
HETATM   20  C   UNL     1      -8.849   7.275  66.765  1.00  0.00    -0.134 A  
HETATM   21  C   UNL     1      -7.802   7.667  67.609  1.00  0.00    -0.123 A  
HETATM   22  C   UNL     1      -8.081   9.952  66.823  1.00  0.00    -0.117 A  
HETATM   23  C   UNL     1      -7.407   9.009  67.607  1.00  0.00    -0.084 A  
BRANCH  20  24
HETATM   24  S   UNL     1      -9.459   5.610  66.872  1.00  0.00    -0.143 S  
HETATM   25  O   UNL     1      -9.589   5.270  68.269  1.00  0.00    -0.119 OA 
HETATM   26  N   UNL     1     -11.035   5.692  66.293  1.00  0.00    -0.748 N  
HETATM   27  O   UNL     1      -8.756   4.798  65.907  1.00  0.00    -0.119 OA 
HETATM   28  H1  UNL     1     -11.386   4.737  66.354  1.00  0.00     0.000 HD 
HETATM   29  H2  UNL     1     -11.532   6.516  65.954  1.00  0.00     0.000 HD 
ENDBRANCH  20  24
BRANCH  21  30
HETATM   30  O   UNL     1      -7.233   6.700  68.390  1.00  0.00    -0.080 OA 
HETATM   31  C   UNL     1      -6.980   7.006  69.755  1.00  0.00    -0.059 C  
ENDBRANCH  21  30
ENDBRANCH  17  18
ENDBRANCH  15  17
ENDBRANCH  13  15
ENDBRANCH  12  13
ENDBRANCH  11  12
ENDBRANCH  10  11
ENDBRANCH   9  10
ENDBRANCH   3   4
ENDBRANCH   2   3
TORSDOF 11
ENDMDL
MODEL      290
REMARK 921   NORMALIZED FREE ENERGY PREDICTED BY IDOCK:   -3.89 KCAL/MOL
REMARK 922        TOTAL FREE ENERGY PREDICTED BY IDOCK:   -7.63 KCAL/MOL
REMARK 923 INTER-LIGAND FREE ENERGY PREDICTED BY IDOCK:   -6.63 KCAL/MOL
REMARK 924 INTRA-LIGAND FREE ENERGY PREDICTED BY IDOCK:   -1.00 KCAL/MOL
REMARK 927      BINDING AFFINITY PREDICTED BY RF-SCORE:    0.00 PKD
ROOT
HETATM    1  C   UNL     1     -10.332  19.164  66.042  1.00  0.00    -0.538 C  
HETATM    2  C   UNL     1     -10.275  17.876  66.848  1.00  0.00    -0.358 C  
ENDROOT
BRANCH   2   3
HETATM    3  O   UNL     1      -9.799  16.878  65.953  1.00  0.00    -0.462 OA 
BRANCH   3   4
HETATM    4  C   UNL     1     -10.583  15.821  65.604  1.00  0.00    -0.377 A  
HETATM    5  C   UNL     1     -11.485  15.855  64.531  1.00  0.00    -0.287 A  
HETATM    6  C   UNL     1     -12.286  14.750  64.232  1.00  0.00    -0.345 A  
HETATM    7  C   UNL     1     -12.194  13.593  65.003  1.00  0.00    -0.450 A  
HETATM    8  C   UNL     1     -11.292  13.543  66.064  1.00  0.00    -0.327 A  
HETATM    9  C   UNL     1     -10.477  14.643  66.373  1.00  0.00    -0.295 A  
BRANCH   9  10
HETATM   10  O   UNL     1      -9.646  14.395  67.442  1.00  0.00    -0.210 OA 
BRANCH  10  11
HETATM   11  C   UNL     1      -8.479  13.606  67.217  1.00  0.00    -0.194 C  
BRANCH  11  12
HETATM   12  C   UNL     1      -8.155  12.792  68.476  1.00  0.00    -0.080 C  
BRANCH  12  13
HETATM   13  N   UNL     1      -8.264  11.331  68.333  1.00  0.00    -0.142 NA 
HETATM   14  H   UNL     1      -7.555  10.871  68.906  1.00  0.00     0.000 HD 
BRANCH  13  15
HETATM   15  C   UNL     1      -9.594  10.761  68.621  1.00  0.00    -0.187 C  
HETATM   16  C   UNL     1      -9.392   9.656  69.670  1.00  0.00    -0.226 C  
BRANCH  15  17
HETATM   17  C   UNL     1     -10.324  10.214  67.361  1.00  0.00    -0.289 C  
BRANCH  17  18
HETATM   18  C   UNL     1      -9.953   8.775  67.078  1.00  0.00    -0.307 A  
HETATM   19  C   UNL     1      -8.759   8.490  66.407  1.00  0.00    -0.153 A  
HETATM   20  C   UNL     1      -8.508   7.196  65.931  1.00  0.00    -0.147 A  
HETATM   21  C   UNL     1      -9.391   6.147  66.217  1.00  0.00    -0.134 A  
HETATM   22  C   UNL     1     -10.827   7.730  67.378  1.00  0.00    -0.207 A  
HETATM   23  C   UNL     1     -10.538   6.423  66.970  1.00  0.00    -0.396 A  
BRANCH  20  24
HETATM   24  S   UNL     1      -7.133   6.888  64.849  1.00  0.00    -0.064 S  
HETATM   25  O   UNL     1      -6.195   7.976  64.997  1.00  0.00    -0.045 OA 
HETATM   26  N   UNL     1      -6.360   5.549  65.508  1.00  0.00    -0.037 N  
HETATM   27  O   UNL     1      -7.640   6.430  63.577  1.00  0.00    -0.075 OA 
HETATM   28  H1  UNL     1      -5.570   5.373  64.887  1.00  0.00     0.000 HD 
HETATM   29  H2  UNL     1      -6.622   5.028  66.344  1.00  0.00     0.000 HD 
ENDBRANCH  20  24
BRANCH  21  30
HETATM   30  O   UNL     1      -9.071   4.910  65.732  1.00  0.00    -0.138 OA 
HETATM   31  C   UNL     1     -10.032   4.235  64.931  1.00  0.00    -0.168 C  
ENDBRANCH  21  30
ENDBRANCH  17  18
ENDBRANCH  15  17
ENDBRANCH  13  15
ENDBRANCH  12  13
ENDBRANCH  11  12
ENDBRANCH  10  11
ENDBRANCH   9  10
ENDBRANCH   3   4
ENDBRANCH   2   3
TORSDOF 11
ENDMDL
MODEL      291
REMARK 921   NORMALIZED FREE ENERGY PREDICTED BY IDOCK:   -3.89 KCAL/MOL
REMARK 922        TOTAL FREE ENERGY PREDICTED BY IDOCK:   -7.63 KCAL/MOL
REMARK 923 INTER-LIGAND FREE ENERGY PREDICTED BY IDOCK:   -7.10 KCAL/MOL
REMARK 924 INTRA-LIGAND FREE ENERGY PREDICTED BY IDOCK:   -0.53 KCAL/MOL
REMARK 927      BINDING AFFINITY PREDICTED BY RF-SCORE:    0.00 PKD
ROOT
HETATM    1  C   UNL     1     -10.383   7.269  68.504  1.00  0.00    -0.210 C  
HETATM    2  C   UNL     1     -10.593   8.735  68.159  1.00  0.00    -0.147 C  
ENDROOT
BRANCH   2   3
HETATM    3  O   UNL     1      -9.305   9.337  68.220  1.00  0.00    -0.134 OA 
BRANCH   3   4
HETATM    4  C   UNL     1      -8.211   8.699  67.719  1.00  0.00    -0.118 A  
HETATM    5  C   UNL     1      -7.143   8.265  68.516  1.00  0.00    -0.077 A  
HETATM    6  C   UNL     1      -6.030   7.640  67.947  1.00  0.00    -0.040 A  
HETATM    7  C   UNL     1      -5.973   7.439  66.569  1.00  0.00    -0.036 A  
HETATM    8  C   UNL     1      -7.034   7.856  65.768  1.00  0.00    -0.056 A  
HETATM    9  C   UNL     1      -8.161   8.480  66.327  1.00  0.00    -0.107 A  
BRANCH   9  10
HETATM   10  O   UNL     1      -9.103   8.803  65.378  1.00  0.00    -0.200 OA 
BRANCH  10  11
HETATM   11  C   UNL     1      -8.762   9.784  64.399  1.00  0.00    -0.206 C  
BRANCH  11  12
HETATM   12  C   UNL     1      -9.123  11.181  64.920  1.00  0.00    -0.095 C  
BRANCH  12  13
HETATM   13  N   UNL     1     -10.472  11.317  65.491  1.00  0.00    -0.264 NA 
HETATM   14  H   UNL     1     -10.453  11.959  66.284  1.00  0.00     0.000 HD 
BRANCH  13  15
HETATM   15  C   UNL     1     -11.527  11.720  64.542  1.00  0.00    -0.250 C  
HETATM   16  C   UNL     1     -10.822  12.242  63.280  1.00  0.00    -0.359 C  
BRANCH  15  17
HETATM   17  C   UNL     1     -12.511  12.780  65.115  1.00  0.00    -0.565 C  
BRANCH  17  18
HETATM   18  C   UNL     1     -11.799  13.796  65.980  1.00  0.00    -0.415 A  
HETATM   19  C   UNL     1     -11.905  13.713  67.372  1.00  0.00    -0.429 A  
HETATM   20  C   UNL     1     -11.454  14.766  68.179  1.00  0.00    -0.323 A  
HETATM   21  C   UNL     1     -10.789  15.863  67.615  1.00  0.00    -0.312 A  
HETATM   22  C   UNL     1     -11.123  14.880  65.416  1.00  0.00    -0.366 A  
HETATM   23  C   UNL     1     -10.604  15.893  66.229  1.00  0.00    -0.301 A  
BRANCH  20  24
HETATM   24  S   UNL     1     -11.829  14.791  69.916  1.00  0.00    -0.336 S  
HETATM   25  O   UNL     1     -10.636  15.189  70.625  1.00  0.00    -0.203 OA 
HETATM   26  N   UNL     1     -12.900  16.072  70.105  1.00  0.00    -0.600 N  
HETATM   27  O   UNL     1     -12.604  13.615  70.237  1.00  0.00    -0.277 OA 
HETATM   28  H1  UNL     1     -13.115  16.087  71.102  1.00  0.00     0.000 HD 
HETATM   29  H2  UNL     1     -13.257  16.698  69.384  1.00  0.00     0.000 HD 
ENDBRANCH  20  24
BRANCH  21  30
HETATM   30  O   UNL     1     -10.363  16.842  68.468  1.00  0.00    -0.292 OA 
HETATM   31  C   UNL     1     -10.285  18.173  67.974  1.00  0.00    -0.380 C  
ENDBRANCH  21  30
ENDBRANCH  17  18
ENDBRANCH  15  17
ENDBRANCH  13  15
ENDBRANCH  12  13
ENDBRANCH  11  12
ENDBRANCH  10  11
ENDBRANCH   9  10
ENDBRANCH   3   4
ENDBRANCH   2   3
TORSDOF 11
ENDMDL
MODEL      292
REMARK 921   NORMALIZED FREE ENERGY PREDICTED BY IDOCK:   -3.89 KCAL/MOL
REMARK 922        TOTAL FREE ENERGY PREDICTED BY IDOCK:   -7.63 KCAL/MOL
REMARK 923 INTER-LIGAND FREE ENERGY PREDICTED BY IDOCK:   -6.19 KCAL/MOL
REMARK 924 INTRA-LIGAND FREE ENERGY PREDICTED BY IDOCK:   -1.44 KCAL/MOL
REMARK 927      BINDING AFFINITY PREDICTED BY RF-SCORE:    0.00 PKD
ROOT
HETATM    1  C   UNL     1      -6.210   8.201  69.393  1.00  0.00    -0.034 C  
HETATM    2  C   UNL     1      -7.452   7.428  69.808  1.00  0.00    -0.092 C  
ENDROOT
BRANCH   2   3
HETATM    3  O   UNL     1      -8.213   8.320  70.613  1.00  0.00    -0.103 OA 
BRANCH   3   4
HETATM    4  C   UNL     1      -8.892   7.871  71.705  1.00  0.00    -0.126 A  
HETATM    5  C   UNL     1      -8.278   7.189  72.765  1.00  0.00    -0.121 A  
HETATM    6  C   UNL     1      -9.027   6.725  73.850  1.00  0.00    -0.183 A  
HETATM    7  C   UNL     1     -10.403   6.939  73.889  1.00  0.00    -0.398 A  
HETATM    8  C   UNL     1     -11.023   7.627  72.847  1.00  0.00    -0.456 A  
HETATM    9  C   UNL     1     -10.282   8.104  71.754  1.00  0.00    -0.212 A  
BRANCH   9  10
HETATM   10  O   UNL     1     -11.069   8.766  70.840  1.00  0.00    -0.247 OA 
BRANCH  10  11
HETATM   11  C   UNL     1     -11.432  10.117  71.120  1.00  0.00    -0.307 C  
BRANCH  11  12
HETATM   12  C   UNL     1     -11.980  10.779  69.849  1.00  0.00    -0.342 C  
BRANCH  12  13
HETATM   13  N   UNL     1     -11.330  12.041  69.460  1.00  0.00    -0.426 NA 
HETATM   14  H   UNL     1     -10.852  12.449  70.264  1.00  0.00     0.000 HD 
BRANCH  13  15
HETATM   15  C   UNL     1     -10.406  11.954  68.314  1.00  0.00    -0.201 C  
HETATM   16  C   UNL     1     -11.238  11.519  67.097  1.00  0.00    -0.365 C  
BRANCH  15  17
HETATM   17  C   UNL     1      -9.209  10.990  68.549  1.00  0.00    -0.177 C  
BRANCH  17  18
HETATM   18  C   UNL     1      -9.146   9.905  67.496  1.00  0.00    -0.145 A  
HETATM   19  C   UNL     1      -9.847   8.710  67.693  1.00  0.00    -0.229 A  
HETATM   20  C   UNL     1      -9.619   7.612  66.853  1.00  0.00    -0.193 A  
HETATM   21  C   UNL     1      -8.777   7.728  65.740  1.00  0.00    -0.133 A  
HETATM   22  C   UNL     1      -8.318  10.029  66.379  1.00  0.00    -0.126 A  
HETATM   23  C   UNL     1      -8.152   8.955  65.497  1.00  0.00    -0.112 A  
BRANCH  20  24
HETATM   24  S   UNL     1     -10.295   6.019  67.257  1.00  0.00    -0.257 S  
HETATM   25  O   UNL     1     -11.329   6.209  68.246  1.00  0.00    -0.253 OA 
HETATM   26  N   UNL     1     -11.102   5.530  65.866  1.00  0.00    -0.706 N  
HETATM   27  O   UNL     1      -9.207   5.080  67.398  1.00  0.00    -0.114 OA 
HETATM   28  H1  UNL     1     -11.490   4.616  66.097  1.00  0.00     0.000 HD 
HETATM   29  H2  UNL     1     -11.187   6.036  64.985  1.00  0.00     0.000 HD 
ENDBRANCH  20  24
BRANCH  21  30
HETATM   30  O   UNL     1      -8.618   6.617  64.958  1.00  0.00    -0.055 OA 
HETATM   31  C   UNL     1      -7.296   6.228  64.610  1.00  0.00    -0.073 C  
ENDBRANCH  21  30
ENDBRANCH  17  18
ENDBRANCH  15  17
ENDBRANCH  13  15
ENDBRANCH  12  13
ENDBRANCH  11  12
ENDBRANCH  10  11
ENDBRANCH   9  10
ENDBRANCH   3   4
ENDBRANCH   2   3
TORSDOF 11
ENDMDL
MODEL      293
REMARK 921   NORMALIZED FREE ENERGY PREDICTED BY IDOCK:   -3.88 KCAL/MOL
REMARK 922        TOTAL FREE ENERGY PREDICTED BY IDOCK:   -7.63 KCAL/MOL
REMARK 923 INTER-LIGAND FREE ENERGY PREDICTED BY IDOCK:   -7.82 KCAL/MOL
REMARK 924 INTRA-LIGAND FREE ENERGY PREDICTED BY IDOCK:    0.19 KCAL/MOL
REMARK 927      BINDING AFFINITY PREDICTED BY RF-SCORE:    0.00 PKD
ROOT
HETATM    1  C   UNL     1     -14.399   8.458  71.825  1.00  0.00    -0.558 C  
HETATM    2  C   UNL     1     -13.045   8.808  72.421  1.00  0.00    -0.391 C  
ENDROOT
BRANCH   2   3
HETATM    3  O   UNL     1     -12.078   8.365  71.477  1.00  0.00    -0.282 OA 
BRANCH   3   4
HETATM    4  C   UNL     1     -11.504   7.135  71.589  1.00  0.00    -0.266 A  
HETATM    5  C   UNL     1     -11.445   6.421  72.794  1.00  0.00    -0.174 A  
HETATM    6  C   UNL     1     -10.819   5.174  72.859  1.00  0.00    -0.324 A  
HETATM    7  C   UNL     1     -10.243   4.622  71.717  1.00  0.00    -0.242 A  
HETATM    8  C   UNL     1     -10.306   5.317  70.510  1.00  0.00    -0.336 A  
HETATM    9  C   UNL     1     -10.936   6.569  70.428  1.00  0.00    -0.298 A  
BRANCH   9  10
HETATM   10  O   UNL     1     -10.906   7.086  69.154  1.00  0.00    -0.226 OA 
BRANCH  10  11
HETATM   11  C   UNL     1     -10.200   6.359  68.150  1.00  0.00    -0.167 C  
BRANCH  11  12
HETATM   12  C   UNL     1     -10.639   6.838  66.760  1.00  0.00    -0.241 C  
BRANCH  12  13
HETATM   13  N   UNL     1      -9.914   8.005  66.232  1.00  0.00    -0.476 NA 
HETATM   14  H   UNL     1      -9.503   8.537  67.000  1.00  0.00     0.000 HD 
BRANCH  13  15
HETATM   15  C   UNL     1      -8.885   7.708  65.217  1.00  0.00     0.142 C  
HETATM   16  C   UNL     1      -7.682   7.104  65.958  1.00  0.00    -0.099 C  
BRANCH  15  17
HETATM   17  C   UNL     1      -8.463   8.947  64.376  1.00  0.00    -0.170 C  
BRANCH  17  18
HETATM   18  C   UNL     1      -9.196  10.196  64.810  1.00  0.00    -0.291 A  
HETATM   19  C   UNL     1      -9.454  10.408  66.169  1.00  0.00    -0.227 A  
HETATM   20  C   UNL     1     -10.326  11.429  66.572  1.00  0.00    -0.236 A  
HETATM   21  C   UNL     1     -10.860  12.322  65.634  1.00  0.00    -0.285 A  
HETATM   22  C   UNL     1      -9.715  11.093  63.875  1.00  0.00    -0.325 A  
HETATM   23  C   UNL     1     -10.522  12.160  64.286  1.00  0.00    -0.373 A  
BRANCH  20  24
HETATM   24  S   UNL     1     -10.869  11.532  68.260  1.00  0.00    -0.233 S  
HETATM   25  O   UNL     1      -9.927  10.804  69.078  1.00  0.00    -0.196 OA 
HETATM   26  N   UNL     1     -10.660  13.145  68.681  1.00  0.00    -0.278 N  
HETATM   27  O   UNL     1     -12.298  11.324  68.298  1.00  0.00    -0.542 OA 
HETATM   28  H1  UNL     1     -10.971  13.204  69.650  1.00  0.00     0.000 HD 
HETATM   29  H2  UNL     1     -10.301  13.900  68.097  1.00  0.00     0.000 HD 
ENDBRANCH  20  24
BRANCH  21  30
HETATM   30  O   UNL     1     -11.689  13.302  66.105  1.00  0.00    -0.340 OA 
HETATM   31  C   UNL     1     -11.934  14.428  65.273  1.00  0.00    -0.382 C  
ENDBRANCH  21  30
ENDBRANCH  17  18
ENDBRANCH  15  17
ENDBRANCH  13  15
ENDBRANCH  12  13
ENDBRANCH  11  12
ENDBRANCH  10  11
ENDBRANCH   9  10
ENDBRANCH   3   4
ENDBRANCH   2   3
TORSDOF 11
ENDMDL
MODEL      294
REMARK 921   NORMALIZED FREE ENERGY PREDICTED BY IDOCK:   -3.88 KCAL/MOL
REMARK 922        TOTAL FREE ENERGY PREDICTED BY IDOCK:   -7.62 KCAL/MOL
REMARK 923 INTER-LIGAND FREE ENERGY PREDICTED BY IDOCK:   -6.15 KCAL/MOL
REMARK 924 INTRA-LIGAND FREE ENERGY PREDICTED BY IDOCK:   -1.47 KCAL/MOL
REMARK 927      BINDING AFFINITY PREDICTED BY RF-SCORE:    0.00 PKD
ROOT
HETATM    1  C   UNL     1      -9.783   9.896  65.275  1.00  0.00    -0.383 C  
HETATM    2  C   UNL     1     -10.230   9.092  66.486  1.00  0.00    -0.248 C  
ENDROOT
BRANCH   2   3
HETATM    3  O   UNL     1      -9.351   7.976  66.556  1.00  0.00    -0.180 OA 
BRANCH   3   4
HETATM    4  C   UNL     1      -8.130   8.083  67.149  1.00  0.00    -0.117 A  
HETATM    5  C   UNL     1      -6.925   8.079  66.433  1.00  0.00    -0.070 A  
HETATM    6  C   UNL     1      -5.696   8.165  67.094  1.00  0.00    -0.038 A  
HETATM    7  C   UNL     1      -5.658   8.258  68.484  1.00  0.00    -0.037 A  
HETATM    8  C   UNL     1      -6.850   8.276  69.206  1.00  0.00    -0.050 A  
HETATM    9  C   UNL     1      -8.091   8.196  68.555  1.00  0.00    -0.124 A  
BRANCH   9  10
HETATM   10  O   UNL     1      -9.147   8.243  69.436  1.00  0.00    -0.152 OA 
BRANCH  10  11
HETATM   11  C   UNL     1      -8.858   8.412  70.823  1.00  0.00    -0.151 C  
BRANCH  11  12
HETATM   12  C   UNL     1      -9.997   9.188  71.497  1.00  0.00    -0.287 C  
BRANCH  12  13
HETATM   13  N   UNL     1     -11.229   9.323  70.704  1.00  0.00    -0.261 NA 
HETATM   14  H   UNL     1     -11.968   8.744  71.106  1.00  0.00     0.000 HD 
BRANCH  13  15
HETATM   15  C   UNL     1     -11.717  10.702  70.515  1.00  0.00    -0.356 C  
HETATM   16  C   UNL     1     -12.962  10.865  71.402  1.00  0.00    -0.527 C  
BRANCH  15  17
HETATM   17  C   UNL     1     -12.032  11.055  69.034  1.00  0.00    -0.364 C  
BRANCH  17  18
HETATM   18  C   UNL     1     -11.229  12.246  68.558  1.00  0.00    -0.316 A  
HETATM   19  C   UNL     1      -9.834  12.161  68.502  1.00  0.00    -0.167 A  
HETATM   20  C   UNL     1      -9.064  13.313  68.291  1.00  0.00    -0.184 A  
HETATM   21  C   UNL     1      -9.679  14.542  68.020  1.00  0.00    -0.218 A  
HETATM   22  C   UNL     1     -11.845  13.466  68.273  1.00  0.00    -0.393 A  
HETATM   23  C   UNL     1     -11.076  14.599  67.985  1.00  0.00    -0.291 A  
BRANCH  20  24
HETATM   24  S   UNL     1      -7.299  13.261  68.489  1.00  0.00    -0.113 S  
HETATM   25  O   UNL     1      -6.705  13.991  67.394  1.00  0.00    -0.243 OA 
HETATM   26  N   UNL     1      -6.993  14.193  69.855  1.00  0.00    -0.364 N  
HETATM   27  O   UNL     1      -6.917  11.921  68.866  1.00  0.00    -0.098 OA 
HETATM   28  H1  UNL     1      -5.981  14.164  69.968  1.00  0.00     0.000 HD 
HETATM   29  H2  UNL     1      -7.671  14.680  70.441  1.00  0.00     0.000 HD 
ENDBRANCH  20  24
BRANCH  21  30
HETATM   30  O   UNL     1      -8.861  15.617  67.808  1.00  0.00    -0.169 OA 
HETATM   31  C   UNL     1      -9.298  16.890  68.266  1.00  0.00    -0.248 C  
ENDBRANCH  21  30
ENDBRANCH  17  18
ENDBRANCH  15  17
ENDBRANCH  13  15
ENDBRANCH  12  13
ENDBRANCH  11  12
ENDBRANCH  10  11
ENDBRANCH   9  10
ENDBRANCH   3   4
ENDBRANCH   2   3
TORSDOF 11
ENDMDL
MODEL      295
REMARK 921   NORMALIZED FREE ENERGY PREDICTED BY IDOCK:   -3.86 KCAL/MOL
REMARK 922        TOTAL FREE ENERGY PREDICTED BY IDOCK:   -7.59 KCAL/MOL
REMARK 923 INTER-LIGAND FREE ENERGY PREDICTED BY IDOCK:   -6.44 KCAL/MOL
REMARK 924 INTRA-LIGAND FREE ENERGY PREDICTED BY IDOCK:   -1.15 KCAL/MOL
REMARK 927      BINDING AFFINITY PREDICTED BY RF-SCORE:    0.00 PKD
ROOT
HETATM    1  C   UNL     1      -8.075   9.385  65.825  1.00  0.00    -0.114 C  
HETATM    2  C   UNL     1      -9.369   9.843  65.171  1.00  0.00    -0.258 C  
ENDROOT
BRANCH   2   3
HETATM    3  O   UNL     1      -9.125  11.168  64.713  1.00  0.00    -0.174 OA 
BRANCH   3   4
HETATM    4  C   UNL     1     -10.151  12.044  64.527  1.00  0.00    -0.265 A  
HETATM    5  C   UNL     1     -11.190  11.828  63.611  1.00  0.00    -0.519 A  
HETATM    6  C   UNL     1     -12.205  12.773  63.440  1.00  0.00    -0.594 A  
HETATM    7  C   UNL     1     -12.195  13.949  64.187  1.00  0.00    -0.436 A  
HETATM    8  C   UNL     1     -11.175  14.169  65.111  1.00  0.00    -0.337 A  
HETATM    9  C   UNL     1     -10.152  13.226  65.297  1.00  0.00    -0.239 A  
BRANCH   9  10
HETATM   10  O   UNL     1      -9.249  13.618  66.259  1.00  0.00    -0.186 OA 
BRANCH  10  11
HETATM   11  C   UNL     1      -9.329  13.004  67.545  1.00  0.00    -0.200 C  
BRANCH  11  12
HETATM   12  C   UNL     1      -8.020  12.263  67.847  1.00  0.00    -0.152 C  
BRANCH  12  13
HETATM   13  N   UNL     1      -8.072  11.316  68.971  1.00  0.00    -0.327 NA 
HETATM   14  H   UNL     1      -8.384  10.401  68.643  1.00  0.00     0.000 HD 
BRANCH  13  15
HETATM   15  C   UNL     1      -6.823  11.176  69.744  1.00  0.00    -0.089 C  
HETATM   16  C   UNL     1      -5.673  11.089  68.729  1.00  0.00    -0.039 C  
BRANCH  15  17
HETATM   17  C   UNL     1      -6.818   9.954  70.706  1.00  0.00    -0.033 C  
BRANCH  17  18
HETATM   18  C   UNL     1      -7.767   8.871  70.243  1.00  0.00    -0.090 A  
HETATM   19  C   UNL     1      -8.987   8.693  70.903  1.00  0.00    -0.227 A  
HETATM   20  C   UNL     1      -9.771   7.560  70.646  1.00  0.00    -0.175 A  
HETATM   21  C   UNL     1      -9.402   6.650  69.647  1.00  0.00    -0.143 A  
HETATM   22  C   UNL     1      -7.404   7.974  69.236  1.00  0.00    -0.081 A  
HETATM   23  C   UNL     1      -8.227   6.885  68.927  1.00  0.00    -0.121 A  
BRANCH  20  24
HETATM   24  S   UNL     1     -11.176   7.191  71.668  1.00  0.00    -0.252 S  
HETATM   25  O   UNL     1     -11.561   8.402  72.354  1.00  0.00    -0.367 OA 
HETATM   26  N   UNL     1     -12.425   6.884  70.586  1.00  0.00    -0.574 N  
HETATM   27  O   UNL     1     -10.946   5.928  72.330  1.00  0.00    -0.238 OA 
HETATM   28  H1  UNL     1     -13.232   6.672  71.172  1.00  0.00     0.000 HD 
HETATM   29  H2  UNL     1     -12.386   6.906  69.567  1.00  0.00     0.000 HD 
ENDBRANCH  20  24
BRANCH  21  30
HETATM   30  O   UNL     1     -10.226   5.578  69.444  1.00  0.00    -0.210 OA 
HETATM   31  C   UNL     1     -10.735   5.364  68.134  1.00  0.00    -0.001 C  
ENDBRANCH  21  30
ENDBRANCH  17  18
ENDBRANCH  15  17
ENDBRANCH  13  15
ENDBRANCH  12  13
ENDBRANCH  11  12
ENDBRANCH  10  11
ENDBRANCH   9  10
ENDBRANCH   3   4
ENDBRANCH   2   3
TORSDOF 11
ENDMDL
MODEL      296
REMARK 921   NORMALIZED FREE ENERGY PREDICTED BY IDOCK:   -3.86 KCAL/MOL
REMARK 922        TOTAL FREE ENERGY PREDICTED BY IDOCK:   -7.58 KCAL/MOL
REMARK 923 INTER-LIGAND FREE ENERGY PREDICTED BY IDOCK:   -6.78 KCAL/MOL
REMARK 924 INTRA-LIGAND FREE ENERGY PREDICTED BY IDOCK:   -0.80 KCAL/MOL
REMARK 927      BINDING AFFINITY PREDICTED BY RF-SCORE:    0.00 PKD
ROOT
HETATM    1  C   UNL     1     -12.159  14.440  66.476  1.00  0.00    -0.395 C  
HETATM    2  C   UNL     1     -10.932  15.328  66.337  1.00  0.00    -0.299 C  
ENDROOT
BRANCH   2   3
HETATM    3  O   UNL     1     -10.835  16.051  67.558  1.00  0.00    -0.317 OA 
BRANCH   3   4
HETATM    4  C   UNL     1      -9.970  17.095  67.685  1.00  0.00    -0.283 A  
HETATM    5  C   UNL     1     -10.185  18.347  67.092  1.00  0.00    -0.396 A  
HETATM    6  C   UNL     1      -9.251  19.377  67.232  1.00  0.00    -0.378 A  
HETATM    7  C   UNL     1      -8.089  19.169  67.971  1.00  0.00    -0.333 A  
HETATM    8  C   UNL     1      -7.870  17.932  68.577  1.00  0.00    -0.301 A  
HETATM    9  C   UNL     1      -8.802  16.890  68.449  1.00  0.00    -0.244 A  
BRANCH   9  10
HETATM   10  O   UNL     1      -8.415  15.757  69.127  1.00  0.00    -0.220 OA 
BRANCH  10  11
HETATM   11  C   UNL     1      -7.400  14.940  68.547  1.00  0.00    -0.119 C  
BRANCH  11  12
HETATM   12  C   UNL     1      -7.347  13.588  69.270  1.00  0.00     0.158 C  
BRANCH  12  13
HETATM   13  N   UNL     1      -6.444  12.587  68.681  1.00  0.00    -0.072 NA 
HETATM   14  H   UNL     1      -5.473  12.854  68.845  1.00  0.00     0.000 HD 
BRANCH  13  15
HETATM   15  C   UNL     1      -6.665  11.195  69.116  1.00  0.00    -0.092 C  
HETATM   16  C   UNL     1      -5.440  10.383  68.667  1.00  0.00    -0.037 C  
BRANCH  15  17
HETATM   17  C   UNL     1      -7.982  10.573  68.572  1.00  0.00    -0.118 C  
BRANCH  17  18
HETATM   18  C   UNL     1      -8.763   9.871  69.661  1.00  0.00    -0.218 A  
HETATM   19  C   UNL     1     -10.159   9.958  69.676  1.00  0.00    -0.254 A  
HETATM   20  C   UNL     1     -10.882   9.518  70.792  1.00  0.00    -0.318 A  
HETATM   21  C   UNL     1     -10.232   8.881  71.858  1.00  0.00    -0.333 A  
HETATM   22  C   UNL     1      -8.114   9.224  70.714  1.00  0.00    -0.194 A  
HETATM   23  C   UNL     1      -8.845   8.714  71.793  1.00  0.00    -0.281 A  
BRANCH  20  24
HETATM   24  S   UNL     1     -12.618   9.872  70.934  1.00  0.00    -0.275 S  
HETATM   25  O   UNL     1     -13.034  10.558  69.734  1.00  0.00    -0.106 OA 
HETATM   26  N   UNL     1     -13.369   8.370  70.865  1.00  0.00    -0.411 N  
HETATM   27  O   UNL     1     -12.882  10.353  72.270  1.00  0.00    -0.334 OA 
HETATM   28  H1  UNL     1     -14.365   8.573  70.946  1.00  0.00     0.000 HD 
HETATM   29  H2  UNL     1     -12.927   7.456  70.763  1.00  0.00     0.000 HD 
ENDBRANCH  20  24
BRANCH  21  30
HETATM   30  O   UNL     1     -11.008   8.465  72.904  1.00  0.00    -0.248 OA 
HETATM   31  C   UNL     1     -10.760   7.175  73.448  1.00  0.00    -0.368 C  
ENDBRANCH  21  30
ENDBRANCH  17  18
ENDBRANCH  15  17
ENDBRANCH  13  15
ENDBRANCH  12  13
ENDBRANCH  11  12
ENDBRANCH  10  11
ENDBRANCH   9  10
ENDBRANCH   3   4
ENDBRANCH   2   3
TORSDOF 11
ENDMDL
MODEL      297
REMARK 921   NORMALIZED FREE ENERGY PREDICTED BY IDOCK:   -3.85 KCAL/MOL
REMARK 922        TOTAL FREE ENERGY PREDICTED BY IDOCK:   -7.56 KCAL/MOL
REMARK 923 INTER-LIGAND FREE ENERGY PREDICTED BY IDOCK:   -6.53 KCAL/MOL
REMARK 924 INTRA-LIGAND FREE ENERGY PREDICTED BY IDOCK:   -1.03 KCAL/MOL
REMARK 927      BINDING AFFINITY PREDICTED BY RF-SCORE:    0.00 PKD
ROOT
HETATM    1  C   UNL     1     -10.889   3.158  73.845  1.00  0.00    -0.296 C  
HETATM    2  C   UNL     1     -11.216   4.457  73.124  1.00  0.00    -0.216 C  
ENDROOT
BRANCH   2   3
HETATM    3  O   UNL     1     -10.096   4.731  72.291  1.00  0.00    -0.174 OA 
BRANCH   3   4
HETATM    4  C   UNL     1      -9.546   5.976  72.246  1.00  0.00    -0.150 A  
HETATM    5  C   UNL     1      -9.189   6.701  73.392  1.00  0.00    -0.148 A  
HETATM    6  C   UNL     1      -8.653   7.987  73.289  1.00  0.00    -0.297 A  
HETATM    7  C   UNL     1      -8.464   8.566  72.036  1.00  0.00    -0.231 A  
HETATM    8  C   UNL     1      -8.803   7.851  70.889  1.00  0.00    -0.141 A  
HETATM    9  C   UNL     1      -9.338   6.555  70.976  1.00  0.00    -0.160 A  
BRANCH   9  10
HETATM   10  O   UNL     1      -9.594   6.012  69.738  1.00  0.00    -0.146 OA 
BRANCH  10  11
HETATM   11  C   UNL     1      -8.707   5.008  69.249  1.00  0.00    -0.091 C  
BRANCH  11  12
HETATM   12  C   UNL     1      -8.106   5.458  67.910  1.00  0.00    -0.100 C  
BRANCH  12  13
HETATM   13  N   UNL     1      -8.308   6.875  67.569  1.00  0.00    -0.122 NA 
HETATM   14  H   UNL     1      -7.419   7.374  67.613  1.00  0.00     0.000 HD 
BRANCH  13  15
HETATM   15  C   UNL     1      -8.967   7.130  66.274  1.00  0.00    -0.155 C  
HETATM   16  C   UNL     1      -8.986   5.797  65.509  1.00  0.00    -0.088 C  
BRANCH  15  17
HETATM   17  C   UNL     1      -8.285   8.249  65.436  1.00  0.00    -0.146 C  
BRANCH  17  18
HETATM   18  C   UNL     1      -9.092   9.528  65.447  1.00  0.00    -0.273 A  
HETATM   19  C   UNL     1      -9.437  10.117  66.668  1.00  0.00    -0.211 A  
HETATM   20  C   UNL     1     -10.371  11.161  66.710  1.00  0.00    -0.241 A  
HETATM   21  C   UNL     1     -10.885  11.706  65.526  1.00  0.00    -0.279 A  
HETATM   22  C   UNL     1      -9.590  10.079  64.265  1.00  0.00    -0.301 A  
HETATM   23  C   UNL     1     -10.463  11.172  64.304  1.00  0.00    -0.427 A  
BRANCH  20  24
HETATM   24  S   UNL     1     -11.016  11.727  68.265  1.00  0.00    -0.249 S  
HETATM   25  O   UNL     1     -12.362  11.222  68.402  1.00  0.00    -0.545 OA 
HETATM   26  N   UNL     1     -10.120  10.905  69.426  1.00  0.00    -0.411 N  
HETATM   27  O   UNL     1     -10.654  13.115  68.437  1.00  0.00    -0.239 OA 
HETATM   28  H1  UNL     1     -10.490  11.230  70.319  1.00  0.00     0.000 HD 
HETATM   29  H2  UNL     1      -9.371  10.230  69.272  1.00  0.00     0.000 HD 
ENDBRANCH  20  24
BRANCH  21  30
HETATM   30  O   UNL     1     -11.779  12.733  65.647  1.00  0.00    -0.355 OA 
HETATM   31  C   UNL     1     -11.488  13.955  64.982  1.00  0.00    -0.339 C  
ENDBRANCH  21  30
ENDBRANCH  17  18
ENDBRANCH  15  17
ENDBRANCH  13  15
ENDBRANCH  12  13
ENDBRANCH  11  12
ENDBRANCH  10  11
ENDBRANCH   9  10
ENDBRANCH   3   4
ENDBRANCH   2   3
TORSDOF 11
ENDMDL
MODEL      298
REMARK 921   NORMALIZED FREE ENERGY PREDICTED BY IDOCK:   -3.84 KCAL/MOL
REMARK 922        TOTAL FREE ENERGY PREDICTED BY IDOCK:   -7.56 KCAL/MOL
REMARK 923 INTER-LIGAND FREE ENERGY PREDICTED BY IDOCK:   -7.42 KCAL/MOL
REMARK 924 INTRA-LIGAND FREE ENERGY PREDICTED BY IDOCK:   -0.14 KCAL/MOL
REMARK 927      BINDING AFFINITY PREDICTED BY RF-SCORE:    0.00 PKD
ROOT
HETATM    1  C   UNL     1     -10.483  19.364  66.169  1.00  0.00    -0.600 C  
HETATM    2  C   UNL     1     -10.602  18.604  67.482  1.00  0.00    -0.423 C  
ENDROOT
BRANCH   2   3
HETATM    3  O   UNL     1     -10.660  17.227  67.129  1.00  0.00    -0.324 OA 
BRANCH   3   4
HETATM    4  C   UNL     1     -11.006  16.284  68.049  1.00  0.00    -0.328 A  
HETATM    5  C   UNL     1     -10.845  16.462  69.430  1.00  0.00    -0.327 A  
HETATM    6  C   UNL     1     -11.191  15.450  70.329  1.00  0.00    -0.328 A  
HETATM    7  C   UNL     1     -11.706  14.244  69.857  1.00  0.00    -0.373 A  
HETATM    8  C   UNL     1     -11.883  14.061  68.486  1.00  0.00    -0.399 A  
HETATM    9  C   UNL     1     -11.545  15.071  67.572  1.00  0.00    -0.301 A  
BRANCH   9  10
HETATM   10  O   UNL     1     -11.804  14.706  66.271  1.00  0.00    -0.364 OA 
BRANCH  10  11
HETATM   11  C   UNL     1     -12.297  13.389  66.028  1.00  0.00    -0.413 C  
BRANCH  11  12
HETATM   12  C   UNL     1     -11.762  12.876  64.685  1.00  0.00    -0.359 C  
BRANCH  12  13
HETATM   13  N   UNL     1     -10.303  12.696  64.610  1.00  0.00    -0.348 NA 
HETATM   14  H   UNL     1      -9.831  13.510  65.005  1.00  0.00     0.000 HD 
BRANCH  13  15
HETATM   15  C   UNL     1      -9.783  11.461  65.226  1.00  0.00    -0.241 C  
HETATM   16  C   UNL     1      -8.927  11.885  66.430  1.00  0.00    -0.180 C  
BRANCH  15  17
HETATM   17  C   UNL     1      -8.970  10.569  64.245  1.00  0.00    -0.237 C  
BRANCH  17  18
HETATM   18  C   UNL     1      -8.774   9.171  64.789  1.00  0.00    -0.208 A  
HETATM   19  C   UNL     1      -9.397   8.802  65.986  1.00  0.00    -0.296 A  
HETATM   20  C   UNL     1      -9.049   7.604  66.623  1.00  0.00    -0.164 A  
HETATM   21  C   UNL     1      -8.159   6.706  66.018  1.00  0.00    -0.122 A  
HETATM   22  C   UNL     1      -7.900   8.272  64.175  1.00  0.00    -0.145 A  
HETATM   23  C   UNL     1      -7.612   7.041  64.775  1.00  0.00    -0.105 A  
BRANCH  20  24
HETATM   24  S   UNL     1      -9.629   7.260  68.267  1.00  0.00    -0.150 S  
HETATM   25  O   UNL     1      -8.620   6.479  68.943  1.00  0.00    -0.124 OA 
HETATM   26  N   UNL     1      -9.624   8.750  69.045  1.00  0.00    -0.160 N  
HETATM   27  O   UNL     1     -11.023   6.888  68.196  1.00  0.00    -0.207 OA 
HETATM   28  H1  UNL     1      -9.956   8.553  69.988  1.00  0.00     0.000 HD 
HETATM   29  H2  UNL     1      -9.348   9.653  68.659  1.00  0.00     0.000 HD 
ENDBRANCH  20  24
BRANCH  21  30
HETATM   30  O   UNL     1      -7.881   5.551  66.694  1.00  0.00    -0.099 OA 
HETATM   31  C   UNL     1      -7.876   4.333  65.962  1.00  0.00    -0.094 C  
ENDBRANCH  21  30
ENDBRANCH  17  18
ENDBRANCH  15  17
ENDBRANCH  13  15
ENDBRANCH  12  13
ENDBRANCH  11  12
ENDBRANCH  10  11
ENDBRANCH   9  10
ENDBRANCH   3   4
ENDBRANCH   2   3
TORSDOF 11
ENDMDL
MODEL      299
REMARK 921   NORMALIZED FREE ENERGY PREDICTED BY IDOCK:   -3.81 KCAL/MOL
REMARK 922        TOTAL FREE ENERGY PREDICTED BY IDOCK:   -7.51 KCAL/MOL
REMARK 923 INTER-LIGAND FREE ENERGY PREDICTED BY IDOCK:   -6.06 KCAL/MOL
REMARK 924 INTRA-LIGAND FREE ENERGY PREDICTED BY IDOCK:   -1.45 KCAL/MOL
REMARK 927      BINDING AFFINITY PREDICTED BY RF-SCORE:    0.00 PKD
ROOT
HETATM    1  C   UNL     1     -11.031   7.282  73.208  1.00  0.00    -0.355 C  
HETATM    2  C   UNL     1      -9.564   7.250  73.608  1.00  0.00    -0.269 C  
ENDROOT
BRANCH   2   3
HETATM    3  O   UNL     1      -8.837   7.059  72.401  1.00  0.00    -0.128 OA 
BRANCH   3   4
HETATM    4  C   UNL     1      -7.681   6.338  72.387  1.00  0.00    -0.102 A  
HETATM    5  C   UNL     1      -7.088   5.814  73.544  1.00  0.00    -0.086 A  
HETATM    6  C   UNL     1      -5.886   5.105  73.477  1.00  0.00    -0.023 A  
HETATM    7  C   UNL     1      -5.261   4.907  72.247  1.00  0.00    -0.005 A  
HETATM    8  C   UNL     1      -5.848   5.412  71.088  1.00  0.00    -0.017 A  
HETATM    9  C   UNL     1      -7.058   6.122  71.140  1.00  0.00    -0.074 A  
BRANCH   9  10
HETATM   10  O   UNL     1      -7.481   6.526  69.894  1.00  0.00    -0.083 OA 
BRANCH  10  11
HETATM   11  C   UNL     1      -6.983   7.761  69.383  1.00  0.00    -0.063 C  
BRANCH  11  12
HETATM   12  C   UNL     1      -8.149   8.732  69.153  1.00  0.00    -0.118 C  
BRANCH  12  13
HETATM   13  N   UNL     1      -9.143   8.796  70.236  1.00  0.00    -0.159 NA 
HETATM   14  H   UNL     1      -8.979   9.623  70.812  1.00  0.00     0.000 HD 
BRANCH  13  15
HETATM   15  C   UNL     1     -10.554   8.752  69.807  1.00  0.00    -0.224 C  
HETATM   16  C   UNL     1     -10.822   7.331  69.288  1.00  0.00    -0.177 C  
BRANCH  15  17
HETATM   17  C   UNL     1     -10.915   9.820  68.735  1.00  0.00    -0.185 C  
BRANCH  17  18
HETATM   18  C   UNL     1     -11.505  11.065  69.360  1.00  0.00    -0.364 A  
HETATM   19  C   UNL     1     -11.198  12.319  68.821  1.00  0.00    -0.312 A  
HETATM   20  C   UNL     1     -11.539  13.488  69.515  1.00  0.00    -0.294 A  
HETATM   21  C   UNL     1     -12.290  13.423  70.696  1.00  0.00    -0.348 A  
HETATM   22  C   UNL     1     -12.266  10.997  70.528  1.00  0.00    -0.472 A  
HETATM   23  C   UNL     1     -12.673  12.167  71.178  1.00  0.00    -0.351 A  
BRANCH  20  24
HETATM   24  S   UNL     1     -10.918  15.064  68.978  1.00  0.00    -0.263 S  
HETATM   25  O   UNL     1      -9.927  15.502  69.932  1.00  0.00    -0.281 OA 
HETATM   26  N   UNL     1     -10.059  14.731  67.572  1.00  0.00    -0.224 N  
HETATM   27  O   UNL     1     -12.032  15.875  68.544  1.00  0.00    -0.306 OA 
HETATM   28  H1  UNL     1      -9.703  15.635  67.265  1.00  0.00     0.000 HD 
HETATM   29  H2  UNL     1      -9.924  13.824  67.125  1.00  0.00     0.000 HD 
ENDBRANCH  20  24
BRANCH  21  30
HETATM   30  O   UNL     1     -12.599  14.607  71.306  1.00  0.00    -0.294 OA 
HETATM   31  C   UNL     1     -13.969  14.970  71.409  1.00  0.00    -0.479 C  
ENDBRANCH  21  30
ENDBRANCH  17  18
ENDBRANCH  15  17
ENDBRANCH  13  15
ENDBRANCH  12  13
ENDBRANCH  11  12
ENDBRANCH  10  11
ENDBRANCH   9  10
ENDBRANCH   3   4
ENDBRANCH   2   3
TORSDOF 11
ENDMDL
MODEL      300
REMARK 921   NORMALIZED FREE ENERGY PREDICTED BY IDOCK:   -3.81 KCAL/MOL
REMARK 922        TOTAL FREE ENERGY PREDICTED BY IDOCK:   -7.51 KCAL/MOL
REMARK 923 INTER-LIGAND FREE ENERGY PREDICTED BY IDOCK:   -6.30 KCAL/MOL
REMARK 924 INTRA-LIGAND FREE ENERGY PREDICTED BY IDOCK:   -1.21 KCAL/MOL
REMARK 927      BINDING AFFINITY PREDICTED BY RF-SCORE:    0.00 PKD
ROOT
HETATM    1  C   UNL     1     -10.567   6.140  69.817  1.00  0.00    -0.343 C  
HETATM    2  C   UNL     1     -11.306   6.166  68.488  1.00  0.00     0.046 C  
ENDROOT
BRANCH   2   3
HETATM    3  O   UNL     1     -10.391   6.714  67.546  1.00  0.00    -0.161 OA 
BRANCH   3   4
HETATM    4  C   UNL     1      -9.442   5.935  66.958  1.00  0.00    -0.125 A  
HETATM    5  C   UNL     1      -9.724   5.021  65.933  1.00  0.00    -0.182 A  
HETATM    6  C   UNL     1      -8.716   4.226  65.383  1.00  0.00    -0.123 A  
HETATM    7  C   UNL     1      -7.408   4.336  65.850  1.00  0.00    -0.080 A  
HETATM    8  C   UNL     1      -7.112   5.250  66.859  1.00  0.00    -0.066 A  
HETATM    9  C   UNL     1      -8.114   6.060  67.418  1.00  0.00    -0.106 A  
BRANCH   9  10
HETATM   10  O   UNL     1      -7.623   6.904  68.388  1.00  0.00    -0.105 OA 
BRANCH  10  11
HETATM   11  C   UNL     1      -6.834   8.017  67.972  1.00  0.00    -0.072 C  
BRANCH  11  12
HETATM   12  C   UNL     1      -7.739   9.231  67.729  1.00  0.00    -0.088 C  
BRANCH  12  13
HETATM   13  N   UNL     1      -7.781  10.220  68.818  1.00  0.00    -0.090 NA 
HETATM   14  H   UNL     1      -7.692  11.163  68.437  1.00  0.00     0.000 HD 
BRANCH  13  15
HETATM   15  C   UNL     1      -8.959  10.143  69.703  1.00  0.00    -0.169 C  
HETATM   16  C   UNL     1      -8.632   9.114  70.797  1.00  0.00    -0.265 C  
BRANCH  15  17
HETATM   17  C   UNL     1     -10.275   9.776  68.960  1.00  0.00    -0.214 C  
BRANCH  17  18
HETATM   18  C   UNL     1     -10.861  10.967  68.236  1.00  0.00    -0.272 A  
HETATM   19  C   UNL     1     -11.125  10.880  66.865  1.00  0.00    -0.236 A  
HETATM   20  C   UNL     1     -11.445  12.031  66.132  1.00  0.00    -0.339 A  
HETATM   21  C   UNL     1     -11.619  13.262  66.778  1.00  0.00    -0.365 A  
HETATM   22  C   UNL     1     -11.048  12.188  68.885  1.00  0.00    -0.292 A  
HETATM   23  C   UNL     1     -11.444  13.321  68.165  1.00  0.00    -0.347 A  
BRANCH  20  24
HETATM   24  S   UNL     1     -11.513  11.976  64.358  1.00  0.00    -0.332 S  
HETATM   25  O   UNL     1     -12.865  12.281  63.953  1.00  0.00    -0.720 OA 
HETATM   26  N   UNL     1     -10.596  13.290  63.852  1.00  0.00    -0.503 N  
HETATM   27  O   UNL     1     -10.778  10.818  63.904  1.00  0.00    -0.259 OA 
HETATM   28  H1  UNL     1     -10.635  13.259  62.834  1.00  0.00     0.000 HD 
HETATM   29  H2  UNL     1     -10.108  13.970  64.435  1.00  0.00     0.000 HD 
ENDBRANCH  20  24
BRANCH  21  30
HETATM   30  O   UNL     1     -11.947  14.336  65.999  1.00  0.00    -0.385 OA 
HETATM   31  C   UNL     1     -11.209  15.539  66.173  1.00  0.00    -0.102 C  
ENDBRANCH  21  30
ENDBRANCH  17  18
ENDBRANCH  15  17
ENDBRANCH  13  15
ENDBRANCH  12  13
ENDBRANCH  11  12
ENDBRANCH  10  11
ENDBRANCH   9  10
ENDBRANCH   3   4
ENDBRANCH   2   3
TORSDOF 11
ENDMDL
MODEL      301
REMARK 921   NORMALIZED FREE ENERGY PREDICTED BY IDOCK:   -3.79 KCAL/MOL
REMARK 922        TOTAL FREE ENERGY PREDICTED BY IDOCK:   -7.46 KCAL/MOL
REMARK 923 INTER-LIGAND FREE ENERGY PREDICTED BY IDOCK:   -6.45 KCAL/MOL
REMARK 924 INTRA-LIGAND FREE ENERGY PREDICTED BY IDOCK:   -1.01 KCAL/MOL
REMARK 927      BINDING AFFINITY PREDICTED BY RF-SCORE:    0.00 PKD
ROOT
HETATM    1  C   UNL     1      -7.076   6.537  71.512  1.00  0.00    -0.077 C  
HETATM    2  C   UNL     1      -7.815   7.395  70.497  1.00  0.00    -0.097 C  
ENDROOT
BRANCH   2   3
HETATM    3  O   UNL     1      -9.131   6.860  70.421  1.00  0.00    -0.155 OA 
BRANCH   3   4
HETATM    4  C   UNL     1      -9.682   6.526  69.221  1.00  0.00    -0.144 A  
HETATM    5  C   UNL     1      -9.557   5.254  68.646  1.00  0.00    -0.183 A  
HETATM    6  C   UNL     1     -10.120   4.972  67.398  1.00  0.00    -0.213 A  
HETATM    7  C   UNL     1     -10.818   5.962  66.709  1.00  0.00    -0.347 A  
HETATM    8  C   UNL     1     -10.960   7.227  67.276  1.00  0.00    -0.284 A  
HETATM    9  C   UNL     1     -10.404   7.523  68.531  1.00  0.00    -0.199 A  
BRANCH   9  10
HETATM   10  O   UNL     1     -10.662   8.816  68.925  1.00  0.00    -0.187 OA 
BRANCH  10  11
HETATM   11  C   UNL     1     -10.466   9.860  67.974  1.00  0.00    -0.222 C  
BRANCH  11  12
HETATM   12  C   UNL     1     -10.115  11.164  68.703  1.00  0.00    -0.200 C  
BRANCH  12  13
HETATM   13  N   UNL     1      -8.704  11.314  69.092  1.00  0.00    -0.379 NA 
HETATM   14  H   UNL     1      -8.317  10.407  69.355  1.00  0.00     0.000 HD 
BRANCH  13  15
HETATM   15  C   UNL     1      -7.834  11.964  68.094  1.00  0.00    -0.134 C  
HETATM   16  C   UNL     1      -6.997  10.856  67.436  1.00  0.00    -0.084 C  
BRANCH  15  17
HETATM   17  C   UNL     1      -6.925  13.077  68.689  1.00  0.00    -0.102 C  
BRANCH  17  18
HETATM   18  C   UNL     1      -7.206  14.425  68.062  1.00  0.00    -0.146 A  
HETATM   19  C   UNL     1      -8.521  14.774  67.735  1.00  0.00    -0.169 A  
HETATM   20  C   UNL     1      -8.776  15.906  66.949  1.00  0.00    -0.241 A  
HETATM   21  C   UNL     1      -7.734  16.766  66.577  1.00  0.00    -0.299 A  
HETATM   22  C   UNL     1      -6.168  15.287  67.706  1.00  0.00    -0.178 A  
HETATM   23  C   UNL     1      -6.433  16.459  66.988  1.00  0.00    -0.202 A  
BRANCH  20  24
HETATM   24  S   UNL     1     -10.405  16.202  66.305  1.00  0.00    -0.332 S  
HETATM   25  O   UNL     1     -11.337  15.395  67.056  1.00  0.00    -0.288 OA 
HETATM   26  N   UNL     1     -10.754  17.790  66.734  1.00  0.00    -0.212 N  
HETATM   27  O   UNL     1     -10.334  16.219  64.862  1.00  0.00    -0.578 OA 
HETATM   28  H1  UNL     1     -11.689  17.960  66.364  1.00  0.00     0.000 HD 
HETATM   29  H2  UNL     1     -10.162  18.440  67.250  1.00  0.00     0.000 HD 
ENDBRANCH  20  24
BRANCH  21  30
HETATM   30  O   UNL     1      -8.064  17.859  65.825  1.00  0.00    -0.537 OA 
HETATM   31  C   UNL     1      -7.361  19.071  66.061  1.00  0.00    -0.266 C  
ENDBRANCH  21  30
ENDBRANCH  17  18
ENDBRANCH  15  17
ENDBRANCH  13  15
ENDBRANCH  12  13
ENDBRANCH  11  12
ENDBRANCH  10  11
ENDBRANCH   9  10
ENDBRANCH   3   4
ENDBRANCH   2   3
TORSDOF 11
ENDMDL
MODEL      302
REMARK 921   NORMALIZED FREE ENERGY PREDICTED BY IDOCK:   -3.78 KCAL/MOL
REMARK 922        TOTAL FREE ENERGY PREDICTED BY IDOCK:   -7.45 KCAL/MOL
REMARK 923 INTER-LIGAND FREE ENERGY PREDICTED BY IDOCK:   -6.42 KCAL/MOL
REMARK 924 INTRA-LIGAND FREE ENERGY PREDICTED BY IDOCK:   -1.02 KCAL/MOL
REMARK 927      BINDING AFFINITY PREDICTED BY RF-SCORE:    0.00 PKD
ROOT
HETATM    1  C   UNL     1     -10.427  16.872  65.755  1.00  0.00    -0.279 C  
HETATM    2  C   UNL     1     -10.112  15.661  66.620  1.00  0.00    -0.273 C  
ENDROOT
BRANCH   2   3
HETATM    3  O   UNL     1     -11.203  14.766  66.446  1.00  0.00    -0.336 OA 
BRANCH   3   4
HETATM    4  C   UNL     1     -11.085  13.665  65.653  1.00  0.00    -0.294 A  
HETATM    5  C   UNL     1     -11.539  13.621  64.327  1.00  0.00    -0.413 A  
HETATM    6  C   UNL     1     -11.418  12.456  63.565  1.00  0.00    -0.561 A  
HETATM    7  C   UNL     1     -10.838  11.318  64.120  1.00  0.00    -0.407 A  
HETATM    8  C   UNL     1     -10.371  11.353  65.433  1.00  0.00    -0.331 A  
HETATM    9  C   UNL     1     -10.482  12.518  66.209  1.00  0.00    -0.246 A  
BRANCH   9  10
HETATM   10  O   UNL     1      -9.953  12.358  67.469  1.00  0.00    -0.193 OA 
BRANCH  10  11
HETATM   11  C   UNL     1      -8.821  11.503  67.620  1.00  0.00    -0.152 C  
BRANCH  11  12
HETATM   12  C   UNL     1      -8.811  10.902  69.032  1.00  0.00    -0.096 C  
BRANCH  12  13
HETATM   13  N   UNL     1      -8.652   9.441  69.098  1.00  0.00    -0.134 NA 
HETATM   14  H   UNL     1      -7.997   9.195  69.840  1.00  0.00     0.000 HD 
BRANCH  13  15
HETATM   15  C   UNL     1      -9.901   8.671  69.251  1.00  0.00    -0.188 C  
HETATM   16  C   UNL     1      -9.523   7.321  69.882  1.00  0.00    -0.157 C  
BRANCH  15  17
HETATM   17  C   UNL     1     -10.678   8.471  67.919  1.00  0.00    -0.148 C  
BRANCH  17  18
HETATM   18  C   UNL     1     -10.190   7.255  67.162  1.00  0.00    -0.339 A  
HETATM   19  C   UNL     1      -9.117   7.380  66.273  1.00  0.00    -0.195 A  
HETATM   20  C   UNL     1      -8.801   6.334  65.396  1.00  0.00     0.016 A  
HETATM   21  C   UNL     1      -9.478   5.110  65.473  1.00  0.00    -0.080 A  
HETATM   22  C   UNL     1     -10.857   6.032  67.251  1.00  0.00    -0.403 A  
HETATM   23  C   UNL     1     -10.488   4.962  66.428  1.00  0.00    -0.325 A  
BRANCH  20  24
HETATM   24  S   UNL     1      -7.625   6.584  64.088  1.00  0.00    -0.105 S  
HETATM   25  O   UNL     1      -6.559   5.624  64.256  1.00  0.00    -0.042 OA 
HETATM   26  N   UNL     1      -8.428   6.107  62.691  1.00  0.00    -0.310 N  
HETATM   27  O   UNL     1      -7.413   8.003  63.923  1.00  0.00    -0.101 OA 
HETATM   28  H1  UNL     1      -7.753   6.250  61.940  1.00  0.00     0.000 HD 
HETATM   29  H2  UNL     1      -9.381   5.752  62.611  1.00  0.00     0.000 HD 
ENDBRANCH  20  24
BRANCH  21  30
HETATM   30  O   UNL     1      -9.102   4.132  64.595  1.00  0.00    -0.133 OA 
HETATM   31  C   UNL     1     -10.123   3.432  63.896  1.00  0.00    -0.196 C  
ENDBRANCH  21  30
ENDBRANCH  17  18
ENDBRANCH  15  17
ENDBRANCH  13  15
ENDBRANCH  12  13
ENDBRANCH  11  12
ENDBRANCH  10  11
ENDBRANCH   9  10
ENDBRANCH   3   4
ENDBRANCH   2   3
TORSDOF 11
ENDMDL
MODEL      303
REMARK 921   NORMALIZED FREE ENERGY PREDICTED BY IDOCK:   -3.76 KCAL/MOL
REMARK 922        TOTAL FREE ENERGY PREDICTED BY IDOCK:   -7.42 KCAL/MOL
REMARK 923 INTER-LIGAND FREE ENERGY PREDICTED BY IDOCK:   -6.58 KCAL/MOL
REMARK 924 INTRA-LIGAND FREE ENERGY PREDICTED BY IDOCK:   -0.84 KCAL/MOL
REMARK 927      BINDING AFFINITY PREDICTED BY RF-SCORE:    0.00 PKD
ROOT
HETATM    1  C   UNL     1      -9.367   1.730  68.021  1.00  0.00    -0.222 C  
HETATM    2  C   UNL     1      -9.084   3.196  68.310  1.00  0.00    -0.164 C  
ENDROOT
BRANCH   2   3
HETATM    3  O   UNL     1      -9.894   3.934  67.403  1.00  0.00    -0.168 OA 
BRANCH   3   4
HETATM    4  C   UNL     1      -9.401   4.350  66.204  1.00  0.00    -0.159 A  
HETATM    5  C   UNL     1      -9.685   3.706  64.991  1.00  0.00    -0.162 A  
HETATM    6  C   UNL     1      -9.130   4.159  63.791  1.00  0.00    -0.140 A  
HETATM    7  C   UNL     1      -8.284   5.265  63.788  1.00  0.00    -0.123 A  
HETATM    8  C   UNL     1      -8.004   5.921  64.986  1.00  0.00    -0.123 A  
HETATM    9  C   UNL     1      -8.558   5.481  66.198  1.00  0.00    -0.129 A  
BRANCH   9  10
HETATM   10  O   UNL     1      -8.175   6.265  67.263  1.00  0.00    -0.109 OA 
BRANCH  10  11
HETATM   11  C   UNL     1      -8.170   7.680  67.087  1.00  0.00    -0.118 C  
BRANCH  11  12
HETATM   12  C   UNL     1      -9.198   8.321  68.030  1.00  0.00    -0.136 C  
BRANCH  12  13
HETATM   13  N   UNL     1      -8.726   8.585  69.398  1.00  0.00    -0.135 NA 
HETATM   14  H   UNL     1      -7.833   9.079  69.370  1.00  0.00     0.000 HD 
BRANCH  13  15
HETATM   15  C   UNL     1      -9.673   9.305  70.271  1.00  0.00    -0.232 C  
HETATM   16  C   UNL     1      -9.738   8.533  71.598  1.00  0.00    -0.322 C  
BRANCH  15  17
HETATM   17  C   UNL     1     -11.088   9.475  69.649  1.00  0.00    -0.196 C  
BRANCH  17  18
HETATM   18  C   UNL     1     -11.526  10.923  69.638  1.00  0.00    -0.377 A  
HETATM   19  C   UNL     1     -11.126  11.758  68.590  1.00  0.00    -0.289 A  
HETATM   20  C   UNL     1     -11.320  13.143  68.676  1.00  0.00    -0.289 A  
HETATM   21  C   UNL     1     -12.019  13.699  69.756  1.00  0.00    -0.341 A  
HETATM   22  C   UNL     1     -12.236  11.472  70.708  1.00  0.00    -0.463 A  
HETATM   23  C   UNL     1     -12.498  12.845  70.755  1.00  0.00    -0.370 A  
BRANCH  20  24
HETATM   24  S   UNL     1     -10.576  14.230  67.484  1.00  0.00    -0.262 S  
HETATM   25  O   UNL     1      -9.616  15.059  68.174  1.00  0.00    -0.201 OA 
HETATM   26  N   UNL     1      -9.660  13.224  66.498  1.00  0.00    -0.264 N  
HETATM   27  O   UNL     1     -11.613  14.745  66.620  1.00  0.00    -0.360 OA 
HETATM   28  H1  UNL     1      -9.232  13.847  65.815  1.00  0.00     0.000 HD 
HETATM   29  H2  UNL     1      -9.554  12.212  66.568  1.00  0.00     0.000 HD 
ENDBRANCH  20  24
BRANCH  21  30
HETATM   30  O   UNL     1     -12.183  15.056  69.762  1.00  0.00    -0.310 OA 
HETATM   31  C   UNL     1     -12.060  15.740  71.002  1.00  0.00    -0.418 C  
ENDBRANCH  21  30
ENDBRANCH  17  18
ENDBRANCH  15  17
ENDBRANCH  13  15
ENDBRANCH  12  13
ENDBRANCH  11  12
ENDBRANCH  10  11
ENDBRANCH   9  10
ENDBRANCH   3   4
ENDBRANCH   2   3
TORSDOF 11
ENDMDL
MODEL      304
REMARK 921   NORMALIZED FREE ENERGY PREDICTED BY IDOCK:   -3.76 KCAL/MOL
REMARK 922        TOTAL FREE ENERGY PREDICTED BY IDOCK:   -7.42 KCAL/MOL
REMARK 923 INTER-LIGAND FREE ENERGY PREDICTED BY IDOCK:   -6.51 KCAL/MOL
REMARK 924 INTRA-LIGAND FREE ENERGY PREDICTED BY IDOCK:   -0.91 KCAL/MOL
REMARK 927      BINDING AFFINITY PREDICTED BY RF-SCORE:    0.00 PKD
ROOT
HETATM    1  C   UNL     1     -11.930  14.000  66.526  1.00  0.00    -0.470 C  
HETATM    2  C   UNL     1     -10.949  15.135  66.281  1.00  0.00    -0.335 C  
ENDROOT
BRANCH   2   3
HETATM    3  O   UNL     1     -10.931  15.900  67.480  1.00  0.00    -0.323 OA 
BRANCH   3   4
HETATM    4  C   UNL     1     -10.172  17.025  67.581  1.00  0.00    -0.317 A  
HETATM    5  C   UNL     1     -10.653  18.307  67.276  1.00  0.00    -0.406 A  
HETATM    6  C   UNL     1      -9.822  19.426  67.371  1.00  0.00    -0.447 A  
HETATM    7  C   UNL     1      -8.497  19.279  67.775  1.00  0.00    -0.340 A  
HETATM    8  C   UNL     1      -8.011  18.012  68.094  1.00  0.00    -0.270 A  
HETATM    9  C   UNL     1      -8.836  16.879  68.009  1.00  0.00    -0.216 A  
BRANCH   9  10
HETATM   10  O   UNL     1      -8.180  15.726  68.376  1.00  0.00    -0.143 OA 
BRANCH  10  11
HETATM   11  C   UNL     1      -7.342  15.093  67.411  1.00  0.00    -0.205 C  
BRANCH  11  12
HETATM   12  C   UNL     1      -7.191  13.605  67.754  1.00  0.00    -0.164 C  
BRANCH  12  13
HETATM   13  N   UNL     1      -6.492  12.790  66.748  1.00  0.00    -0.370 NA 
HETATM   14  H   UNL     1      -5.548  13.150  66.602  1.00  0.00     0.000 HD 
BRANCH  13  15
HETATM   15  C   UNL     1      -6.443  11.342  67.025  1.00  0.00    -0.114 C  
HETATM   16  C   UNL     1      -5.211  10.785  66.293  1.00  0.00    -0.089 C  
BRANCH  15  17
HETATM   17  C   UNL     1      -7.735  10.583  66.609  1.00  0.00    -0.123 C  
BRANCH  17  18
HETATM   18  C   UNL     1      -8.344   9.832  67.772  1.00  0.00    -0.114 A  
HETATM   19  C   UNL     1      -8.603   8.463  67.651  1.00  0.00    -0.130 A  
HETATM   20  C   UNL     1      -9.373   7.801  68.617  1.00  0.00    -0.148 A  
HETATM   21  C   UNL     1      -9.797   8.471  69.773  1.00  0.00    -0.186 A  
HETATM   22  C   UNL     1      -8.752  10.499  68.929  1.00  0.00    -0.154 A  
HETATM   23  C   UNL     1      -9.453   9.818  69.930  1.00  0.00    -0.264 A  
BRANCH  20  24
HETATM   24  S   UNL     1      -9.933   6.139  68.335  1.00  0.00    -0.151 S  
HETATM   25  O   UNL     1      -9.209   5.266  69.228  1.00  0.00    -0.108 OA 
HETATM   26  N   UNL     1     -11.519   6.119  68.891  1.00  0.00    -0.372 N  
HETATM   27  O   UNL     1     -10.041   5.924  66.910  1.00  0.00    -0.153 OA 
HETATM   28  H1  UNL     1     -11.840   5.166  68.730  1.00  0.00     0.000 HD 
HETATM   29  H2  UNL     1     -12.045   6.891  69.301  1.00  0.00     0.000 HD 
ENDBRANCH  20  24
BRANCH  21  30
HETATM   30  O   UNL     1     -10.530   7.754  70.677  1.00  0.00    -0.209 OA 
HETATM   31  C   UNL     1     -10.105   7.756  72.033  1.00  0.00    -0.191 C  
ENDBRANCH  21  30
ENDBRANCH  17  18
ENDBRANCH  15  17
ENDBRANCH  13  15
ENDBRANCH  12  13
ENDBRANCH  11  12
ENDBRANCH  10  11
ENDBRANCH   9  10
ENDBRANCH   3   4
ENDBRANCH   2   3
TORSDOF 11
ENDMDL
MODEL      305
REMARK 921   NORMALIZED FREE ENERGY PREDICTED BY IDOCK:   -3.75 KCAL/MOL
REMARK 922        TOTAL FREE ENERGY PREDICTED BY IDOCK:   -7.41 KCAL/MOL
REMARK 923 INTER-LIGAND FREE ENERGY PREDICTED BY IDOCK:   -6.01 KCAL/MOL
REMARK 924 INTRA-LIGAND FREE ENERGY PREDICTED BY IDOCK:   -1.40 KCAL/MOL
REMARK 927      BINDING AFFINITY PREDICTED BY RF-SCORE:    0.00 PKD
ROOT
HETATM    1  C   UNL     1     -10.695   9.187  69.464  1.00  0.00    -0.226 C  
HETATM    2  C   UNL     1     -11.073   7.808  69.982  1.00  0.00    -0.175 C  
ENDROOT
BRANCH   2   3
HETATM    3  O   UNL     1     -10.312   6.883  69.214  1.00  0.00    -0.183 OA 
BRANCH   3   4
HETATM    4  C   UNL     1      -9.864   5.720  69.764  1.00  0.00    -0.178 A  
HETATM    5  C   UNL     1     -10.393   5.171  70.940  1.00  0.00    -0.282 A  
HETATM    6  C   UNL     1      -9.877   3.989  71.476  1.00  0.00    -0.251 A  
HETATM    7  C   UNL     1      -8.823   3.337  70.839  1.00  0.00    -0.144 A  
HETATM    8  C   UNL     1      -8.296   3.866  69.662  1.00  0.00    -0.078 A  
HETATM    9  C   UNL     1      -8.808   5.051  69.110  1.00  0.00    -0.092 A  
BRANCH   9  10
HETATM   10  O   UNL     1      -8.168   5.403  67.944  1.00  0.00    -0.100 OA 
BRANCH  10  11
HETATM   11  C   UNL     1      -8.857   5.200  66.711  1.00  0.00    -0.110 C  
BRANCH  11  12
HETATM   12  C   UNL     1      -8.884   6.510  65.912  1.00  0.00    -0.119 C  
BRANCH  12  13
HETATM   13  N   UNL     1      -8.764   7.741  66.710  1.00  0.00    -0.130 NA 
HETATM   14  H   UNL     1      -9.178   7.601  67.632  1.00  0.00     0.000 HD 
BRANCH  13  15
HETATM   15  C   UNL     1      -7.398   8.281  66.846  1.00  0.00    -0.084 C  
HETATM   16  C   UNL     1      -7.270   8.827  68.277  1.00  0.00    -0.082 C  
BRANCH  15  17
HETATM   17  C   UNL     1      -7.050   9.372  65.794  1.00  0.00    -0.091 C  
BRANCH  17  18
HETATM   18  C   UNL     1      -8.265  10.187  65.408  1.00  0.00    -0.151 A  
HETATM   19  C   UNL     1      -8.831  11.066  66.337  1.00  0.00    -0.182 A  
HETATM   20  C   UNL     1     -10.079  11.651  66.087  1.00  0.00    -0.224 A  
HETATM   21  C   UNL     1     -10.726  11.455  64.860  1.00  0.00    -0.286 A  
HETATM   22  C   UNL     1      -8.899  10.002  64.178  1.00  0.00    -0.244 A  
HETATM   23  C   UNL     1     -10.108  10.648  63.899  1.00  0.00    -0.356 A  
BRANCH  20  24
HETATM   24  S   UNL     1     -10.924  12.546  67.369  1.00  0.00    -0.272 S  
HETATM   25  O   UNL     1      -9.946  12.951  68.351  1.00  0.00    -0.227 OA 
HETATM   26  N   UNL     1     -11.428  13.972  66.636  1.00  0.00    -0.348 N  
HETATM   27  O   UNL     1     -12.147  11.847  67.690  1.00  0.00    -0.568 OA 
HETATM   28  H1  UNL     1     -11.912  14.486  67.371  1.00  0.00     0.000 HD 
HETATM   29  H2  UNL     1     -11.281  14.261  65.669  1.00  0.00     0.000 HD 
ENDBRANCH  20  24
BRANCH  21  30
HETATM   30  O   UNL     1     -11.933  12.072  64.684  1.00  0.00    -0.323 OA 
HETATM   31  C   UNL     1     -12.303  12.455  63.366  1.00  0.00    -0.499 C  
ENDBRANCH  21  30
ENDBRANCH  17  18
ENDBRANCH  15  17
ENDBRANCH  13  15
ENDBRANCH  12  13
ENDBRANCH  11  12
ENDBRANCH  10  11
ENDBRANCH   9  10
ENDBRANCH   3   4
ENDBRANCH   2   3
TORSDOF 11
ENDMDL
MODEL      306
REMARK 921   NORMALIZED FREE ENERGY PREDICTED BY IDOCK:   -3.74 KCAL/MOL
REMARK 922        TOTAL FREE ENERGY PREDICTED BY IDOCK:   -7.39 KCAL/MOL
REMARK 923 INTER-LIGAND FREE ENERGY PREDICTED BY IDOCK:   -6.15 KCAL/MOL
REMARK 924 INTRA-LIGAND FREE ENERGY PREDICTED BY IDOCK:   -1.24 KCAL/MOL
REMARK 927      BINDING AFFINITY PREDICTED BY RF-SCORE:    0.00 PKD
ROOT
HETATM    1  C   UNL     1      -8.317  14.958  66.903  1.00  0.00    -0.212 C  
HETATM    2  C   UNL     1      -7.767  13.917  67.865  1.00  0.00    -0.160 C  
ENDROOT
BRANCH   2   3
HETATM    3  O   UNL     1      -8.556  12.750  67.668  1.00  0.00    -0.158 OA 
BRANCH   3   4
HETATM    4  C   UNL     1      -8.093  11.709  66.924  1.00  0.00    -0.164 A  
HETATM    5  C   UNL     1      -8.638  11.348  65.684  1.00  0.00     0.044 A  
HETATM    6  C   UNL     1      -8.141  10.252  64.973  1.00  0.00    -0.146 A  
HETATM    7  C   UNL     1      -7.088   9.503  65.493  1.00  0.00    -0.090 A  
HETATM    8  C   UNL     1      -6.529   9.860  66.719  1.00  0.00    -0.070 A  
HETATM    9  C   UNL     1      -7.015  10.961  67.442  1.00  0.00    -0.084 A  
BRANCH   9  10
HETATM   10  O   UNL     1      -6.326  11.159  68.617  1.00  0.00    -0.043 OA 
BRANCH  10  11
HETATM   11  C   UNL     1      -6.236  10.071  69.535  1.00  0.00    -0.046 C  
BRANCH  11  12
HETATM   12  C   UNL     1      -7.516   9.998  70.378  1.00  0.00    -0.050 C  
BRANCH  12  13
HETATM   13  N   UNL     1      -8.777  10.095  69.626  1.00  0.00    -0.291 NA 
HETATM   14  H   UNL     1      -8.850   9.321  68.965  1.00  0.00     0.000 HD 
BRANCH  13  15
HETATM   15  C   UNL     1     -10.002  10.177  70.445  1.00  0.00     0.079 C  
HETATM   16  C   UNL     1     -10.026   8.930  71.343  1.00  0.00    -0.378 C  
BRANCH  15  17
HETATM   17  C   UNL     1     -11.306  10.292  69.607  1.00  0.00    -0.315 C  
BRANCH  17  18
HETATM   18  C   UNL     1     -11.567  11.715  69.166  1.00  0.00    -0.378 A  
HETATM   19  C   UNL     1     -11.866  11.980  67.825  1.00  0.00    -0.308 A  
HETATM   20  C   UNL     1     -11.881  13.298  67.351  1.00  0.00    -0.366 A  
HETATM   21  C   UNL     1     -11.710  14.375  68.232  1.00  0.00    -0.341 A  
HETATM   22  C   UNL     1     -11.411  12.786  70.049  1.00  0.00    -0.082 A  
HETATM   23  C   UNL     1     -11.504  14.104  69.589  1.00  0.00    -0.329 A  
BRANCH  20  24
HETATM   24  S   UNL     1     -11.990  13.624  65.608  1.00  0.00    -0.422 S  
HETATM   25  O   UNL     1     -10.717  14.147  65.171  1.00  0.00    -0.340 OA 
HETATM   26  N   UNL     1     -12.111  12.108  64.894  1.00  0.00    -0.328 N  
HETATM   27  O   UNL     1     -13.258  14.260  65.337  1.00  0.00    -0.688 OA 
HETATM   28  H1  UNL     1     -12.173  12.295  63.894  1.00  0.00     0.000 HD 
HETATM   29  H2  UNL     1     -12.119  11.199  65.358  1.00  0.00     0.000 HD 
ENDBRANCH  20  24
BRANCH  21  30
HETATM   30  O   UNL     1     -11.753  15.632  67.697  1.00  0.00    -0.182 OA 
HETATM   31  C   UNL     1     -11.083  16.677  68.390  1.00  0.00    -0.305 C  
ENDBRANCH  21  30
ENDBRANCH  17  18
ENDBRANCH  15  17
ENDBRANCH  13  15
ENDBRANCH  12  13
ENDBRANCH  11  12
ENDBRANCH  10  11
ENDBRANCH   9  10
ENDBRANCH   3   4
ENDBRANCH   2   3
TORSDOF 11
ENDMDL
MODEL      307
REMARK 921   NORMALIZED FREE ENERGY PREDICTED BY IDOCK:   -3.73 KCAL/MOL
REMARK 922        TOTAL FREE ENERGY PREDICTED BY IDOCK:   -7.37 KCAL/MOL
REMARK 923 INTER-LIGAND FREE ENERGY PREDICTED BY IDOCK:   -6.21 KCAL/MOL
REMARK 924 INTRA-LIGAND FREE ENERGY PREDICTED BY IDOCK:   -1.16 KCAL/MOL
REMARK 927      BINDING AFFINITY PREDICTED BY RF-SCORE:    0.00 PKD
ROOT
HETATM    1  C   UNL     1     -12.080  15.041  69.901  1.00  0.00    -0.376 C  
HETATM    2  C   UNL     1     -11.964  13.950  68.848  1.00  0.00    -0.358 C  
ENDROOT
BRANCH   2   3
HETATM    3  O   UNL     1     -11.854  14.626  67.601  1.00  0.00    -0.367 OA 
BRANCH   3   4
HETATM    4  C   UNL     1     -11.774  13.930  66.433  1.00  0.00    -0.383 A  
HETATM    5  C   UNL     1     -12.900  13.493  65.721  1.00  0.00    -0.326 A  
HETATM    6  C   UNL     1     -12.762  12.758  64.540  1.00  0.00    -0.405 A  
HETATM    7  C   UNL     1     -11.493  12.451  64.055  1.00  0.00    -0.479 A  
HETATM    8  C   UNL     1     -10.366  12.890  64.748  1.00  0.00    -0.345 A  
HETATM    9  C   UNL     1     -10.489  13.634  65.932  1.00  0.00    -0.296 A  
BRANCH   9  10
HETATM   10  O   UNL     1      -9.267  13.985  66.458  1.00  0.00    -0.270 OA 
BRANCH  10  11
HETATM   11  C   UNL     1      -8.386  12.940  66.865  1.00  0.00    -0.039 C  
BRANCH  11  12
HETATM   12  C   UNL     1      -8.372  12.843  68.396  1.00  0.00    -0.116 C  
BRANCH  12  13
HETATM   13  N   UNL     1      -8.892  11.586  68.957  1.00  0.00    -0.379 NA 
HETATM   14  H   UNL     1      -9.642  11.225  68.367  1.00  0.00     0.000 HD 
BRANCH  13  15
HETATM   15  C   UNL     1      -7.887  10.532  69.196  1.00  0.00    -0.138 C  
HETATM   16  C   UNL     1      -6.658  11.215  69.816  1.00  0.00    -0.138 C  
BRANCH  15  17
HETATM   17  C   UNL     1      -7.502   9.735  67.917  1.00  0.00    -0.086 C  
BRANCH  17  18
HETATM   18  C   UNL     1      -8.368   8.508  67.739  1.00  0.00    -0.130 A  
HETATM   19  C   UNL     1      -8.133   7.376  68.527  1.00  0.00    -0.125 A  
HETATM   20  C   UNL     1      -8.761   6.161  68.224  1.00  0.00    -0.114 A  
HETATM   21  C   UNL     1      -9.717   6.088  67.202  1.00  0.00    -0.131 A  
HETATM   22  C   UNL     1      -9.331   8.443  66.731  1.00  0.00    -0.235 A  
HETATM   23  C   UNL     1     -10.015   7.248  66.480  1.00  0.00    -0.182 A  
BRANCH  20  24
HETATM   24  S   UNL     1      -8.264   4.665  69.042  1.00  0.00    -0.080 S  
HETATM   25  O   UNL     1      -7.561   5.028  70.250  1.00  0.00    -0.060 OA 
HETATM   26  N   UNL     1      -9.700   3.963  69.564  1.00  0.00    -0.179 N  
HETATM   27  O   UNL     1      -7.746   3.748  68.053  1.00  0.00    -0.065 OA 
HETATM   28  H1  UNL     1      -9.415   3.105  70.034  1.00  0.00     0.000 HD 
HETATM   29  H2  UNL     1     -10.648   4.318  69.438  1.00  0.00     0.000 HD 
ENDBRANCH  20  24
BRANCH  21  30
HETATM   30  O   UNL     1     -10.298   4.871  66.976  1.00  0.00    -0.208 OA 
HETATM   31  C   UNL     1     -10.633   4.528  65.638  1.00  0.00    -0.194 C  
ENDBRANCH  21  30
ENDBRANCH  17  18
ENDBRANCH  15  17
ENDBRANCH  13  15
ENDBRANCH  12  13
ENDBRANCH  11  12
ENDBRANCH  10  11
ENDBRANCH   9  10
ENDBRANCH   3   4
ENDBRANCH   2   3
TORSDOF 11
ENDMDL
MODEL      308
REMARK 921   NORMALIZED FREE ENERGY PREDICTED BY IDOCK:   -3.72 KCAL/MOL
REMARK 922        TOTAL FREE ENERGY PREDICTED BY IDOCK:   -7.36 KCAL/MOL
REMARK 923 INTER-LIGAND FREE ENERGY PREDICTED BY IDOCK:   -6.26 KCAL/MOL
REMARK 924 INTRA-LIGAND FREE ENERGY PREDICTED BY IDOCK:   -1.09 KCAL/MOL
REMARK 927      BINDING AFFINITY PREDICTED BY RF-SCORE:    0.00 PKD
ROOT
HETATM    1  C   UNL     1     -12.083  15.054  69.883  1.00  0.00    -0.376 C  
HETATM    2  C   UNL     1     -11.954  13.973  68.821  1.00  0.00    -0.347 C  
ENDROOT
BRANCH   2   3
HETATM    3  O   UNL     1     -11.877  14.658  67.577  1.00  0.00    -0.380 OA 
BRANCH   3   4
HETATM    4  C   UNL     1     -11.769  13.972  66.406  1.00  0.00    -0.391 A  
HETATM    5  C   UNL     1     -12.874  13.471  65.703  1.00  0.00    -0.380 A  
HETATM    6  C   UNL     1     -12.704  12.749  64.519  1.00  0.00    -0.405 A  
HETATM    7  C   UNL     1     -11.424  12.519  64.020  1.00  0.00    -0.476 A  
HETATM    8  C   UNL     1     -10.318  13.023  64.703  1.00  0.00    -0.374 A  
HETATM    9  C   UNL     1     -10.473  13.755  65.891  1.00  0.00    -0.297 A  
BRANCH   9  10
HETATM   10  O   UNL     1      -9.269  14.177  66.406  1.00  0.00    -0.258 OA 
BRANCH  10  11
HETATM   11  C   UNL     1      -8.371  13.189  66.909  1.00  0.00    -0.008 C  
BRANCH  11  12
HETATM   12  C   UNL     1      -7.639  13.736  68.141  1.00  0.00    -0.128 C  
BRANCH  12  13
HETATM   13  N   UNL     1      -7.981  13.093  69.420  1.00  0.00     0.027 NA 
HETATM   14  H   UNL     1      -8.968  12.833  69.427  1.00  0.00     0.000 HD 
BRANCH  13  15
HETATM   15  C   UNL     1      -7.151  11.930  69.790  1.00  0.00     0.354 C  
HETATM   16  C   UNL     1      -5.701  12.275  69.414  1.00  0.00    -0.084 C  
BRANCH  15  17
HETATM   17  C   UNL     1      -7.604  10.602  69.120  1.00  0.00    -0.131 C  
BRANCH  17  18
HETATM   18  C   UNL     1      -8.671   9.901  69.930  1.00  0.00    -0.225 A  
HETATM   19  C   UNL     1      -8.313   9.206  71.091  1.00  0.00    -0.157 A  
HETATM   20  C   UNL     1      -9.237   8.363  71.722  1.00  0.00    -0.220 A  
HETATM   21  C   UNL     1     -10.562   8.291  71.272  1.00  0.00    -0.219 A  
HETATM   22  C   UNL     1      -9.994   9.843  69.488  1.00  0.00    -0.240 A  
HETATM   23  C   UNL     1     -10.936   9.062  70.166  1.00  0.00    -0.256 A  
BRANCH  20  24
HETATM   24  S   UNL     1      -8.714   7.275  73.026  1.00  0.00    -0.137 S  
HETATM   25  O   UNL     1      -7.458   7.766  73.542  1.00  0.00    -0.107 OA 
HETATM   26  N   UNL     1      -9.824   7.523  74.264  1.00  0.00    -0.324 N  
HETATM   27  O   UNL     1      -8.934   5.911  72.605  1.00  0.00    -0.132 OA 
HETATM   28  H1  UNL     1      -9.523   6.900  75.012  1.00  0.00     0.000 HD 
HETATM   29  H2  UNL     1     -10.622   8.158  74.267  1.00  0.00     0.000 HD 
ENDBRANCH  20  24
BRANCH  21  30
HETATM   30  O   UNL     1     -11.408   7.459  71.950  1.00  0.00    -0.248 OA 
HETATM   31  C   UNL     1     -12.410   6.775  71.209  1.00  0.00    -0.344 C  
ENDBRANCH  21  30
ENDBRANCH  17  18
ENDBRANCH  15  17
ENDBRANCH  13  15
ENDBRANCH  12  13
ENDBRANCH  11  12
ENDBRANCH  10  11
ENDBRANCH   9  10
ENDBRANCH   3   4
ENDBRANCH   2   3
TORSDOF 11
ENDMDL
MODEL      309
REMARK 921   NORMALIZED FREE ENERGY PREDICTED BY IDOCK:   -3.72 KCAL/MOL
REMARK 922        TOTAL FREE ENERGY PREDICTED BY IDOCK:   -7.35 KCAL/MOL
REMARK 923 INTER-LIGAND FREE ENERGY PREDICTED BY IDOCK:   -5.82 KCAL/MOL
REMARK 924 INTRA-LIGAND FREE ENERGY PREDICTED BY IDOCK:   -1.53 KCAL/MOL
REMARK 927      BINDING AFFINITY PREDICTED BY RF-SCORE:    0.00 PKD
ROOT
HETATM    1  C   UNL     1      -9.002   2.544  66.797  1.00  0.00    -0.147 C  
HETATM    2  C   UNL     1      -8.569   3.825  67.494  1.00  0.00    -0.102 C  
ENDROOT
BRANCH   2   3
HETATM    3  O   UNL     1      -9.737   4.632  67.581  1.00  0.00    -0.159 OA 
BRANCH   3   4
HETATM    4  C   UNL     1      -9.737   5.914  67.120  1.00  0.00    -0.132 A  
HETATM    5  C   UNL     1      -8.938   6.346  66.052  1.00  0.00    -0.143 A  
HETATM    6  C   UNL     1      -8.956   7.680  65.636  1.00  0.00    -0.036 A  
HETATM    7  C   UNL     1      -9.777   8.601  66.285  1.00  0.00    -0.322 A  
HETATM    8  C   UNL     1     -10.585   8.180  67.340  1.00  0.00    -0.325 A  
HETATM    9  C   UNL     1     -10.581   6.842  67.764  1.00  0.00    -0.244 A  
BRANCH   9  10
HETATM   10  O   UNL     1     -11.453   6.622  68.806  1.00  0.00    -0.172 OA 
BRANCH  10  11
HETATM   11  C   UNL     1     -10.916   6.537  70.125  1.00  0.00    -0.317 C  
BRANCH  11  12
HETATM   12  C   UNL     1     -11.806   7.323  71.097  1.00  0.00    -0.312 C  
BRANCH  12  13
HETATM   13  N   UNL     1     -12.508   8.480  70.520  1.00  0.00    -0.326 NA 
HETATM   14  H   UNL     1     -13.505   8.422  70.727  1.00  0.00     0.000 HD 
BRANCH  13  15
HETATM   15  C   UNL     1     -11.987   9.803  70.915  1.00  0.00    -0.328 C  
HETATM   16  C   UNL     1     -12.966  10.382  71.948  1.00  0.00    -0.555 C  
BRANCH  15  17
HETATM   17  C   UNL     1     -11.788  10.778  69.720  1.00  0.00    -0.409 C  
BRANCH  17  18
HETATM   18  C   UNL     1     -10.342  10.841  69.282  1.00  0.00    -0.228 A  
HETATM   19  C   UNL     1      -9.397  10.010  69.895  1.00  0.00    -0.207 A  
HETATM   20  C   UNL     1      -8.029  10.212  69.673  1.00  0.00    -0.173 A  
HETATM   21  C   UNL     1      -7.590  11.171  68.750  1.00  0.00    -0.129 A  
HETATM   22  C   UNL     1      -9.909  11.786  68.351  1.00  0.00    -0.199 A  
HETATM   23  C   UNL     1      -8.545  11.934  68.072  1.00  0.00    -0.168 A  
BRANCH  20  24
HETATM   24  S   UNL     1      -6.824   9.347  70.650  1.00  0.00    -0.110 S  
HETATM   25  O   UNL     1      -5.965  10.327  71.272  1.00  0.00    -0.285 OA 
HETATM   26  N   UNL     1      -7.701   8.668  71.913  1.00  0.00    -0.099 N  
HETATM   27  O   UNL     1      -6.340   8.217  69.891  1.00  0.00    -0.032 OA 
HETATM   28  H1  UNL     1      -7.010   8.172  72.474  1.00  0.00     0.000 HD 
HETATM   29  H2  UNL     1      -8.705   8.738  72.082  1.00  0.00     0.000 HD 
ENDBRANCH  20  24
BRANCH  21  30
HETATM   30  O   UNL     1      -6.240  11.299  68.576  1.00  0.00    -0.046 OA 
HETATM   31  C   UNL     1      -5.777  12.095  67.493  1.00  0.00    -0.117 C  
ENDBRANCH  21  30
ENDBRANCH  17  18
ENDBRANCH  15  17
ENDBRANCH  13  15
ENDBRANCH  12  13
ENDBRANCH  11  12
ENDBRANCH  10  11
ENDBRANCH   9  10
ENDBRANCH   3   4
ENDBRANCH   2   3
TORSDOF 11
ENDMDL
MODEL      310
REMARK 921   NORMALIZED FREE ENERGY PREDICTED BY IDOCK:   -3.72 KCAL/MOL
REMARK 922        TOTAL FREE ENERGY PREDICTED BY IDOCK:   -7.35 KCAL/MOL
REMARK 923 INTER-LIGAND FREE ENERGY PREDICTED BY IDOCK:   -6.52 KCAL/MOL
REMARK 924 INTRA-LIGAND FREE ENERGY PREDICTED BY IDOCK:   -0.82 KCAL/MOL
REMARK 927      BINDING AFFINITY PREDICTED BY RF-SCORE:    0.00 PKD
ROOT
HETATM    1  C   UNL     1     -11.589  15.997  70.229  1.00  0.00    -0.335 C  
HETATM    2  C   UNL     1     -11.040  14.756  69.542  1.00  0.00    -0.279 C  
ENDROOT
BRANCH   2   3
HETATM    3  O   UNL     1     -11.996  14.406  68.549  1.00  0.00    -0.331 OA 
BRANCH   3   4
HETATM    4  C   UNL     1     -11.607  13.862  67.363  1.00  0.00    -0.368 A  
HETATM    5  C   UNL     1     -11.138  14.625  66.284  1.00  0.00    -0.336 A  
HETATM    6  C   UNL     1     -10.776  14.017  65.079  1.00  0.00    -0.409 A  
HETATM    7  C   UNL     1     -10.877  12.635  64.937  1.00  0.00    -0.329 A  
HETATM    8  C   UNL     1     -11.330  11.864  66.007  1.00  0.00    -0.375 A  
HETATM    9  C   UNL     1     -11.692  12.461  67.225  1.00  0.00    -0.349 A  
BRANCH   9  10
HETATM   10  O   UNL     1     -12.099  11.535  68.159  1.00  0.00    -0.604 OA 
BRANCH  10  11
HETATM   11  C   UNL     1     -11.287  11.348  69.317  1.00  0.00    -0.289 C  
BRANCH  11  12
HETATM   12  C   UNL     1     -10.785   9.899  69.368  1.00  0.00    -0.232 C  
BRANCH  12  13
HETATM   13  N   UNL     1     -11.146   9.062  68.213  1.00  0.00    -0.467 NA 
HETATM   14  H   UNL     1     -11.208   9.636  67.371  1.00  0.00     0.000 HD 
BRANCH  13  15
HETATM   15  C   UNL     1     -10.269   7.901  67.969  1.00  0.00    -0.208 C  
HETATM   16  C   UNL     1      -9.147   7.957  69.017  1.00  0.00    -0.144 C  
BRANCH  15  17
HETATM   17  C   UNL     1      -9.689   7.850  66.526  1.00  0.00    -0.279 C  
BRANCH  17  18
HETATM   18  C   UNL     1      -9.321   6.440  66.119  1.00  0.00    -0.110 A  
HETATM   19  C   UNL     1      -8.107   6.204  65.467  1.00  0.00    -0.131 A  
HETATM   20  C   UNL     1      -7.851   4.959  64.878  1.00  0.00    -0.089 A  
HETATM   21  C   UNL     1      -8.755   3.899  65.031  1.00  0.00    -0.116 A  
HETATM   22  C   UNL     1     -10.217   5.382  66.286  1.00  0.00    -0.234 A  
HETATM   23  C   UNL     1      -9.926   4.117  65.765  1.00  0.00    -0.200 A  
BRANCH  20  24
HETATM   24  S   UNL     1      -6.440   4.737  63.822  1.00  0.00    -0.031 S  
HETATM   25  O   UNL     1      -5.645   3.657  64.358  1.00  0.00    -0.012 OA 
HETATM   26  N   UNL     1      -7.071   4.144  62.381  1.00  0.00    -0.035 N  
HETATM   27  O   UNL     1      -5.910   6.037  63.482  1.00  0.00    -0.021 OA 
HETATM   28  H1  UNL     1      -6.261   4.017  61.775  1.00  0.00     0.000 HD 
HETATM   29  H2  UNL     1      -8.048   3.954  62.161  1.00  0.00     0.000 HD 
ENDBRANCH  20  24
BRANCH  21  30
HETATM   30  O   UNL     1      -8.429   2.709  64.441  1.00  0.00    -0.086 OA 
HETATM   31  C   UNL     1      -9.413   1.684  64.413  1.00  0.00    -0.127 C  
ENDBRANCH  21  30
ENDBRANCH  17  18
ENDBRANCH  15  17
ENDBRANCH  13  15
ENDBRANCH  12  13
ENDBRANCH  11  12
ENDBRANCH  10  11
ENDBRANCH   9  10
ENDBRANCH   3   4
ENDBRANCH   2   3
TORSDOF 11
ENDMDL
MODEL      311
REMARK 921   NORMALIZED FREE ENERGY PREDICTED BY IDOCK:   -3.71 KCAL/MOL
REMARK 922        TOTAL FREE ENERGY PREDICTED BY IDOCK:   -7.35 KCAL/MOL
REMARK 923 INTER-LIGAND FREE ENERGY PREDICTED BY IDOCK:   -6.24 KCAL/MOL
REMARK 924 INTRA-LIGAND FREE ENERGY PREDICTED BY IDOCK:   -1.11 KCAL/MOL
REMARK 927      BINDING AFFINITY PREDICTED BY RF-SCORE:    0.00 PKD
ROOT
HETATM    1  C   UNL     1     -12.233  13.755  66.721  1.00  0.00    -0.440 C  
HETATM    2  C   UNL     1     -11.539  15.064  66.376  1.00  0.00    -0.172 C  
ENDROOT
BRANCH   2   3
HETATM    3  O   UNL     1     -11.445  15.787  67.598  1.00  0.00    -0.254 OA 
BRANCH   3   4
HETATM    4  C   UNL     1     -10.531  16.785  67.751  1.00  0.00    -0.335 A  
HETATM    5  C   UNL     1     -10.803  18.128  67.454  1.00  0.00    -0.258 A  
HETATM    6  C   UNL     1      -9.820  19.109  67.604  1.00  0.00    -0.412 A  
HETATM    7  C   UNL     1      -8.549  18.759  68.054  1.00  0.00    -0.324 A  
HETATM    8  C   UNL     1      -8.270  17.429  68.364  1.00  0.00    -0.262 A  
HETATM    9  C   UNL     1      -9.250  16.434  68.224  1.00  0.00    -0.207 A  
BRANCH   9  10
HETATM   10  O   UNL     1      -8.788  15.191  68.592  1.00  0.00    -0.169 OA 
BRANCH  10  11
HETATM   11  C   UNL     1      -8.245  14.348  67.576  1.00  0.00    -0.188 C  
BRANCH  11  12
HETATM   12  C   UNL     1      -8.242  12.892  68.059  1.00  0.00    -0.168 C  
BRANCH  12  13
HETATM   13  N   UNL     1      -9.010  11.948  67.231  1.00  0.00    -0.171 NA 
HETATM   14  H   UNL     1      -8.546  11.816  66.332  1.00  0.00     0.000 HD 
BRANCH  13  15
HETATM   15  C   UNL     1      -9.289  10.639  67.852  1.00  0.00    -0.148 C  
HETATM   16  C   UNL     1      -9.572   9.651  66.710  1.00  0.00    -0.225 C  
BRANCH  15  17
HETATM   17  C   UNL     1     -10.462  10.670  68.873  1.00  0.00    -0.232 C  
BRANCH  17  18
HETATM   18  C   UNL     1     -10.402   9.502  69.832  1.00  0.00    -0.265 A  
HETATM   19  C   UNL     1      -9.386   9.449  70.793  1.00  0.00    -0.292 A  
HETATM   20  C   UNL     1      -9.172   8.278  71.531  1.00  0.00    -0.177 A  
HETATM   21  C   UNL     1     -10.040   7.185  71.402  1.00  0.00    -0.188 A  
HETATM   22  C   UNL     1     -11.277   8.421  69.712  1.00  0.00     0.027 A  
HETATM   23  C   UNL     1     -11.109   7.281  70.506  1.00  0.00    -0.290 A  
BRANCH  20  24
HETATM   24  S   UNL     1      -7.726   8.110  72.550  1.00  0.00    -0.124 S  
HETATM   25  O   UNL     1      -8.160   7.907  73.912  1.00  0.00    -0.172 OA 
HETATM   26  N   UNL     1      -7.042   6.647  72.085  1.00  0.00    -0.079 N  
HETATM   27  O   UNL     1      -6.763   9.109  72.150  1.00  0.00    -0.295 OA 
HETATM   28  H1  UNL     1      -6.212   6.550  72.669  1.00  0.00     0.000 HD 
HETATM   29  H2  UNL     1      -7.381   5.998  71.375  1.00  0.00     0.000 HD 
ENDBRANCH  20  24
BRANCH  21  30
HETATM   30  O   UNL     1      -9.776   6.084  72.168  1.00  0.00    -0.156 OA 
HETATM   31  C   UNL     1     -10.870   5.423  72.789  1.00  0.00    -0.263 C  
ENDBRANCH  21  30
ENDBRANCH  17  18
ENDBRANCH  15  17
ENDBRANCH  13  15
ENDBRANCH  12  13
ENDBRANCH  11  12
ENDBRANCH  10  11
ENDBRANCH   9  10
ENDBRANCH   3   4
ENDBRANCH   2   3
TORSDOF 11
ENDMDL
MODEL      312
REMARK 921   NORMALIZED FREE ENERGY PREDICTED BY IDOCK:   -3.71 KCAL/MOL
REMARK 922        TOTAL FREE ENERGY PREDICTED BY IDOCK:   -7.34 KCAL/MOL
REMARK 923 INTER-LIGAND FREE ENERGY PREDICTED BY IDOCK:   -6.33 KCAL/MOL
REMARK 924 INTRA-LIGAND FREE ENERGY PREDICTED BY IDOCK:   -1.01 KCAL/MOL
REMARK 927      BINDING AFFINITY PREDICTED BY RF-SCORE:    0.00 PKD
ROOT
HETATM    1  C   UNL     1      -8.178   9.267  65.477  1.00  0.00    -0.125 C  
HETATM    2  C   UNL     1      -9.544   9.727  64.993  1.00  0.00    -0.264 C  
ENDROOT
BRANCH   2   3
HETATM    3  O   UNL     1      -9.434  11.132  64.799  1.00  0.00    -0.220 OA 
BRANCH   3   4
HETATM    4  C   UNL     1     -10.528  11.938  64.885  1.00  0.00    -0.287 A  
HETATM    5  C   UNL     1     -11.651  11.801  64.057  1.00  0.00    -0.428 A  
HETATM    6  C   UNL     1     -12.737  12.673  64.169  1.00  0.00    -0.373 A  
HETATM    7  C   UNL     1     -12.714  13.696  65.115  1.00  0.00    -0.443 A  
HETATM    8  C   UNL     1     -11.609  13.835  65.953  1.00  0.00    -0.346 A  
HETATM    9  C   UNL     1     -10.513  12.962  65.855  1.00  0.00    -0.279 A  
BRANCH   9  10
HETATM   10  O   UNL     1      -9.531  13.253  66.773  1.00  0.00    -0.243 OA 
BRANCH  10  11
HETATM   11  C   UNL     1      -9.576  12.592  68.037  1.00  0.00    -0.212 C  
BRANCH  11  12
HETATM   12  C   UNL     1      -8.316  11.735  68.217  1.00  0.00    -0.159 C  
BRANCH  12  13
HETATM   13  N   UNL     1      -8.293  10.885  69.419  1.00  0.00    -0.380 NA 
HETATM   14  H   UNL     1      -8.876  10.060  69.273  1.00  0.00     0.000 HD 
BRANCH  13  15
HETATM   15  C   UNL     1      -6.954  10.482  69.888  1.00  0.00    -0.150 C  
HETATM   16  C   UNL     1      -6.153  10.055  68.648  1.00  0.00    -0.044 C  
BRANCH  15  17
HETATM   17  C   UNL     1      -6.981   9.352  70.956  1.00  0.00    -0.066 C  
BRANCH  17  18
HETATM   18  C   UNL     1      -8.322   8.653  71.001  1.00  0.00    -0.193 A  
HETATM   19  C   UNL     1      -8.624   7.678  70.044  1.00  0.00    -0.138 A  
HETATM   20  C   UNL     1      -9.931   7.189  69.923  1.00  0.00    -0.182 A  
HETATM   21  C   UNL     1     -10.927   7.582  70.827  1.00  0.00    -0.252 A  
HETATM   22  C   UNL     1      -9.307   9.036  71.913  1.00  0.00    -0.145 A  
HETATM   23  C   UNL     1     -10.593   8.488  71.839  1.00  0.00    -0.392 A  
BRANCH  20  24
HETATM   24  S   UNL     1     -10.381   6.161  68.545  1.00  0.00    -0.233 S  
HETATM   25  O   UNL     1     -11.379   6.862  67.771  1.00  0.00    -0.110 OA 
HETATM   26  N   UNL     1      -9.013   6.127  67.570  1.00  0.00    -0.113 N  
HETATM   27  O   UNL     1     -10.532   4.803  69.013  1.00  0.00    -0.046 OA 
HETATM   28  H1  UNL     1      -9.271   5.538  66.779  1.00  0.00     0.000 HD 
HETATM   29  H2  UNL     1      -8.121   6.594  67.732  1.00  0.00     0.000 HD 
ENDBRANCH  20  24
BRANCH  21  30
HETATM   30  O   UNL     1     -12.174   7.050  70.654  1.00  0.00    -0.330 OA 
HETATM   31  C   UNL     1     -12.878   6.606  71.807  1.00  0.00    -0.179 C  
ENDBRANCH  21  30
ENDBRANCH  17  18
ENDBRANCH  15  17
ENDBRANCH  13  15
ENDBRANCH  12  13
ENDBRANCH  11  12
ENDBRANCH  10  11
ENDBRANCH   9  10
ENDBRANCH   3   4
ENDBRANCH   2   3
TORSDOF 11
ENDMDL
MODEL      313
REMARK 921   NORMALIZED FREE ENERGY PREDICTED BY IDOCK:   -3.69 KCAL/MOL
REMARK 922        TOTAL FREE ENERGY PREDICTED BY IDOCK:   -7.31 KCAL/MOL
REMARK 923 INTER-LIGAND FREE ENERGY PREDICTED BY IDOCK:   -6.67 KCAL/MOL
REMARK 924 INTRA-LIGAND FREE ENERGY PREDICTED BY IDOCK:   -0.64 KCAL/MOL
REMARK 927      BINDING AFFINITY PREDICTED BY RF-SCORE:    0.00 PKD
ROOT
HETATM    1  C   UNL     1     -10.344   2.849  72.411  1.00  0.00    -0.155 C  
HETATM    2  C   UNL     1      -9.149   3.748  72.690  1.00  0.00    -0.104 C  
ENDROOT
BRANCH   2   3
HETATM    3  O   UNL     1      -9.644   5.081  72.629  1.00  0.00    -0.139 OA 
BRANCH   3   4
HETATM    4  C   UNL     1      -8.839   6.140  72.916  1.00  0.00    -0.125 A  
HETATM    5  C   UNL     1      -8.516   6.527  74.225  1.00  0.00    -0.148 A  
HETATM    6  C   UNL     1      -7.706   7.640  74.464  1.00  0.00    -0.213 A  
HETATM    7  C   UNL     1      -7.205   8.381  73.396  1.00  0.00    -0.116 A  
HETATM    8  C   UNL     1      -7.509   7.999  72.090  1.00  0.00    -0.111 A  
HETATM    9  C   UNL     1      -8.317   6.880  71.834  1.00  0.00    -0.107 A  
BRANCH   9  10
HETATM   10  O   UNL     1      -8.489   6.657  70.487  1.00  0.00    -0.134 OA 
BRANCH  10  11
HETATM   11  C   UNL     1      -8.424   7.778  69.607  1.00  0.00    -0.133 C  
BRANCH  11  12
HETATM   12  C   UNL     1      -9.826   8.101  69.075  1.00  0.00    -0.176 C  
BRANCH  12  13
HETATM   13  N   UNL     1     -10.100   9.526  68.833  1.00  0.00    -0.181 NA 
HETATM   14  H   UNL     1     -10.539   9.646  67.919  1.00  0.00     0.000 HD 
BRANCH  13  15
HETATM   15  C   UNL     1     -10.900  10.206  69.870  1.00  0.00    -0.299 C  
HETATM   16  C   UNL     1     -11.397   9.120  70.838  1.00  0.00    -0.359 C  
BRANCH  15  17
HETATM   17  C   UNL     1     -12.085  11.036  69.300  1.00  0.00    -0.363 C  
BRANCH  17  18
HETATM   18  C   UNL     1     -12.135  12.425  69.897  1.00  0.00    -0.317 A  
HETATM   19  C   UNL     1     -11.412  13.462  69.296  1.00  0.00    -0.345 A  
HETATM   20  C   UNL     1     -11.256  14.688  69.955  1.00  0.00    -0.209 A  
HETATM   21  C   UNL     1     -11.914  14.935  71.168  1.00  0.00    -0.335 A  
HETATM   22  C   UNL     1     -12.803  12.673  71.097  1.00  0.00    -0.311 A  
HETATM   23  C   UNL     1     -12.711  13.925  71.715  1.00  0.00    -0.393 A  
BRANCH  20  24
HETATM   24  S   UNL     1     -10.122  15.905  69.330  1.00  0.00    -0.278 S  
HETATM   25  O   UNL     1      -8.819  15.630  69.887  1.00  0.00    -0.120 OA 
HETATM   26  N   UNL     1      -9.982  15.560  67.692  1.00  0.00    -0.232 N  
HETATM   27  O   UNL     1     -10.762  17.199  69.379  1.00  0.00    -0.288 OA 
HETATM   28  H1  UNL     1      -9.331  16.258  67.333  1.00  0.00     0.000 HD 
HETATM   29  H2  UNL     1     -10.444  14.816  67.170  1.00  0.00     0.000 HD 
ENDBRANCH  20  24
BRANCH  21  30
HETATM   30  O   UNL     1     -11.726  16.162  71.742  1.00  0.00    -0.470 OA 
HETATM   31  C   UNL     1     -12.123  16.334  73.096  1.00  0.00    -0.509 C  
ENDBRANCH  21  30
ENDBRANCH  17  18
ENDBRANCH  15  17
ENDBRANCH  13  15
ENDBRANCH  12  13
ENDBRANCH  11  12
ENDBRANCH  10  11
ENDBRANCH   9  10
ENDBRANCH   3   4
ENDBRANCH   2   3
TORSDOF 11
ENDMDL
MODEL      314
REMARK 921   NORMALIZED FREE ENERGY PREDICTED BY IDOCK:   -3.68 KCAL/MOL
REMARK 922        TOTAL FREE ENERGY PREDICTED BY IDOCK:   -7.29 KCAL/MOL
REMARK 923 INTER-LIGAND FREE ENERGY PREDICTED BY IDOCK:   -7.14 KCAL/MOL
REMARK 924 INTRA-LIGAND FREE ENERGY PREDICTED BY IDOCK:   -0.14 KCAL/MOL
REMARK 927      BINDING AFFINITY PREDICTED BY RF-SCORE:    0.00 PKD
ROOT
HETATM    1  C   UNL     1      -8.003   8.781  62.932  1.00  0.00    -0.159 C  
HETATM    2  C   UNL     1      -8.433   9.134  64.347  1.00  0.00    -0.184 C  
ENDROOT
BRANCH   2   3
HETATM    3  O   UNL     1      -8.584   7.893  65.028  1.00  0.00    -0.104 OA 
BRANCH   3   4
HETATM    4  C   UNL     1      -8.531   7.831  66.387  1.00  0.00    -0.136 A  
HETATM    5  C   UNL     1      -7.577   7.076  67.085  1.00  0.00    -0.107 A  
HETATM    6  C   UNL     1      -7.585   7.025  68.482  1.00  0.00    -0.115 A  
HETATM    7  C   UNL     1      -8.548   7.731  69.200  1.00  0.00    -0.138 A  
HETATM    8  C   UNL     1      -9.493   8.495  68.517  1.00  0.00    -0.146 A  
HETATM    9  C   UNL     1      -9.494   8.560  67.115  1.00  0.00    -0.162 A  
BRANCH   9  10
HETATM   10  O   UNL     1     -10.492   9.374  66.631  1.00  0.00    -0.233 OA 
BRANCH  10  11
HETATM   11  C   UNL     1     -10.856  10.521  67.398  1.00  0.00    -0.291 C  
BRANCH  11  12
HETATM   12  C   UNL     1     -10.795  11.774  66.515  1.00  0.00    -0.282 C  
BRANCH  12  13
HETATM   13  N   UNL     1     -12.060  12.513  66.375  1.00  0.00    -0.597 NA 
HETATM   14  H   UNL     1     -12.725  12.203  67.084  1.00  0.00     0.000 HD 
BRANCH  13  15
HETATM   15  C   UNL     1     -11.944  13.984  66.401  1.00  0.00    -0.438 C  
HETATM   16  C   UNL     1     -10.692  14.351  65.589  1.00  0.00    -0.326 C  
BRANCH  15  17
HETATM   17  C   UNL     1     -11.877  14.579  67.837  1.00  0.00    -0.370 C  
BRANCH  17  18
HETATM   18  C   UNL     1     -10.632  15.413  68.041  1.00  0.00    -0.263 A  
HETATM   19  C   UNL     1     -10.605  16.736  67.586  1.00  0.00    -0.325 A  
HETATM   20  C   UNL     1      -9.398  17.447  67.553  1.00  0.00    -0.233 A  
HETATM   21  C   UNL     1      -8.227  16.888  68.081  1.00  0.00    -0.207 A  
HETATM   22  C   UNL     1      -9.471  14.859  68.581  1.00  0.00    -0.208 A  
HETATM   23  C   UNL     1      -8.283  15.599  68.620  1.00  0.00    -0.168 A  
BRANCH  20  24
HETATM   24  S   UNL     1      -9.304  19.018  66.730  1.00  0.00    -0.339 S  
HETATM   25  O   UNL     1     -10.638  19.390  66.321  1.00  0.00    -0.454 OA 
HETATM   26  N   UNL     1      -8.894  20.113  67.938  1.00  0.00    -0.261 N  
HETATM   27  O   UNL     1      -8.163  19.007  65.844  1.00  0.00    -0.465 OA 
HETATM   28  H1  UNL     1      -8.840  21.014  67.466  1.00  0.00     0.000 HD 
HETATM   29  H2  UNL     1      -8.735  19.918  68.926  1.00  0.00     0.000 HD 
ENDBRANCH  20  24
BRANCH  21  30
HETATM   30  O   UNL     1      -7.092  17.650  68.029  1.00  0.00    -0.190 OA 
HETATM   31  C   UNL     1      -6.362  17.846  69.233  1.00  0.00    -0.244 C  
ENDBRANCH  21  30
ENDBRANCH  17  18
ENDBRANCH  15  17
ENDBRANCH  13  15
ENDBRANCH  12  13
ENDBRANCH  11  12
ENDBRANCH  10  11
ENDBRANCH   9  10
ENDBRANCH   3   4
ENDBRANCH   2   3
TORSDOF 11
ENDMDL
MODEL      315
REMARK 921   NORMALIZED FREE ENERGY PREDICTED BY IDOCK:   -3.66 KCAL/MOL
REMARK 922        TOTAL FREE ENERGY PREDICTED BY IDOCK:   -7.26 KCAL/MOL
REMARK 923 INTER-LIGAND FREE ENERGY PREDICTED BY IDOCK:   -7.12 KCAL/MOL
REMARK 924 INTRA-LIGAND FREE ENERGY PREDICTED BY IDOCK:   -0.15 KCAL/MOL
REMARK 927      BINDING AFFINITY PREDICTED BY RF-SCORE:    0.00 PKD
ROOT
HETATM    1  C   UNL     1      -9.893  19.606  66.048  1.00  0.00    -0.462 C  
HETATM    2  C   UNL     1     -10.425  18.277  66.561  1.00  0.00    -0.356 C  
ENDROOT
BRANCH   2   3
HETATM    3  O   UNL     1      -9.955  17.293  65.647  1.00  0.00    -0.553 OA 
BRANCH   3   4
HETATM    4  C   UNL     1     -10.621  16.116  65.485  1.00  0.00    -0.377 A  
HETATM    5  C   UNL     1     -11.552  15.894  64.461  1.00  0.00    -0.232 A  
HETATM    6  C   UNL     1     -12.228  14.675  64.356  1.00  0.00    -0.473 A  
HETATM    7  C   UNL     1     -11.978  13.659  65.275  1.00  0.00    -0.395 A  
HETATM    8  C   UNL     1     -11.044  13.862  66.290  1.00  0.00    -0.304 A  
HETATM    9  C   UNL     1     -10.354  15.080  66.405  1.00  0.00    -0.287 A  
BRANCH   9  10
HETATM   10  O   UNL     1      -9.469  15.082  67.458  1.00  0.00    -0.200 OA 
BRANCH  10  11
HETATM   11  C   UNL     1      -8.077  15.188  67.165  1.00  0.00    -0.214 C  
BRANCH  11  12
HETATM   12  C   UNL     1      -7.332  13.979  67.746  1.00  0.00    -0.167 C  
BRANCH  12  13
HETATM   13  N   UNL     1      -8.173  12.991  68.442  1.00  0.00    -0.220 NA 
HETATM   14  H   UNL     1      -9.154  13.263  68.381  1.00  0.00     0.000 HD 
BRANCH  13  15
HETATM   15  C   UNL     1      -8.008  11.593  68.002  1.00  0.00    -0.132 C  
HETATM   16  C   UNL     1      -9.411  11.055  67.677  1.00  0.00    -0.162 C  
BRANCH  15  17
HETATM   17  C   UNL     1      -7.289  10.691  69.045  1.00  0.00    -0.108 C  
BRANCH  17  18
HETATM   18  C   UNL     1      -8.138   9.504  69.442  1.00  0.00    -0.116 A  
HETATM   19  C   UNL     1      -8.366   8.478  68.517  1.00  0.00    -0.123 A  
HETATM   20  C   UNL     1      -9.329   7.494  68.778  1.00  0.00    -0.147 A  
HETATM   21  C   UNL     1      -9.993   7.455  70.010  1.00  0.00    -0.185 A  
HETATM   22  C   UNL     1      -8.787   9.459  70.677  1.00  0.00    -0.275 A  
HETATM   23  C   UNL     1      -9.691   8.430  70.966  1.00  0.00    -0.218 A  
BRANCH  20  24
HETATM   24  S   UNL     1      -9.815   6.355  67.504  1.00  0.00    -0.132 S  
HETATM   25  O   UNL     1     -11.215   6.570  67.223  1.00  0.00    -0.376 OA 
HETATM   26  N   UNL     1      -9.006   6.880  66.127  1.00  0.00    -0.201 N  
HETATM   27  O   UNL     1      -9.240   5.063  67.796  1.00  0.00    -0.111 OA 
HETATM   28  H1  UNL     1      -9.286   6.227  65.396  1.00  0.00     0.000 HD 
HETATM   29  H2  UNL     1      -8.375   7.677  66.041  1.00  0.00     0.000 HD 
ENDBRANCH  20  24
BRANCH  21  30
HETATM   30  O   UNL     1     -10.907   6.455  70.196  1.00  0.00    -0.243 OA 
HETATM   31  C   UNL     1     -12.158   6.792  70.780  1.00  0.00    -0.347 C  
ENDBRANCH  21  30
ENDBRANCH  17  18
ENDBRANCH  15  17
ENDBRANCH  13  15
ENDBRANCH  12  13
ENDBRANCH  11  12
ENDBRANCH  10  11
ENDBRANCH   9  10
ENDBRANCH   3   4
ENDBRANCH   2   3
TORSDOF 11
ENDMDL
MODEL      316
REMARK 921   NORMALIZED FREE ENERGY PREDICTED BY IDOCK:   -3.66 KCAL/MOL
REMARK 922        TOTAL FREE ENERGY PREDICTED BY IDOCK:   -7.26 KCAL/MOL
REMARK 923 INTER-LIGAND FREE ENERGY PREDICTED BY IDOCK:   -6.36 KCAL/MOL
REMARK 924 INTRA-LIGAND FREE ENERGY PREDICTED BY IDOCK:   -0.90 KCAL/MOL
REMARK 927      BINDING AFFINITY PREDICTED BY RF-SCORE:    0.00 PKD
ROOT
HETATM    1  C   UNL     1     -11.146   2.821  73.925  1.00  0.00    -0.258 C  
HETATM    2  C   UNL     1     -11.633   4.215  73.559  1.00  0.00    -0.055 C  
ENDROOT
BRANCH   2   3
HETATM    3  O   UNL     1     -10.755   4.677  72.540  1.00  0.00    -0.200 OA 
BRANCH   3   4
HETATM    4  C   UNL     1     -10.066   5.843  72.685  1.00  0.00    -0.179 A  
HETATM    5  C   UNL     1      -9.382   6.189  73.859  1.00  0.00    -0.141 A  
HETATM    6  C   UNL     1      -8.713   7.412  73.966  1.00  0.00    -0.266 A  
HETATM    7  C   UNL     1      -8.717   8.304  72.896  1.00  0.00    -0.291 A  
HETATM    8  C   UNL     1      -9.383   7.965  71.719  1.00  0.00    -0.196 A  
HETATM    9  C   UNL     1     -10.055   6.739  71.596  1.00  0.00    -0.183 A  
BRANCH   9  10
HETATM   10  O   UNL     1     -10.636   6.584  70.358  1.00  0.00    -0.212 OA 
BRANCH  10  11
HETATM   11  C   UNL     1      -9.974   5.755  69.404  1.00  0.00    -0.187 C  
BRANCH  11  12
HETATM   12  C   UNL     1     -10.135   6.352  68.000  1.00  0.00    -0.148 C  
BRANCH  12  13
HETATM   13  N   UNL     1     -10.983   7.552  67.915  1.00  0.00    -0.487 NA 
HETATM   14  H   UNL     1     -11.582   7.616  68.739  1.00  0.00     0.000 HD 
BRANCH  13  15
HETATM   15  C   UNL     1     -10.265   8.826  67.714  1.00  0.00    -0.228 C  
HETATM   16  C   UNL     1      -8.826   8.472  67.307  1.00  0.00    -0.137 C  
BRANCH  15  17
HETATM   17  C   UNL     1     -10.284   9.756  68.960  1.00  0.00    -0.214 C  
BRANCH  17  18
HETATM   18  C   UNL     1     -10.584  11.191  68.585  1.00  0.00    -0.222 A  
HETATM   19  C   UNL     1      -9.577  11.982  68.022  1.00  0.00    -0.199 A  
HETATM   20  C   UNL     1      -9.760  13.364  67.883  1.00  0.00    -0.226 A  
HETATM   21  C   UNL     1     -10.990  13.957  68.198  1.00  0.00    -0.249 A  
HETATM   22  C   UNL     1     -11.816  11.774  68.886  1.00  0.00    -0.381 A  
HETATM   23  C   UNL     1     -12.023  13.142  68.674  1.00  0.00    -0.319 A  
BRANCH  20  24
HETATM   24  S   UNL     1      -8.397  14.408  67.427  1.00  0.00    -0.209 S  
HETATM   25  O   UNL     1      -7.830  14.958  68.636  1.00  0.00    -0.119 OA 
HETATM   26  N   UNL     1      -7.229  13.355  66.833  1.00  0.00    -0.162 N  
HETATM   27  O   UNL     1      -8.788  15.204  66.286  1.00  0.00    -0.278 OA 
HETATM   28  H1  UNL     1      -6.447  13.954  66.571  1.00  0.00     0.000 HD 
HETATM   29  H2  UNL     1      -7.289  12.340  66.752  1.00  0.00     0.000 HD 
ENDBRANCH  20  24
BRANCH  21  30
HETATM   30  O   UNL     1     -11.097  15.308  68.021  1.00  0.00    -0.288 OA 
HETATM   31  C   UNL     1     -11.328  16.116  69.167  1.00  0.00    -0.323 C  
ENDBRANCH  21  30
ENDBRANCH  17  18
ENDBRANCH  15  17
ENDBRANCH  13  15
ENDBRANCH  12  13
ENDBRANCH  11  12
ENDBRANCH  10  11
ENDBRANCH   9  10
ENDBRANCH   3   4
ENDBRANCH   2   3
TORSDOF 11
ENDMDL
MODEL      317
REMARK 921   NORMALIZED FREE ENERGY PREDICTED BY IDOCK:   -3.66 KCAL/MOL
REMARK 922        TOTAL FREE ENERGY PREDICTED BY IDOCK:   -7.26 KCAL/MOL
REMARK 923 INTER-LIGAND FREE ENERGY PREDICTED BY IDOCK:   -6.21 KCAL/MOL
REMARK 924 INTRA-LIGAND FREE ENERGY PREDICTED BY IDOCK:   -1.04 KCAL/MOL
REMARK 927      BINDING AFFINITY PREDICTED BY RF-SCORE:    0.00 PKD
ROOT
HETATM    1  C   UNL     1      -7.213   6.526  71.135  1.00  0.00    -0.078 C  
HETATM    2  C   UNL     1      -7.732   7.132  69.840  1.00  0.00    -0.108 C  
ENDROOT
BRANCH   2   3
HETATM    3  O   UNL     1      -9.065   6.655  69.696  1.00  0.00    -0.142 OA 
BRANCH   3   4
HETATM    4  C   UNL     1      -9.406   5.836  68.663  1.00  0.00    -0.122 A  
HETATM    5  C   UNL     1      -9.117   4.464  68.642  1.00  0.00    -0.171 A  
HETATM    6  C   UNL     1      -9.467   3.674  67.544  1.00  0.00    -0.237 A  
HETATM    7  C   UNL     1     -10.113   4.246  66.451  1.00  0.00    -0.177 A  
HETATM    8  C   UNL     1     -10.417   5.606  66.465  1.00  0.00    -0.309 A  
HETATM    9  C   UNL     1     -10.077   6.412  67.564  1.00  0.00    -0.155 A  
BRANCH   9  10
HETATM   10  O   UNL     1     -10.472   7.719  67.395  1.00  0.00    -0.252 OA 
BRANCH  10  11
HETATM   11  C   UNL     1      -9.816   8.495  66.393  1.00  0.00    -0.257 C  
BRANCH  11  12
HETATM   12  C   UNL     1      -9.451   9.872  66.963  1.00  0.00    -0.160 C  
BRANCH  12  13
HETATM   13  N   UNL     1      -8.056  10.024  67.409  1.00  0.00    -0.113 NA 
HETATM   14  H   UNL     1      -7.556   9.142  67.295  1.00  0.00     0.000 HD 
BRANCH  13  15
HETATM   15  C   UNL     1      -7.300  11.119  66.772  1.00  0.00    -0.146 C  
HETATM   16  C   UNL     1      -6.133  10.475  66.007  1.00  0.00    -0.119 C  
BRANCH  15  17
HETATM   17  C   UNL     1      -6.791  12.193  67.775  1.00  0.00    -0.106 C  
BRANCH  17  18
HETATM   18  C   UNL     1      -7.689  13.410  67.799  1.00  0.00    -0.161 A  
HETATM   19  C   UNL     1      -9.065  13.249  67.996  1.00  0.00    -0.202 A  
HETATM   20  C   UNL     1      -9.938  14.326  67.791  1.00  0.00    -0.227 A  
HETATM   21  C   UNL     1      -9.440  15.602  67.498  1.00  0.00    -0.214 A  
HETATM   22  C   UNL     1      -7.189  14.683  67.522  1.00  0.00    -0.216 A  
HETATM   23  C   UNL     1      -8.056  15.774  67.394  1.00  0.00    -0.193 A  
BRANCH  20  24
HETATM   24  S   UNL     1     -11.695  14.065  67.774  1.00  0.00    -0.384 S  
HETATM   25  O   UNL     1     -11.976  12.857  68.512  1.00  0.00    -0.309 OA 
HETATM   26  N   UNL     1     -12.323  15.310  68.713  1.00  0.00    -0.585 N  
HETATM   27  O   UNL     1     -12.187  14.328  66.441  1.00  0.00    -0.436 OA 
HETATM   28  H1  UNL     1     -13.332  15.160  68.703  1.00  0.00     0.000 HD 
HETATM   29  H2  UNL     1     -11.809  16.051  69.189  1.00  0.00     0.000 HD 
ENDBRANCH  20  24
BRANCH  21  30
HETATM   30  O   UNL     1     -10.353  16.605  67.328  1.00  0.00    -0.289 OA 
HETATM   31  C   UNL     1     -10.087  17.591  66.339  1.00  0.00    -0.345 C  
ENDBRANCH  21  30
ENDBRANCH  17  18
ENDBRANCH  15  17
ENDBRANCH  13  15
ENDBRANCH  12  13
ENDBRANCH  11  12
ENDBRANCH  10  11
ENDBRANCH   9  10
ENDBRANCH   3   4
ENDBRANCH   2   3
TORSDOF 11
ENDMDL
MODEL      318
REMARK 921   NORMALIZED FREE ENERGY PREDICTED BY IDOCK:   -3.65 KCAL/MOL
REMARK 922        TOTAL FREE ENERGY PREDICTED BY IDOCK:   -7.24 KCAL/MOL
REMARK 923 INTER-LIGAND FREE ENERGY PREDICTED BY IDOCK:   -6.58 KCAL/MOL
REMARK 924 INTRA-LIGAND FREE ENERGY PREDICTED BY IDOCK:   -0.67 KCAL/MOL
REMARK 927      BINDING AFFINITY PREDICTED BY RF-SCORE:    0.00 PKD
ROOT
HETATM    1  C   UNL     1      -7.358   8.729  63.642  1.00  0.00    -0.103 C  
HETATM    2  C   UNL     1      -7.954   9.262  64.936  1.00  0.00    -0.121 C  
ENDROOT
BRANCH   2   3
HETATM    3  O   UNL     1      -8.525   8.137  65.593  1.00  0.00    -0.141 OA 
BRANCH   3   4
HETATM    4  C   UNL     1      -8.671   8.117  66.947  1.00  0.00    -0.129 A  
HETATM    5  C   UNL     1      -7.814   7.409  67.801  1.00  0.00    -0.113 A  
HETATM    6  C   UNL     1      -8.025   7.400  69.183  1.00  0.00    -0.118 A  
HETATM    7  C   UNL     1      -9.098   8.101  69.728  1.00  0.00    -0.148 A  
HETATM    8  C   UNL     1      -9.950   8.819  68.890  1.00  0.00    -0.200 A  
HETATM    9  C   UNL     1      -9.746   8.841  67.501  1.00  0.00    -0.167 A  
BRANCH   9  10
HETATM   10  O   UNL     1     -10.681   9.613  66.849  1.00  0.00    -0.203 OA 
BRANCH  10  11
HETATM   11  C   UNL     1     -10.869  10.957  67.290  1.00  0.00    -0.287 C  
BRANCH  11  12
HETATM   12  C   UNL     1     -11.202  11.853  66.090  1.00  0.00    -0.333 C  
BRANCH  12  13
HETATM   13  N   UNL     1     -12.239  12.870  66.327  1.00  0.00    -0.494 NA 
HETATM   14  H   UNL     1     -12.628  12.760  67.264  1.00  0.00     0.000 HD 
BRANCH  13  15
HETATM   15  C   UNL     1     -11.819  14.268  66.115  1.00  0.00    -0.402 C  
HETATM   16  C   UNL     1     -10.876  14.276  64.902  1.00  0.00    -0.429 C  
BRANCH  15  17
HETATM   17  C   UNL     1     -11.141  14.912  67.358  1.00  0.00    -0.325 C  
BRANCH  17  18
HETATM   18  C   UNL     1     -10.171  16.004  66.966  1.00  0.00    -0.282 A  
HETATM   19  C   UNL     1      -8.795  15.756  67.014  1.00  0.00    -0.241 A  
HETATM   20  C   UNL     1      -7.883  16.811  66.883  1.00  0.00    -0.218 A  
HETATM   21  C   UNL     1      -8.328  18.107  66.589  1.00  0.00    -0.263 A  
HETATM   22  C   UNL     1     -10.618  17.291  66.659  1.00  0.00    -0.179 A  
HETATM   23  C   UNL     1      -9.702  18.328  66.450  1.00  0.00    -0.334 A  
BRANCH  20  24
HETATM   24  S   UNL     1      -6.156  16.551  67.212  1.00  0.00    -0.167 S  
HETATM   25  O   UNL     1      -5.406  17.046  66.081  1.00  0.00    -0.350 OA 
HETATM   26  N   UNL     1      -5.796  17.603  68.472  1.00  0.00    -0.168 N  
HETATM   27  O   UNL     1      -5.988  15.232  67.775  1.00  0.00    -0.144 OA 
HETATM   28  H1  UNL     1      -4.805  17.454  68.660  1.00  0.00     0.000 HD 
HETATM   29  H2  UNL     1      -6.428  18.249  68.944  1.00  0.00     0.000 HD 
ENDBRANCH  20  24
BRANCH  21  30
HETATM   30  O   UNL     1      -7.376  19.080  66.459  1.00  0.00    -0.217 OA 
HETATM   31  C   UNL     1      -7.702  20.395  66.889  1.00  0.00    -0.300 C  
ENDBRANCH  21  30
ENDBRANCH  17  18
ENDBRANCH  15  17
ENDBRANCH  13  15
ENDBRANCH  12  13
ENDBRANCH  11  12
ENDBRANCH  10  11
ENDBRANCH   9  10
ENDBRANCH   3   4
ENDBRANCH   2   3
TORSDOF 11
ENDMDL
MODEL      319
REMARK 921   NORMALIZED FREE ENERGY PREDICTED BY IDOCK:   -3.65 KCAL/MOL
REMARK 922        TOTAL FREE ENERGY PREDICTED BY IDOCK:   -7.24 KCAL/MOL
REMARK 923 INTER-LIGAND FREE ENERGY PREDICTED BY IDOCK:   -6.14 KCAL/MOL
REMARK 924 INTRA-LIGAND FREE ENERGY PREDICTED BY IDOCK:   -1.10 KCAL/MOL
REMARK 927      BINDING AFFINITY PREDICTED BY RF-SCORE:    0.00 PKD
ROOT
HETATM    1  C   UNL     1     -12.245  13.749  66.732  1.00  0.00    -0.440 C  
HETATM    2  C   UNL     1     -11.474  15.034  66.471  1.00  0.00    -0.239 C  
ENDROOT
BRANCH   2   3
HETATM    3  O   UNL     1     -11.372  15.688  67.730  1.00  0.00    -0.326 OA 
BRANCH   3   4
HETATM    4  C   UNL     1     -10.367  16.572  67.980  1.00  0.00    -0.294 A  
HETATM    5  C   UNL     1     -10.476  17.948  67.737  1.00  0.00    -0.409 A  
HETATM    6  C   UNL     1      -9.404  18.808  67.986  1.00  0.00    -0.340 A  
HETATM    7  C   UNL     1      -8.205  18.302  68.483  1.00  0.00    -0.329 A  
HETATM    8  C   UNL     1      -8.088  16.937  68.740  1.00  0.00    -0.251 A  
HETATM    9  C   UNL     1      -9.159  16.062  68.500  1.00  0.00    -0.203 A  
BRANCH   9  10
HETATM   10  O   UNL     1      -8.855  14.760  68.828  1.00  0.00    -0.175 OA 
BRANCH  10  11
HETATM   11  C   UNL     1      -8.240  13.943  67.834  1.00  0.00    -0.164 C  
BRANCH  11  12
HETATM   12  C   UNL     1      -8.429  12.463  68.192  1.00  0.00    -0.180 C  
BRANCH  12  13
HETATM   13  N   UNL     1      -9.131  11.651  67.185  1.00  0.00    -0.167 NA 
HETATM   14  H   UNL     1      -8.545  11.539  66.357  1.00  0.00     0.000 HD 
BRANCH  13  15
HETATM   15  C   UNL     1      -9.608  10.335  67.649  1.00  0.00    -0.152 C  
HETATM   16  C   UNL     1     -11.137  10.428  67.772  1.00  0.00    -0.365 C  
BRANCH  15  17
HETATM   17  C   UNL     1      -8.963   9.873  68.987  1.00  0.00    -0.160 C  
BRANCH  17  18
HETATM   18  C   UNL     1      -9.111   8.383  69.197  1.00  0.00    -0.147 A  
HETATM   19  C   UNL     1      -8.708   7.500  68.188  1.00  0.00    -0.122 A  
HETATM   20  C   UNL     1      -9.046   6.143  68.261  1.00  0.00    -0.112 A  
HETATM   21  C   UNL     1      -9.689   5.628  69.395  1.00  0.00    -0.157 A  
HETATM   22  C   UNL     1      -9.738   7.871  70.334  1.00  0.00    -0.179 A  
HETATM   23  C   UNL     1     -10.005   6.501  70.440  1.00  0.00    -0.202 A  
BRANCH  20  24
HETATM   24  S   UNL     1      -8.779   5.075  66.867  1.00  0.00    -0.106 S  
HETATM   25  O   UNL     1      -7.842   4.050  67.261  1.00  0.00    -0.090 OA 
HETATM   26  N   UNL     1     -10.242   4.274  66.653  1.00  0.00    -0.324 N  
HETATM   27  O   UNL     1      -8.631   5.890  65.683  1.00  0.00    -0.148 OA 
HETATM   28  H1  UNL     1     -10.089   3.661  65.853  1.00  0.00     0.000 HD 
HETATM   29  H2  UNL     1     -11.095   4.378  67.203  1.00  0.00     0.000 HD 
ENDBRANCH  20  24
BRANCH  21  30
HETATM   30  O   UNL     1      -9.971   4.290  69.399  1.00  0.00    -0.183 OA 
HETATM   31  C   UNL     1      -9.579   3.528  70.533  1.00  0.00    -0.176 C  
ENDBRANCH  21  30
ENDBRANCH  17  18
ENDBRANCH  15  17
ENDBRANCH  13  15
ENDBRANCH  12  13
ENDBRANCH  11  12
ENDBRANCH  10  11
ENDBRANCH   9  10
ENDBRANCH   3   4
ENDBRANCH   2   3
TORSDOF 11
ENDMDL
MODEL      320
REMARK 921   NORMALIZED FREE ENERGY PREDICTED BY IDOCK:   -3.65 KCAL/MOL
REMARK 922        TOTAL FREE ENERGY PREDICTED BY IDOCK:   -7.24 KCAL/MOL
REMARK 923 INTER-LIGAND FREE ENERGY PREDICTED BY IDOCK:   -6.29 KCAL/MOL
REMARK 924 INTRA-LIGAND FREE ENERGY PREDICTED BY IDOCK:   -0.94 KCAL/MOL
REMARK 927      BINDING AFFINITY PREDICTED BY RF-SCORE:    0.00 PKD
ROOT
HETATM    1  C   UNL     1      -9.958   7.004  74.162  1.00  0.00    -0.305 C  
HETATM    2  C   UNL     1      -9.529   5.817  73.313  1.00  0.00    -0.142 C  
ENDROOT
BRANCH   2   3
HETATM    3  O   UNL     1      -8.876   6.369  72.176  1.00  0.00    -0.136 OA 
BRANCH   3   4
HETATM    4  C   UNL     1      -9.530   6.503  70.990  1.00  0.00    -0.164 A  
HETATM    5  C   UNL     1     -10.895   6.228  70.830  1.00  0.00    -0.329 A  
HETATM    6  C   UNL     1     -11.512   6.356  69.583  1.00  0.00    -0.446 A  
HETATM    7  C   UNL     1     -10.770   6.765  68.477  1.00  0.00    -0.280 A  
HETATM    8  C   UNL     1      -9.414   7.054  68.626  1.00  0.00    -0.135 A  
HETATM    9  C   UNL     1      -8.783   6.934  69.874  1.00  0.00    -0.142 A  
BRANCH   9  10
HETATM   10  O   UNL     1      -7.451   7.276  69.820  1.00  0.00    -0.088 OA 
BRANCH  10  11
HETATM   11  C   UNL     1      -7.004   8.367  70.623  1.00  0.00    -0.040 C  
BRANCH  11  12
HETATM   12  C   UNL     1      -6.571   9.530  69.720  1.00  0.00    -0.051 C  
BRANCH  12  13
HETATM   13  N   UNL     1      -6.683   9.285  68.274  1.00  0.00    -0.059 NA 
HETATM   14  H   UNL     1      -6.885   8.300  68.101  1.00  0.00     0.000 HD 
BRANCH  13  15
HETATM   15  C   UNL     1      -7.655  10.133  67.558  1.00  0.00    -0.091 C  
HETATM   16  C   UNL     1      -6.864  11.288  66.923  1.00  0.00    -0.134 C  
BRANCH  15  17
HETATM   17  C   UNL     1      -8.802  10.668  68.462  1.00  0.00    -0.148 C  
BRANCH  17  18
HETATM   18  C   UNL     1      -9.677  11.661  67.730  1.00  0.00    -0.177 A  
HETATM   19  C   UNL     1      -9.680  13.002  68.127  1.00  0.00    -0.228 A  
HETATM   20  C   UNL     1     -10.644  13.885  67.624  1.00  0.00    -0.245 A  
HETATM   21  C   UNL     1     -11.546  13.470  66.635  1.00  0.00    -0.363 A  
HETATM   22  C   UNL     1     -10.563  11.247  66.735  1.00  0.00    -0.305 A  
HETATM   23  C   UNL     1     -11.475  12.150  66.177  1.00  0.00    -0.429 A  
BRANCH  20  24
HETATM   24  S   UNL     1     -10.825  15.510  68.322  1.00  0.00    -0.306 S  
HETATM   25  O   UNL     1     -12.049  15.535  69.086  1.00  0.00    -0.326 OA 
HETATM   26  N   UNL     1      -9.594  15.627  69.461  1.00  0.00    -0.275 N  
HETATM   27  O   UNL     1     -10.484  16.485  67.312  1.00  0.00    -0.304 OA 
HETATM   28  H1  UNL     1      -9.698  16.559  69.861  1.00  0.00     0.000 HD 
HETATM   29  H2  UNL     1      -8.897  14.922  69.700  1.00  0.00     0.000 HD 
ENDBRANCH  20  24
BRANCH  21  30
HETATM   30  O   UNL     1     -12.446  14.393  66.183  1.00  0.00    -0.392 OA 
HETATM   31  C   UNL     1     -12.328  14.840  64.839  1.00  0.00    -0.252 C  
ENDBRANCH  21  30
ENDBRANCH  17  18
ENDBRANCH  15  17
ENDBRANCH  13  15
ENDBRANCH  12  13
ENDBRANCH  11  12
ENDBRANCH  10  11
ENDBRANCH   9  10
ENDBRANCH   3   4
ENDBRANCH   2   3
TORSDOF 11
ENDMDL
MODEL      321
REMARK 921   NORMALIZED FREE ENERGY PREDICTED BY IDOCK:   -3.65 KCAL/MOL
REMARK 922        TOTAL FREE ENERGY PREDICTED BY IDOCK:   -7.23 KCAL/MOL
REMARK 923 INTER-LIGAND FREE ENERGY PREDICTED BY IDOCK:   -6.21 KCAL/MOL
REMARK 924 INTRA-LIGAND FREE ENERGY PREDICTED BY IDOCK:   -1.02 KCAL/MOL
REMARK 927      BINDING AFFINITY PREDICTED BY RF-SCORE:    0.00 PKD
ROOT
HETATM    1  C   UNL     1      -7.959   9.431  64.918  1.00  0.00    -0.120 C  
HETATM    2  C   UNL     1      -8.793  10.628  64.488  1.00  0.00    -0.176 C  
ENDROOT
BRANCH   2   3
HETATM    3  O   UNL     1      -9.319  11.185  65.686  1.00  0.00    -0.208 OA 
BRANCH   3   4
HETATM    4  C   UNL     1     -10.353  12.071  65.650  1.00  0.00    -0.253 A  
HETATM    5  C   UNL     1     -10.862  12.609  64.460  1.00  0.00    -0.365 A  
HETATM    6  C   UNL     1     -11.907  13.537  64.481  1.00  0.00    -0.442 A  
HETATM    7  C   UNL     1     -12.458  13.939  65.696  1.00  0.00    -0.538 A  
HETATM    8  C   UNL     1     -11.968  13.401  66.885  1.00  0.00    -0.437 A  
HETATM    9  C   UNL     1     -10.923  12.464  66.879  1.00  0.00    -0.265 A  
BRANCH   9  10
HETATM   10  O   UNL     1     -10.590  12.043  68.146  1.00  0.00    -0.196 OA 
BRANCH  10  11
HETATM   11  C   UNL     1     -11.623  11.995  69.130  1.00  0.00    -0.312 C  
BRANCH  11  12
HETATM   12  C   UNL     1     -11.672  10.596  69.758  1.00  0.00    -0.310 C  
BRANCH  12  13
HETATM   13  N   UNL     1     -10.441  10.162  70.438  1.00  0.00    -0.412 NA 
HETATM   14  H   UNL     1     -10.570  10.197  71.449  1.00  0.00     0.000 HD 
BRANCH  13  15
HETATM   15  C   UNL     1      -9.928   8.837  70.040  1.00  0.00    -0.187 C  
HETATM   16  C   UNL     1      -8.999   9.057  68.835  1.00  0.00    -0.140 C  
BRANCH  15  17
HETATM   17  C   UNL     1     -11.046   7.808  69.707  1.00  0.00    -0.095 C  
BRANCH  17  18
HETATM   18  C   UNL     1     -10.522   6.661  68.871  1.00  0.00    -0.239 A  
HETATM   19  C   UNL     1      -9.550   5.807  69.403  1.00  0.00    -0.179 A  
HETATM   20  C   UNL     1      -8.887   4.890  68.576  1.00  0.00    -0.102 A  
HETATM   21  C   UNL     1      -9.265   4.735  67.236  1.00  0.00    -0.128 A  
HETATM   22  C   UNL     1     -10.912   6.499  67.541  1.00  0.00    -0.444 A  
HETATM   23  C   UNL     1     -10.303   5.529  66.736  1.00  0.00    -0.321 A  
BRANCH  20  24
HETATM   24  S   UNL     1      -7.473   3.999  69.177  1.00  0.00    -0.054 S  
HETATM   25  O   UNL     1      -7.807   2.595  69.203  1.00  0.00    -0.046 OA 
HETATM   26  N   UNL     1      -6.320   4.155  67.964  1.00  0.00    -0.036 N  
HETATM   27  O   UNL     1      -6.920   4.716  70.303  1.00  0.00    -0.042 OA 
HETATM   28  H1  UNL     1      -5.508   3.643  68.309  1.00  0.00     0.000 HD 
HETATM   29  H2  UNL     1      -6.411   4.651  67.078  1.00  0.00     0.000 HD 
ENDBRANCH  20  24
BRANCH  21  30
HETATM   30  O   UNL     1      -8.583   3.809  66.497  1.00  0.00    -0.108 OA 
HETATM   31  C   UNL     1      -9.265   2.620  66.121  1.00  0.00    -0.053 C  
ENDBRANCH  21  30
ENDBRANCH  17  18
ENDBRANCH  15  17
ENDBRANCH  13  15
ENDBRANCH  12  13
ENDBRANCH  11  12
ENDBRANCH  10  11
ENDBRANCH   9  10
ENDBRANCH   3   4
ENDBRANCH   2   3
TORSDOF 11
ENDMDL
MODEL      322
REMARK 921   NORMALIZED FREE ENERGY PREDICTED BY IDOCK:   -3.64 KCAL/MOL
REMARK 922        TOTAL FREE ENERGY PREDICTED BY IDOCK:   -7.22 KCAL/MOL
REMARK 923 INTER-LIGAND FREE ENERGY PREDICTED BY IDOCK:   -6.31 KCAL/MOL
REMARK 924 INTRA-LIGAND FREE ENERGY PREDICTED BY IDOCK:   -0.91 KCAL/MOL
REMARK 927      BINDING AFFINITY PREDICTED BY RF-SCORE:    0.00 PKD
ROOT
HETATM    1  C   UNL     1      -6.862  13.098  67.609  1.00  0.00    -0.160 C  
HETATM    2  C   UNL     1      -6.899  11.720  66.966  1.00  0.00    -0.137 C  
ENDROOT
BRANCH   2   3
HETATM    3  O   UNL     1      -8.244  11.273  67.086  1.00  0.00    -0.137 OA 
BRANCH   3   4
HETATM    4  C   UNL     1      -9.117  11.395  66.048  1.00  0.00    -0.208 A  
HETATM    5  C   UNL     1     -10.233  12.243  66.077  1.00  0.00    -0.267 A  
HETATM    6  C   UNL     1     -11.113  12.309  64.994  1.00  0.00    -0.359 A  
HETATM    7  C   UNL     1     -10.886  11.527  63.863  1.00  0.00    -0.469 A  
HETATM    8  C   UNL     1      -9.773  10.690  63.817  1.00  0.00    -0.382 A  
HETATM    9  C   UNL     1      -8.878  10.617  64.896  1.00  0.00    -0.190 A  
BRANCH   9  10
HETATM   10  O   UNL     1      -7.839   9.747  64.654  1.00  0.00    -0.123 OA 
BRANCH  10  11
HETATM   11  C   UNL     1      -8.153   8.377  64.410  1.00  0.00    -0.158 C  
BRANCH  11  12
HETATM   12  C   UNL     1      -8.415   7.662  65.742  1.00  0.00    -0.144 C  
BRANCH  12  13
HETATM   13  N   UNL     1      -9.246   6.450  65.659  1.00  0.00    -0.372 NA 
HETATM   14  H   UNL     1      -8.669   5.621  65.803  1.00  0.00     0.000 HD 
BRANCH  13  15
HETATM   15  C   UNL     1     -10.413   6.416  66.560  1.00  0.00    -0.080 C  
HETATM   16  C   UNL     1     -10.659   7.857  67.033  1.00  0.00    -0.381 C  
BRANCH  15  17
HETATM   17  C   UNL     1     -10.242   5.450  67.767  1.00  0.00    -0.230 C  
BRANCH  17  18
HETATM   18  C   UNL     1     -10.205   6.195  69.082  1.00  0.00    -0.242 A  
HETATM   19  C   UNL     1      -8.986   6.685  69.564  1.00  0.00    -0.138 A  
HETATM   20  C   UNL     1      -8.888   7.168  70.875  1.00  0.00    -0.150 A  
HETATM   21  C   UNL     1     -10.027   7.275  71.683  1.00  0.00    -0.180 A  
HETATM   22  C   UNL     1     -11.345   6.314  69.878  1.00  0.00    -0.504 A  
HETATM   23  C   UNL     1     -11.260   6.870  71.160  1.00  0.00    -0.314 A  
BRANCH  20  24
HETATM   24  S   UNL     1      -7.299   7.534  71.581  1.00  0.00    -0.077 S  
HETATM   25  O   UNL     1      -7.030   6.557  72.610  1.00  0.00    -0.072 OA 
HETATM   26  N   UNL     1      -6.197   7.196  70.357  1.00  0.00    -0.034 N  
HETATM   27  O   UNL     1      -7.200   8.962  71.779  1.00  0.00    -0.237 OA 
HETATM   28  H1  UNL     1      -5.285   7.406  70.762  1.00  0.00     0.000 HD 
HETATM   29  H2  UNL     1      -6.396   6.855  69.416  1.00  0.00     0.000 HD 
ENDBRANCH  20  24
BRANCH  21  30
HETATM   30  O   UNL     1      -9.854   7.771  72.946  1.00  0.00    -0.214 OA 
HETATM   31  C   UNL     1     -10.239   6.954  74.044  1.00  0.00    -0.350 C  
ENDBRANCH  21  30
ENDBRANCH  17  18
ENDBRANCH  15  17
ENDBRANCH  13  15
ENDBRANCH  12  13
ENDBRANCH  11  12
ENDBRANCH  10  11
ENDBRANCH   9  10
ENDBRANCH   3   4
ENDBRANCH   2   3
TORSDOF 11
ENDMDL
MODEL      323
REMARK 921   NORMALIZED FREE ENERGY PREDICTED BY IDOCK:   -3.64 KCAL/MOL
REMARK 922        TOTAL FREE ENERGY PREDICTED BY IDOCK:   -7.22 KCAL/MOL
REMARK 923 INTER-LIGAND FREE ENERGY PREDICTED BY IDOCK:   -6.31 KCAL/MOL
REMARK 924 INTRA-LIGAND FREE ENERGY PREDICTED BY IDOCK:   -0.91 KCAL/MOL
REMARK 927      BINDING AFFINITY PREDICTED BY RF-SCORE:    0.00 PKD
ROOT
HETATM    1  C   UNL     1      -9.907  14.563  68.366  1.00  0.00    -0.227 C  
HETATM    2  C   UNL     1      -9.381  13.259  67.786  1.00  0.00    -0.209 C  
ENDROOT
BRANCH   2   3
HETATM    3  O   UNL     1     -10.522  12.561  67.301  1.00  0.00    -0.218 OA 
BRANCH   3   4
HETATM    4  C   UNL     1     -11.004  12.794  66.049  1.00  0.00    -0.278 A  
HETATM    5  C   UNL     1     -12.100  13.629  65.791  1.00  0.00    -0.463 A  
HETATM    6  C   UNL     1     -12.572  13.812  64.489  1.00  0.00    -0.249 A  
HETATM    7  C   UNL     1     -11.951  13.162  63.424  1.00  0.00    -0.552 A  
HETATM    8  C   UNL     1     -10.852  12.339  63.667  1.00  0.00    -0.522 A  
HETATM    9  C   UNL     1     -10.364  12.150  64.969  1.00  0.00    -0.287 A  
BRANCH   9  10
HETATM   10  O   UNL     1      -9.269  11.317  65.001  1.00  0.00    -0.203 OA 
BRANCH  10  11
HETATM   11  C   UNL     1      -9.431   9.977  64.541  1.00  0.00    -0.296 C  
BRANCH  11  12
HETATM   12  C   UNL     1      -9.446   9.018  65.739  1.00  0.00    -0.236 C  
BRANCH  12  13
HETATM   13  N   UNL     1      -9.716   9.639  67.046  1.00  0.00    -0.172 NA 
HETATM   14  H   UNL     1     -10.627   9.339  67.394  1.00  0.00     0.000 HD 
BRANCH  13  15
HETATM   15  C   UNL     1      -8.684   9.423  68.078  1.00  0.00    -0.124 C  
HETATM   16  C   UNL     1      -8.271   7.945  67.998  1.00  0.00    -0.127 C  
BRANCH  15  17
HETATM   17  C   UNL     1      -9.149   9.800  69.513  1.00  0.00    -0.227 C  
BRANCH  17  18
HETATM   18  C   UNL     1      -8.661   8.804  70.542  1.00  0.00    -0.187 A  
HETATM   19  C   UNL     1      -9.569   7.916  71.128  1.00  0.00    -0.181 A  
HETATM   20  C   UNL     1      -9.190   7.151  72.239  1.00  0.00    -0.132 A  
HETATM   21  C   UNL     1      -7.870   7.178  72.708  1.00  0.00    -0.090 A  
HETATM   22  C   UNL     1      -7.341   8.822  70.996  1.00  0.00    -0.096 A  
HETATM   23  C   UNL     1      -6.945   8.000  72.057  1.00  0.00    -0.076 A  
BRANCH  20  24
HETATM   24  S   UNL     1     -10.406   6.231  73.152  1.00  0.00    -0.238 S  
HETATM   25  O   UNL     1     -11.597   6.138  72.341  1.00  0.00    -0.295 OA 
HETATM   26  N   UNL     1      -9.798   4.666  73.221  1.00  0.00    -0.142 N  
HETATM   27  O   UNL     1     -10.398   6.689  74.522  1.00  0.00    -0.328 OA 
HETATM   28  H1  UNL     1     -10.495   4.138  73.744  1.00  0.00     0.000 HD 
HETATM   29  H2  UNL     1      -8.924   4.320  72.826  1.00  0.00     0.000 HD 
ENDBRANCH  20  24
BRANCH  21  30
HETATM   30  O   UNL     1      -7.574   6.392  73.787  1.00  0.00    -0.089 OA 
HETATM   31  C   UNL     1      -6.307   5.747  73.816  1.00  0.00    -0.068 C  
ENDBRANCH  21  30
ENDBRANCH  17  18
ENDBRANCH  15  17
ENDBRANCH  13  15
ENDBRANCH  12  13
ENDBRANCH  11  12
ENDBRANCH  10  11
ENDBRANCH   9  10
ENDBRANCH   3   4
ENDBRANCH   2   3
TORSDOF 11
ENDMDL
MODEL      324
REMARK 921   NORMALIZED FREE ENERGY PREDICTED BY IDOCK:   -3.63 KCAL/MOL
REMARK 922        TOTAL FREE ENERGY PREDICTED BY IDOCK:   -7.22 KCAL/MOL
REMARK 923 INTER-LIGAND FREE ENERGY PREDICTED BY IDOCK:   -5.27 KCAL/MOL
REMARK 924 INTRA-LIGAND FREE ENERGY PREDICTED BY IDOCK:   -1.94 KCAL/MOL
REMARK 927      BINDING AFFINITY PREDICTED BY RF-SCORE:    0.00 PKD
ROOT
HETATM    1  C   UNL     1     -10.975   6.434  68.448  1.00  0.00    -0.390 C  
HETATM    2  C   UNL     1     -11.160   6.259  66.949  1.00  0.00    -0.253 C  
ENDROOT
BRANCH   2   3
HETATM    3  O   UNL     1      -9.849   6.172  66.403  1.00  0.00    -0.157 OA 
BRANCH   3   4
HETATM    4  C   UNL     1      -9.251   4.965  66.209  1.00  0.00    -0.142 A  
HETATM    5  C   UNL     1      -9.762   3.983  65.348  1.00  0.00    -0.196 A  
HETATM    6  C   UNL     1      -9.122   2.749  65.206  1.00  0.00    -0.148 A  
HETATM    7  C   UNL     1      -7.959   2.480  65.924  1.00  0.00    -0.082 A  
HETATM    8  C   UNL     1      -7.434   3.453  66.774  1.00  0.00    -0.076 A  
HETATM    9  C   UNL     1      -8.063   4.699  66.922  1.00  0.00    -0.103 A  
BRANCH   9  10
HETATM   10  O   UNL     1      -7.388   5.525  67.791  1.00  0.00    -0.074 OA 
BRANCH  10  11
HETATM   11  C   UNL     1      -6.264   6.250  67.293  1.00  0.00    -0.032 C  
BRANCH  11  12
HETATM   12  C   UNL     1      -6.729   7.594  66.718  1.00  0.00    -0.066 C  
BRANCH  12  13
HETATM   13  N   UNL     1      -7.937   8.164  67.336  1.00  0.00    -0.116 NA 
HETATM   14  H   UNL     1      -8.076   7.764  68.264  1.00  0.00     0.000 HD 
BRANCH  13  15
HETATM   15  C   UNL     1      -7.978   9.637  67.410  1.00  0.00    -0.106 C  
HETATM   16  C   UNL     1      -6.936  10.168  66.412  1.00  0.00    -0.105 C  
BRANCH  15  17
HETATM   17  C   UNL     1      -7.724  10.197  68.839  1.00  0.00    -0.093 C  
BRANCH  17  18
HETATM   18  C   UNL     1      -8.840   9.832  69.792  1.00  0.00    -0.241 A  
HETATM   19  C   UNL     1      -8.604   8.898  70.806  1.00  0.00    -0.236 A  
HETATM   20  C   UNL     1      -9.672   8.374  71.546  1.00  0.00    -0.210 A  
HETATM   21  C   UNL     1     -10.974   8.859  71.362  1.00  0.00    -0.310 A  
HETATM   22  C   UNL     1     -10.133  10.328  69.615  1.00  0.00    -0.257 A  
HETATM   23  C   UNL     1     -11.187   9.861  70.409  1.00  0.00    -0.379 A  
BRANCH  20  24
HETATM   24  S   UNL     1      -9.417   6.998  72.641  1.00  0.00    -0.144 S  
HETATM   25  O   UNL     1      -9.661   7.449  73.991  1.00  0.00    -0.274 OA 
HETATM   26  N   UNL     1     -10.675   5.937  72.298  1.00  0.00    -0.223 N  
HETATM   27  O   UNL     1      -8.223   6.297  72.229  1.00  0.00    -0.109 OA 
HETATM   28  H1  UNL     1     -10.528   5.148  72.927  1.00  0.00     0.000 HD 
HETATM   29  H2  UNL     1     -11.421   6.056  71.613  1.00  0.00     0.000 HD 
ENDBRANCH  20  24
BRANCH  21  30
HETATM   30  O   UNL     1     -11.961   8.310  72.133  1.00  0.00    -0.323 OA 
HETATM   31  C   UNL     1     -13.245   8.920  72.110  1.00  0.00    -0.429 C  
ENDBRANCH  21  30
ENDBRANCH  17  18
ENDBRANCH  15  17
ENDBRANCH  13  15
ENDBRANCH  12  13
ENDBRANCH  11  12
ENDBRANCH  10  11
ENDBRANCH   9  10
ENDBRANCH   3   4
ENDBRANCH   2   3
TORSDOF 11
ENDMDL
MODEL      325
REMARK 921   NORMALIZED FREE ENERGY PREDICTED BY IDOCK:   -3.63 KCAL/MOL
REMARK 922        TOTAL FREE ENERGY PREDICTED BY IDOCK:   -7.20 KCAL/MOL
REMARK 923 INTER-LIGAND FREE ENERGY PREDICTED BY IDOCK:   -6.48 KCAL/MOL
REMARK 924 INTRA-LIGAND FREE ENERGY PREDICTED BY IDOCK:   -0.72 KCAL/MOL
REMARK 927      BINDING AFFINITY PREDICTED BY RF-SCORE:    0.00 PKD
ROOT
HETATM    1  C   UNL     1      -8.844  15.698  67.323  1.00  0.00    -0.215 C  
HETATM    2  C   UNL     1      -8.616  14.206  67.512  1.00  0.00    -0.191 C  
ENDROOT
BRANCH   2   3
HETATM    3  O   UNL     1      -9.851  13.580  67.183  1.00  0.00    -0.235 OA 
BRANCH   3   4
HETATM    4  C   UNL     1      -9.946  12.736  66.118  1.00  0.00    -0.266 A  
HETATM    5  C   UNL     1     -10.632  13.060  64.940  1.00  0.00    -0.355 A  
HETATM    6  C   UNL     1     -10.722  12.146  63.887  1.00  0.00    -0.456 A  
HETATM    7  C   UNL     1     -10.123  10.893  63.999  1.00  0.00    -0.419 A  
HETATM    8  C   UNL     1      -9.427  10.564  65.161  1.00  0.00    -0.285 A  
HETATM    9  C   UNL     1      -9.324  11.474  66.224  1.00  0.00    -0.213 A  
BRANCH   9  10
HETATM   10  O   UNL     1      -8.589  10.971  67.273  1.00  0.00    -0.128 OA 
BRANCH  10  11
HETATM   11  C   UNL     1      -9.132   9.879  68.012  1.00  0.00    -0.121 C  
BRANCH  11  12
HETATM   12  C   UNL     1     -10.295  10.372  68.884  1.00  0.00    -0.209 C  
BRANCH  12  13
HETATM   13  N   UNL     1     -10.342   9.821  70.248  1.00  0.00    -0.276 NA 
HETATM   14  H   UNL     1      -9.776  10.394  70.875  1.00  0.00     0.000 HD 
BRANCH  13  15
HETATM   15  C   UNL     1     -11.693   9.638  70.813  1.00  0.00    -0.314 C  
HETATM   16  C   UNL     1     -12.051  10.936  71.553  1.00  0.00    -0.125 C  
BRANCH  15  17
HETATM   17  C   UNL     1     -11.814   8.404  71.751  1.00  0.00    -0.374 C  
BRANCH  17  18
HETATM   18  C   UNL     1     -11.268   7.151  71.104  1.00  0.00    -0.291 A  
HETATM   19  C   UNL     1     -10.594   6.207  71.886  1.00  0.00    -0.263 A  
HETATM   20  C   UNL     1      -9.884   5.163  71.278  1.00  0.00    -0.177 A  
HETATM   21  C   UNL     1      -9.931   4.982  69.890  1.00  0.00    -0.251 A  
HETATM   22  C   UNL     1     -11.330   6.965  69.722  1.00  0.00    -0.288 A  
HETATM   23  C   UNL     1     -10.685   5.877  69.123  1.00  0.00    -0.394 A  
BRANCH  20  24
HETATM   24  S   UNL     1      -8.809   4.128  72.242  1.00  0.00    -0.108 S  
HETATM   25  O   UNL     1      -9.265   2.765  72.111  1.00  0.00    -0.086 OA 
HETATM   26  N   UNL     1      -7.333   4.176  71.439  1.00  0.00    -0.049 N  
HETATM   27  O   UNL     1      -8.558   4.776  73.509  1.00  0.00    -0.105 OA 
HETATM   28  H1  UNL     1      -6.716   3.582  71.992  1.00  0.00     0.000 HD 
HETATM   29  H2  UNL     1      -7.104   4.686  70.587  1.00  0.00     0.000 HD 
ENDBRANCH  20  24
BRANCH  21  30
HETATM   30  O   UNL     1      -9.225   3.932  69.372  1.00  0.00    -0.121 OA 
HETATM   31  C   UNL     1      -9.215   3.764  67.960  1.00  0.00    -0.167 C  
ENDBRANCH  21  30
ENDBRANCH  17  18
ENDBRANCH  15  17
ENDBRANCH  13  15
ENDBRANCH  12  13
ENDBRANCH  11  12
ENDBRANCH  10  11
ENDBRANCH   9  10
ENDBRANCH   3   4
ENDBRANCH   2   3
TORSDOF 11
ENDMDL
MODEL      326
REMARK 921   NORMALIZED FREE ENERGY PREDICTED BY IDOCK:   -3.61 KCAL/MOL
REMARK 922        TOTAL FREE ENERGY PREDICTED BY IDOCK:   -7.18 KCAL/MOL
REMARK 923 INTER-LIGAND FREE ENERGY PREDICTED BY IDOCK:   -6.25 KCAL/MOL
REMARK 924 INTRA-LIGAND FREE ENERGY PREDICTED BY IDOCK:   -0.93 KCAL/MOL
REMARK 927      BINDING AFFINITY PREDICTED BY RF-SCORE:    0.00 PKD
ROOT
HETATM    1  C   UNL     1     -12.088  12.514  63.452  1.00  0.00    -0.621 C  
HETATM    2  C   UNL     1     -12.718  12.991  64.752  1.00  0.00    -0.342 C  
ENDROOT
BRANCH   2   3
HETATM    3  O   UNL     1     -12.246  12.106  65.760  1.00  0.00    -0.586 OA 
BRANCH   3   4
HETATM    4  C   UNL     1     -11.123  12.396  66.474  1.00  0.00    -0.301 A  
HETATM    5  C   UNL     1     -10.933  13.610  67.148  1.00  0.00    -0.299 A  
HETATM    6  C   UNL     1      -9.748  13.867  67.844  1.00  0.00    -0.231 A  
HETATM    7  C   UNL     1      -8.737  12.909  67.876  1.00  0.00    -0.186 A  
HETATM    8  C   UNL     1      -8.920  11.693  67.221  1.00  0.00    -0.169 A  
HETATM    9  C   UNL     1     -10.106  11.419  66.522  1.00  0.00    -0.215 A  
BRANCH   9  10
HETATM   10  O   UNL     1     -10.101  10.165  65.955  1.00  0.00    -0.246 OA 
BRANCH  10  11
HETATM   11  C   UNL     1      -9.538  10.019  64.652  1.00  0.00    -0.297 C  
BRANCH  11  12
HETATM   12  C   UNL     1      -8.453   8.934  64.677  1.00  0.00    -0.168 C  
BRANCH  12  13
HETATM   13  N   UNL     1      -8.943   7.547  64.714  1.00  0.00    -0.098 NA 
HETATM   14  H   UNL     1      -8.733   7.080  63.831  1.00  0.00     0.000 HD 
BRANCH  13  15
HETATM   15  C   UNL     1      -8.459   6.731  65.844  1.00  0.00    -0.144 C  
HETATM   16  C   UNL     1      -7.510   5.673  65.261  1.00  0.00    -0.074 C  
BRANCH  15  17
HETATM   17  C   UNL     1      -9.600   6.070  66.669  1.00  0.00    -0.179 C  
BRANCH  17  18
HETATM   18  C   UNL     1      -9.331   6.142  68.156  1.00  0.00    -0.115 A  
HETATM   19  C   UNL     1      -9.263   7.389  68.787  1.00  0.00    -0.144 A  
HETATM   20  C   UNL     1      -8.789   7.491  70.101  1.00  0.00    -0.147 A  
HETATM   21  C   UNL     1      -8.485   6.341  70.841  1.00  0.00    -0.131 A  
HETATM   22  C   UNL     1      -9.043   4.993  68.895  1.00  0.00    -0.142 A  
HETATM   23  C   UNL     1      -8.645   5.091  70.233  1.00  0.00    -0.116 A  
BRANCH  20  24
HETATM   24  S   UNL     1      -8.445   9.083  70.810  1.00  0.00    -0.211 S  
HETATM   25  O   UNL     1      -7.139   9.501  70.358  1.00  0.00    -0.089 OA 
HETATM   26  N   UNL     1      -9.524  10.130  70.059  1.00  0.00    -0.401 N  
HETATM   27  O   UNL     1      -8.852   9.068  72.196  1.00  0.00    -0.376 OA 
HETATM   28  H1  UNL     1      -9.327  11.044  70.466  1.00  0.00     0.000 HD 
HETATM   29  H2  UNL     1     -10.223   9.902  69.352  1.00  0.00     0.000 HD 
ENDBRANCH  20  24
BRANCH  21  30
HETATM   30  O   UNL     1      -8.044   6.520  72.122  1.00  0.00    -0.106 OA 
HETATM   31  C   UNL     1      -8.491   5.609  73.118  1.00  0.00    -0.117 C  
ENDBRANCH  21  30
ENDBRANCH  17  18
ENDBRANCH  15  17
ENDBRANCH  13  15
ENDBRANCH  12  13
ENDBRANCH  11  12
ENDBRANCH  10  11
ENDBRANCH   9  10
ENDBRANCH   3   4
ENDBRANCH   2   3
TORSDOF 11
ENDMDL
MODEL      327
REMARK 921   NORMALIZED FREE ENERGY PREDICTED BY IDOCK:   -3.61 KCAL/MOL
REMARK 922        TOTAL FREE ENERGY PREDICTED BY IDOCK:   -7.17 KCAL/MOL
REMARK 923 INTER-LIGAND FREE ENERGY PREDICTED BY IDOCK:   -5.93 KCAL/MOL
REMARK 924 INTRA-LIGAND FREE ENERGY PREDICTED BY IDOCK:   -1.24 KCAL/MOL
REMARK 927      BINDING AFFINITY PREDICTED BY RF-SCORE:    0.00 PKD
ROOT
HETATM    1  C   UNL     1     -12.260  14.684  64.168  1.00  0.00    -0.343 C  
HETATM    2  C   UNL     1     -11.713  14.312  65.537  1.00  0.00    -0.353 C  
ENDROOT
BRANCH   2   3
HETATM    3  O   UNL     1     -11.084  13.046  65.373  1.00  0.00    -0.273 OA 
BRANCH   3   4
HETATM    4  C   UNL     1     -10.227  12.564  66.315  1.00  0.00    -0.248 A  
HETATM    5  C   UNL     1      -9.723  13.342  67.366  1.00  0.00    -0.221 A  
HETATM    6  C   UNL     1      -8.824  12.804  68.291  1.00  0.00    -0.168 A  
HETATM    7  C   UNL     1      -8.418  11.476  68.176  1.00  0.00    -0.154 A  
HETATM    8  C   UNL     1      -8.922  10.688  67.143  1.00  0.00    -0.143 A  
HETATM    9  C   UNL     1      -9.830  11.214  66.210  1.00  0.00    -0.214 A  
BRANCH   9  10
HETATM   10  O   UNL     1     -10.221  10.280  65.278  1.00  0.00    -0.307 OA 
BRANCH  10  11
HETATM   11  C   UNL     1      -9.671  10.371  63.964  1.00  0.00    -0.311 C  
BRANCH  11  12
HETATM   12  C   UNL     1      -8.319   9.646  63.918  1.00  0.00    -0.172 C  
BRANCH  12  13
HETATM   13  N   UNL     1      -8.383   8.179  64.015  1.00  0.00    -0.371 NA 
HETATM   14  H   UNL     1      -7.853   7.756  63.253  1.00  0.00     0.000 HD 
BRANCH  13  15
HETATM   15  C   UNL     1      -7.956   7.607  65.306  1.00  0.00    -0.129 C  
HETATM   16  C   UNL     1      -6.429   7.442  65.242  1.00  0.00    -0.041 C  
BRANCH  15  17
HETATM   17  C   UNL     1      -8.653   6.260  65.652  1.00  0.00    -0.143 C  
BRANCH  17  18
HETATM   18  C   UNL     1      -9.361   6.322  66.987  1.00  0.00    -0.135 A  
HETATM   19  C   UNL     1      -8.714   5.853  68.135  1.00  0.00    -0.111 A  
HETATM   20  C   UNL     1      -9.426   5.686  69.330  1.00  0.00    -0.130 A  
HETATM   21  C   UNL     1     -10.764   6.090  69.425  1.00  0.00    -0.334 A  
HETATM   22  C   UNL     1     -10.690   6.740  67.082  1.00  0.00    -0.441 A  
HETATM   23  C   UNL     1     -11.378   6.645  68.297  1.00  0.00    -0.094 A  
BRANCH  20  24
HETATM   24  S   UNL     1      -8.686   4.841  70.706  1.00  0.00    -0.111 S  
HETATM   25  O   UNL     1      -8.644   5.756  71.823  1.00  0.00    -0.130 OA 
HETATM   26  N   UNL     1      -9.806   3.666  71.143  1.00  0.00    -0.168 N  
HETATM   27  O   UNL     1      -7.542   4.098  70.230  1.00  0.00    -0.045 OA 
HETATM   28  H1  UNL     1      -9.381   3.182  71.933  1.00  0.00     0.000 HD 
HETATM   29  H2  UNL     1     -10.711   3.479  70.713  1.00  0.00     0.000 HD 
ENDBRANCH  20  24
BRANCH  21  30
HETATM   30  O   UNL     1     -11.388   5.910  70.628  1.00  0.00    -0.276 OA 
HETATM   31  C   UNL     1     -12.055   7.023  71.209  1.00  0.00    -0.361 C  
ENDBRANCH  21  30
ENDBRANCH  17  18
ENDBRANCH  15  17
ENDBRANCH  13  15
ENDBRANCH  12  13
ENDBRANCH  11  12
ENDBRANCH  10  11
ENDBRANCH   9  10
ENDBRANCH   3   4
ENDBRANCH   2   3
TORSDOF 11
ENDMDL
MODEL      328
REMARK 921   NORMALIZED FREE ENERGY PREDICTED BY IDOCK:   -3.60 KCAL/MOL
REMARK 922        TOTAL FREE ENERGY PREDICTED BY IDOCK:   -7.15 KCAL/MOL
REMARK 923 INTER-LIGAND FREE ENERGY PREDICTED BY IDOCK:   -7.43 KCAL/MOL
REMARK 924 INTRA-LIGAND FREE ENERGY PREDICTED BY IDOCK:    0.27 KCAL/MOL
REMARK 927      BINDING AFFINITY PREDICTED BY RF-SCORE:    0.00 PKD
ROOT
HETATM    1  C   UNL     1      -7.470  12.699  67.231  1.00  0.00    -0.111 C  
HETATM    2  C   UNL     1      -7.898  14.152  67.365  1.00  0.00    -0.177 C  
ENDROOT
BRANCH   2   3
HETATM    3  O   UNL     1      -9.298  14.123  67.615  1.00  0.00    -0.198 OA 
BRANCH   3   4
HETATM    4  C   UNL     1     -10.192  14.319  66.607  1.00  0.00    -0.272 A  
HETATM    5  C   UNL     1     -10.033  15.301  65.619  1.00  0.00    -0.397 A  
HETATM    6  C   UNL     1     -10.996  15.478  64.621  1.00  0.00    -0.341 A  
HETATM    7  C   UNL     1     -12.132  14.672  64.599  1.00  0.00    -0.466 A  
HETATM    8  C   UNL     1     -12.296  13.685  65.569  1.00  0.00    -0.519 A  
HETATM    9  C   UNL     1     -11.334  13.492  66.574  1.00  0.00    -0.319 A  
BRANCH   9  10
HETATM   10  O   UNL     1     -11.667  12.464  67.426  1.00  0.00    -0.347 OA 
BRANCH  10  11
HETATM   11  C   UNL     1     -11.511  11.125  66.957  1.00  0.00    -0.026 C  
BRANCH  11  12
HETATM   12  C   UNL     1     -10.035  10.717  67.043  1.00  0.00    -0.197 C  
BRANCH  12  13
HETATM   13  N   UNL     1      -9.784   9.281  67.245  1.00  0.00    -0.158 NA 
HETATM   14  H   UNL     1      -9.837   8.788  66.354  1.00  0.00     0.000 HD 
BRANCH  13  15
HETATM   15  C   UNL     1      -8.523   8.946  67.933  1.00  0.00    -0.125 C  
HETATM   16  C   UNL     1      -8.500   7.420  68.113  1.00  0.00    -0.124 C  
BRANCH  15  17
HETATM   17  C   UNL     1      -8.341   9.675  69.295  1.00  0.00    -0.137 C  
BRANCH  17  18
HETATM   18  C   UNL     1      -9.499   9.411  70.232  1.00  0.00    -0.294 A  
HETATM   19  C   UNL     1      -9.503   8.250  71.013  1.00  0.00    -0.197 A  
HETATM   20  C   UNL     1     -10.660   7.870  71.706  1.00  0.00    -0.226 A  
HETATM   21  C   UNL     1     -11.788   8.701  71.722  1.00  0.00    -0.337 A  
HETATM   22  C   UNL     1     -10.615  10.248  70.257  1.00  0.00    -0.264 A  
HETATM   23  C   UNL     1     -11.742   9.906  71.014  1.00  0.00    -0.466 A  
BRANCH  20  24
HETATM   24  S   UNL     1     -10.762   6.270  72.473  1.00  0.00    -0.238 S  
HETATM   25  O   UNL     1      -9.731   5.435  71.904  1.00  0.00    -0.158 OA 
HETATM   26  N   UNL     1     -10.289   6.527  74.066  1.00  0.00    -0.341 N  
HETATM   27  O   UNL     1     -12.152   5.889  72.561  1.00  0.00    -0.241 OA 
HETATM   28  H1  UNL     1     -10.347   5.609  74.506  1.00  0.00     0.000 HD 
HETATM   29  H2  UNL     1     -10.005   7.406  74.497  1.00  0.00     0.000 HD 
ENDBRANCH  20  24
BRANCH  21  30
HETATM   30  O   UNL     1     -12.872   8.270  72.435  1.00  0.00    -0.301 OA 
HETATM   31  C   UNL     1     -14.150   8.783  72.084  1.00  0.00    -0.450 C  
ENDBRANCH  21  30
ENDBRANCH  17  18
ENDBRANCH  15  17
ENDBRANCH  13  15
ENDBRANCH  12  13
ENDBRANCH  11  12
ENDBRANCH  10  11
ENDBRANCH   9  10
ENDBRANCH   3   4
ENDBRANCH   2   3
TORSDOF 11
ENDMDL
MODEL      329
REMARK 921   NORMALIZED FREE ENERGY PREDICTED BY IDOCK:   -3.60 KCAL/MOL
REMARK 922        TOTAL FREE ENERGY PREDICTED BY IDOCK:   -7.15 KCAL/MOL
REMARK 923 INTER-LIGAND FREE ENERGY PREDICTED BY IDOCK:   -6.65 KCAL/MOL
REMARK 924 INTRA-LIGAND FREE ENERGY PREDICTED BY IDOCK:   -0.50 KCAL/MOL
REMARK 927      BINDING AFFINITY PREDICTED BY RF-SCORE:    0.00 PKD
ROOT
HETATM    1  C   UNL     1     -12.268  13.654  64.079  1.00  0.00    -0.443 C  
HETATM    2  C   UNL     1     -11.907  12.261  64.573  1.00  0.00    -0.369 C  
ENDROOT
BRANCH   2   3
HETATM    3  O   UNL     1     -12.102  12.287  65.982  1.00  0.00    -0.623 OA 
BRANCH   3   4
HETATM    4  C   UNL     1     -11.471  13.211  66.759  1.00  0.00    -0.343 A  
HETATM    5  C   UNL     1     -12.114  14.340  67.285  1.00  0.00    -0.390 A  
HETATM    6  C   UNL     1     -11.412  15.272  68.054  1.00  0.00    -0.351 A  
HETATM    7  C   UNL     1     -10.055  15.086  68.309  1.00  0.00    -0.222 A  
HETATM    8  C   UNL     1      -9.408  13.960  67.801  1.00  0.00    -0.204 A  
HETATM    9  C   UNL     1     -10.101  13.013  67.032  1.00  0.00    -0.243 A  
BRANCH   9  10
HETATM   10  O   UNL     1      -9.295  11.970  66.635  1.00  0.00    -0.207 OA 
BRANCH  10  11
HETATM   11  C   UNL     1      -8.573  11.260  67.640  1.00  0.00    -0.124 C  
BRANCH  11  12
HETATM   12  C   UNL     1      -9.519  10.303  68.377  1.00  0.00    -0.146 C  
BRANCH  12  13
HETATM   13  N   UNL     1      -9.349  10.243  69.838  1.00  0.00    -0.408 NA 
HETATM   14  H   UNL     1      -9.292  11.187  70.222  1.00  0.00     0.000 HD 
BRANCH  13  15
HETATM   15  C   UNL     1     -10.368   9.463  70.566  1.00  0.00    -0.281 C  
HETATM   16  C   UNL     1      -9.644   8.730  71.706  1.00  0.00    -0.371 C  
BRANCH  15  17
HETATM   17  C   UNL     1     -11.152   8.466  69.665  1.00  0.00    -0.011 C  
BRANCH  17  18
HETATM   18  C   UNL     1     -10.560   7.075  69.721  1.00  0.00    -0.253 A  
HETATM   19  C   UNL     1      -9.680   6.659  68.717  1.00  0.00    -0.130 A  
HETATM   20  C   UNL     1      -9.306   5.312  68.619  1.00  0.00    -0.121 A  
HETATM   21  C   UNL     1      -9.714   4.386  69.589  1.00  0.00    -0.219 A  
HETATM   22  C   UNL     1     -10.956   6.159  70.697  1.00  0.00    -0.376 A  
HETATM   23  C   UNL     1     -10.519   4.831  70.643  1.00  0.00    -0.087 A  
BRANCH  20  24
HETATM   24  S   UNL     1      -8.414   4.729  67.198  1.00  0.00    -0.104 S  
HETATM   25  O   UNL     1      -7.147   4.203  67.650  1.00  0.00    -0.061 OA 
HETATM   26  N   UNL     1      -9.281   3.390  66.666  1.00  0.00    -0.166 N  
HETATM   27  O   UNL     1      -8.551   5.699  66.137  1.00  0.00    -0.123 OA 
HETATM   28  H1  UNL     1      -8.769   3.055  65.851  1.00  0.00     0.000 HD 
HETATM   29  H2  UNL     1     -10.131   2.998  67.070  1.00  0.00     0.000 HD 
ENDBRANCH  20  24
BRANCH  21  30
HETATM   30  O   UNL     1      -9.295   3.094  69.435  1.00  0.00    -0.148 OA 
HETATM   31  C   UNL     1      -9.291   2.251  70.579  1.00  0.00    -0.128 C  
ENDBRANCH  21  30
ENDBRANCH  17  18
ENDBRANCH  15  17
ENDBRANCH  13  15
ENDBRANCH  12  13
ENDBRANCH  11  12
ENDBRANCH  10  11
ENDBRANCH   9  10
ENDBRANCH   3   4
ENDBRANCH   2   3
TORSDOF 11
ENDMDL
MODEL      330
REMARK 921   NORMALIZED FREE ENERGY PREDICTED BY IDOCK:   -3.58 KCAL/MOL
REMARK 922        TOTAL FREE ENERGY PREDICTED BY IDOCK:   -7.13 KCAL/MOL
REMARK 923 INTER-LIGAND FREE ENERGY PREDICTED BY IDOCK:   -5.96 KCAL/MOL
REMARK 924 INTRA-LIGAND FREE ENERGY PREDICTED BY IDOCK:   -1.17 KCAL/MOL
REMARK 927      BINDING AFFINITY PREDICTED BY RF-SCORE:    0.00 PKD
ROOT
HETATM    1  C   UNL     1     -11.937  15.529  64.879  1.00  0.00     0.066 C  
HETATM    2  C   UNL     1     -10.867  16.606  64.960  1.00  0.00    -0.176 C  
ENDROOT
BRANCH   2   3
HETATM    3  O   UNL     1     -10.371  16.562  66.292  1.00  0.00    -0.308 OA 
BRANCH   3   4
HETATM    4  C   UNL     1      -9.144  17.067  66.599  1.00  0.00    -0.254 A  
HETATM    5  C   UNL     1      -8.780  18.400  66.360  1.00  0.00    -0.263 A  
HETATM    6  C   UNL     1      -7.498  18.860  66.670  1.00  0.00    -0.242 A  
HETATM    7  C   UNL     1      -6.561  17.991  67.225  1.00  0.00    -0.190 A  
HETATM    8  C   UNL     1      -6.915  16.667  67.480  1.00  0.00    -0.173 A  
HETATM    9  C   UNL     1      -8.201  16.193  67.179  1.00  0.00    -0.196 A  
BRANCH   9  10
HETATM   10  O   UNL     1      -8.361  14.868  67.514  1.00  0.00    -0.155 OA 
BRANCH  10  11
HETATM   11  C   UNL     1      -7.521  13.907  66.876  1.00  0.00     0.587 C  
BRANCH  11  12
HETATM   12  C   UNL     1      -8.274  12.579  66.728  1.00  0.00     0.008 C  
BRANCH  12  13
HETATM   13  N   UNL     1      -9.234  12.514  65.615  1.00  0.00    -0.430 NA 
HETATM   14  H   UNL     1      -8.736  12.502  64.725  1.00  0.00     0.000 HD 
BRANCH  13  15
HETATM   15  C   UNL     1     -10.197  11.397  65.669  1.00  0.00    -0.251 C  
HETATM   16  C   UNL     1     -10.075  10.634  64.340  1.00  0.00    -0.418 C  
BRANCH  15  17
HETATM   17  C   UNL     1     -11.663  11.848  65.926  1.00  0.00    -0.208 C  
BRANCH  17  18
HETATM   18  C   UNL     1     -11.954  11.993  67.403  1.00  0.00    -0.125 A  
HETATM   19  C   UNL     1     -12.100  13.270  67.956  1.00  0.00    -0.260 A  
HETATM   20  C   UNL     1     -12.137  13.437  69.347  1.00  0.00    -0.269 A  
HETATM   21  C   UNL     1     -12.144  12.325  70.199  1.00  0.00    -0.287 A  
HETATM   22  C   UNL     1     -11.976  10.882  68.249  1.00  0.00    -0.024 A  
HETATM   23  C   UNL     1     -12.092  11.047  69.633  1.00  0.00    -0.411 A  
BRANCH  20  24
HETATM   24  S   UNL     1     -12.047  15.062  70.058  1.00  0.00    -0.345 S  
HETATM   25  O   UNL     1     -11.906  16.014  68.982  1.00  0.00    -0.362 OA 
HETATM   26  N   UNL     1     -13.580  15.339  70.691  1.00  0.00    -0.742 N  
HETATM   27  O   UNL     1     -11.178  15.014  71.211  1.00  0.00    -0.304 OA 
HETATM   28  H1  UNL     1     -13.528  16.272  71.099  1.00  0.00     0.000 HD 
HETATM   29  H2  UNL     1     -14.384  14.713  70.672  1.00  0.00     0.000 HD 
ENDBRANCH  20  24
BRANCH  21  30
HETATM   30  O   UNL     1     -12.198  12.568  71.544  1.00  0.00     0.030 OA 
HETATM   31  C   UNL     1     -13.429  12.335  72.216  1.00  0.00    -0.260 C  
ENDBRANCH  21  30
ENDBRANCH  17  18
ENDBRANCH  15  17
ENDBRANCH  13  15
ENDBRANCH  12  13
ENDBRANCH  11  12
ENDBRANCH  10  11
ENDBRANCH   9  10
ENDBRANCH   3   4
ENDBRANCH   2   3
TORSDOF 11
ENDMDL
MODEL      331
REMARK 921   NORMALIZED FREE ENERGY PREDICTED BY IDOCK:   -3.58 KCAL/MOL
REMARK 922        TOTAL FREE ENERGY PREDICTED BY IDOCK:   -7.12 KCAL/MOL
REMARK 923 INTER-LIGAND FREE ENERGY PREDICTED BY IDOCK:   -6.01 KCAL/MOL
REMARK 924 INTRA-LIGAND FREE ENERGY PREDICTED BY IDOCK:   -1.11 KCAL/MOL
REMARK 927      BINDING AFFINITY PREDICTED BY RF-SCORE:    0.00 PKD
ROOT
HETATM    1  C   UNL     1     -11.107   6.029  69.907  1.00  0.00    -0.469 C  
HETATM    2  C   UNL     1     -10.166   6.318  71.066  1.00  0.00    -0.192 C  
ENDROOT
BRANCH   2   3
HETATM    3  O   UNL     1     -10.999   6.659  72.168  1.00  0.00    -0.229 OA 
BRANCH   3   4
HETATM    4  C   UNL     1     -11.970   7.605  72.043  1.00  0.00    -0.302 A  
HETATM    5  C   UNL     1     -13.337   7.326  72.178  1.00  0.00    -0.047 A  
HETATM    6  C   UNL     1     -14.295   8.330  72.013  1.00  0.00    -0.541 A  
HETATM    7  C   UNL     1     -13.896   9.631  71.713  1.00  0.00    -0.261 A  
HETATM    8  C   UNL     1     -12.539   9.924  71.590  1.00  0.00    -0.519 A  
HETATM    9  C   UNL     1     -11.566   8.926  71.758  1.00  0.00    -0.352 A  
BRANCH   9  10
HETATM   10  O   UNL     1     -10.287   9.414  71.611  1.00  0.00    -0.309 OA 
BRANCH  10  11
HETATM   11  C   UNL     1      -9.962  10.091  70.398  1.00  0.00    -0.053 C  
BRANCH  11  12
HETATM   12  C   UNL     1      -8.766   9.402  69.727  1.00  0.00    -0.181 C  
BRANCH  12  13
HETATM   13  N   UNL     1      -8.959   9.026  68.317  1.00  0.00    -0.133 NA 
HETATM   14  H   UNL     1      -9.650   8.278  68.248  1.00  0.00     0.000 HD 
BRANCH  13  15
HETATM   15  C   UNL     1      -9.318  10.130  67.407  1.00  0.00    -0.148 C  
HETATM   16  C   UNL     1      -9.658   9.500  66.047  1.00  0.00    -0.316 C  
BRANCH  15  17
HETATM   17  C   UNL     1      -8.205  11.208  67.265  1.00  0.00    -0.136 C  
BRANCH  17  18
HETATM   18  C   UNL     1      -8.764  12.609  67.373  1.00  0.00    -0.191 A  
HETATM   19  C   UNL     1      -9.617  12.932  68.434  1.00  0.00    -0.176 A  
HETATM   20  C   UNL     1     -10.325  14.141  68.428  1.00  0.00    -0.249 A  
HETATM   21  C   UNL     1     -10.106  15.091  67.422  1.00  0.00    -0.228 A  
HETATM   22  C   UNL     1      -8.531  13.559  66.378  1.00  0.00     0.480 A  
HETATM   23  C   UNL     1      -9.181  14.799  66.415  1.00  0.00    -0.301 A  
BRANCH  20  24
HETATM   24  S   UNL     1     -11.606  14.437  69.623  1.00  0.00    -0.308 S  
HETATM   25  O   UNL     1     -11.190  15.536  70.461  1.00  0.00    -0.286 OA 
HETATM   26  N   UNL     1     -12.899  15.031  68.729  1.00  0.00     0.060 N  
HETATM   27  O   UNL     1     -12.066  13.165  70.131  1.00  0.00    -0.338 OA 
HETATM   28  H1  UNL     1     -13.634  15.202  69.414  1.00  0.00     0.000 HD 
HETATM   29  H2  UNL     1     -12.940  15.188  67.722  1.00  0.00     0.000 HD 
ENDBRANCH  20  24
BRANCH  21  30
HETATM   30  O   UNL     1     -10.822  16.253  67.493  1.00  0.00    -0.321 OA 
HETATM   31  C   UNL     1     -10.904  17.061  66.326  1.00  0.00     0.034 C  
ENDBRANCH  21  30
ENDBRANCH  17  18
ENDBRANCH  15  17
ENDBRANCH  13  15
ENDBRANCH  12  13
ENDBRANCH  11  12
ENDBRANCH  10  11
ENDBRANCH   9  10
ENDBRANCH   3   4
ENDBRANCH   2   3
TORSDOF 11
ENDMDL
MODEL      332
REMARK 921   NORMALIZED FREE ENERGY PREDICTED BY IDOCK:   -3.53 KCAL/MOL
REMARK 922        TOTAL FREE ENERGY PREDICTED BY IDOCK:   -7.05 KCAL/MOL
REMARK 923 INTER-LIGAND FREE ENERGY PREDICTED BY IDOCK:   -6.42 KCAL/MOL
REMARK 924 INTRA-LIGAND FREE ENERGY PREDICTED BY IDOCK:   -0.63 KCAL/MOL
REMARK 927      BINDING AFFINITY PREDICTED BY RF-SCORE:    0.00 PKD
ROOT
HETATM    1  C   UNL     1      -7.391  11.562  66.907  1.00  0.00    -0.140 C  
HETATM    2  C   UNL     1      -7.381  12.976  67.466  1.00  0.00    -0.152 C  
ENDROOT
BRANCH   2   3
HETATM    3  O   UNL     1      -8.603  13.119  68.180  1.00  0.00    -0.169 OA 
BRANCH   3   4
HETATM    4  C   UNL     1      -9.747  13.490  67.541  1.00  0.00    -0.228 A  
HETATM    5  C   UNL     1      -9.767  14.370  66.449  1.00  0.00    -0.320 A  
HETATM    6  C   UNL     1     -10.973  14.739  65.847  1.00  0.00    -0.335 A  
HETATM    7  C   UNL     1     -12.177  14.229  66.328  1.00  0.00    -0.433 A  
HETATM    8  C   UNL     1     -12.169  13.344  67.405  1.00  0.00    -0.262 A  
HETATM    9  C   UNL     1     -10.965  12.960  68.016  1.00  0.00    -0.247 A  
BRANCH   9  10
HETATM   10  O   UNL     1     -11.164  12.072  69.049  1.00  0.00    -0.229 OA 
BRANCH  10  11
HETATM   11  C   UNL     1     -11.567  10.743  68.724  1.00  0.00    -0.280 C  
BRANCH  11  12
HETATM   12  C   UNL     1     -10.458  10.047  67.925  1.00  0.00    -0.231 C  
BRANCH  12  13
HETATM   13  N   UNL     1     -10.896   8.933  67.068  1.00  0.00    -0.301 NA 
HETATM   14  H   UNL     1     -10.929   9.234  66.094  1.00  0.00     0.000 HD 
BRANCH  13  15
HETATM   15  C   UNL     1     -10.108   7.691  67.186  1.00  0.00    -0.253 C  
HETATM   16  C   UNL     1     -11.104   6.550  67.451  1.00  0.00    -0.411 C  
BRANCH  15  17
HETATM   17  C   UNL     1      -9.013   7.749  68.289  1.00  0.00    -0.131 C  
BRANCH  17  18
HETATM   18  C   UNL     1      -9.205   6.666  69.328  1.00  0.00    -0.140 A  
HETATM   19  C   UNL     1     -10.104   6.870  70.381  1.00  0.00    -0.201 A  
HETATM   20  C   UNL     1     -10.126   5.991  71.471  1.00  0.00    -0.192 A  
HETATM   21  C   UNL     1      -9.334   4.835  71.471  1.00  0.00    -0.147 A  
HETATM   22  C   UNL     1      -8.426   5.508  69.318  1.00  0.00    -0.101 A  
HETATM   23  C   UNL     1      -8.506   4.590  70.370  1.00  0.00    -0.096 A  
BRANCH  20  24
HETATM   24  S   UNL     1     -11.062   6.389  72.927  1.00  0.00    -0.191 S  
HETATM   25  O   UNL     1     -10.132   6.720  73.981  1.00  0.00    -0.299 OA 
HETATM   26  N   UNL     1     -11.837   7.834  72.557  1.00  0.00    -0.509 N  
HETATM   27  O   UNL     1     -12.129   5.426  73.067  1.00  0.00    -0.132 OA 
HETATM   28  H1  UNL     1     -12.375   8.063  73.393  1.00  0.00     0.000 HD 
HETATM   29  H2  UNL     1     -11.783   8.366  71.689  1.00  0.00     0.000 HD 
ENDBRANCH  20  24
BRANCH  21  30
HETATM   30  O   UNL     1      -9.422   4.017  72.563  1.00  0.00    -0.123 OA 
HETATM   31  C   UNL     1     -10.013   2.735  72.392  1.00  0.00    -0.165 C  
ENDBRANCH  21  30
ENDBRANCH  17  18
ENDBRANCH  15  17
ENDBRANCH  13  15
ENDBRANCH  12  13
ENDBRANCH  11  12
ENDBRANCH  10  11
ENDBRANCH   9  10
ENDBRANCH   3   4
ENDBRANCH   2   3
TORSDOF 11
ENDMDL
MODEL      333
REMARK 921   NORMALIZED FREE ENERGY PREDICTED BY IDOCK:   -3.53 KCAL/MOL
REMARK 922        TOTAL FREE ENERGY PREDICTED BY IDOCK:   -7.04 KCAL/MOL
REMARK 923 INTER-LIGAND FREE ENERGY PREDICTED BY IDOCK:   -6.14 KCAL/MOL
REMARK 924 INTRA-LIGAND FREE ENERGY PREDICTED BY IDOCK:   -0.89 KCAL/MOL
REMARK 927      BINDING AFFINITY PREDICTED BY RF-SCORE:    0.00 PKD
ROOT
HETATM    1  C   UNL     1     -10.027   4.979  67.672  1.00  0.00    -0.202 C  
HETATM    2  C   UNL     1      -8.922   5.290  66.674  1.00  0.00    -0.117 C  
ENDROOT
BRANCH   2   3
HETATM    3  O   UNL     1      -8.491   6.613  66.970  1.00  0.00    -0.112 OA 
BRANCH   3   4
HETATM    4  C   UNL     1      -8.704   7.631  66.091  1.00  0.00    -0.156 A  
HETATM    5  C   UNL     1      -7.912   7.842  64.954  1.00  0.00    -0.138 A  
HETATM    6  C   UNL     1      -8.157   8.920  64.099  1.00  0.00    -0.160 A  
HETATM    7  C   UNL     1      -9.201   9.801  64.370  1.00  0.00    -0.301 A  
HETATM    8  C   UNL     1     -10.004   9.594  65.491  1.00  0.00    -0.279 A  
HETATM    9  C   UNL     1      -9.773   8.513  66.356  1.00  0.00    -0.258 A  
BRANCH   9  10
HETATM   10  O   UNL     1     -10.676   8.471  67.393  1.00  0.00    -0.264 OA 
BRANCH  10  11
HETATM   11  C   UNL     1     -10.177   8.593  68.724  1.00  0.00    -0.207 C  
BRANCH  11  12
HETATM   12  C   UNL     1     -10.734   9.868  69.370  1.00  0.00    -0.232 C  
BRANCH  12  13
HETATM   13  N   UNL     1      -9.786  10.990  69.478  1.00  0.00    -0.428 NA 
HETATM   14  H   UNL     1      -9.761  11.333  70.439  1.00  0.00     0.000 HD 
BRANCH  13  15
HETATM   15  C   UNL     1      -8.417  10.714  69.004  1.00  0.00    -0.145 C  
HETATM   16  C   UNL     1      -7.708   9.920  70.113  1.00  0.00    -0.188 C  
BRANCH  15  17
HETATM   17  C   UNL     1      -7.617  11.993  68.628  1.00  0.00    -0.112 C  
BRANCH  17  18
HETATM   18  C   UNL     1      -8.429  12.929  67.760  1.00  0.00    -0.185 A  
HETATM   19  C   UNL     1      -8.784  14.191  68.249  1.00  0.00    -0.181 A  
HETATM   20  C   UNL     1      -9.722  14.974  67.565  1.00  0.00    -0.215 A  
HETATM   21  C   UNL     1     -10.232  14.560  66.327  1.00  0.00    -0.297 A  
HETATM   22  C   UNL     1      -8.923  12.519  66.521  1.00  0.00    -0.133 A  
HETATM   23  C   UNL     1      -9.800  13.338  65.801  1.00  0.00    -0.210 A  
BRANCH  20  24
HETATM   24  S   UNL     1     -10.379  16.446  68.313  1.00  0.00    -0.294 S  
HETATM   25  O   UNL     1      -9.467  16.864  69.353  1.00  0.00    -0.108 OA 
HETATM   26  N   UNL     1     -10.256  17.625  67.122  1.00  0.00    -0.330 N  
HETATM   27  O   UNL     1     -11.799  16.270  68.510  1.00  0.00    -0.236 OA 
HETATM   28  H1  UNL     1     -10.632  18.470  67.551  1.00  0.00     0.000 HD 
HETATM   29  H2  UNL     1      -9.886  17.520  66.177  1.00  0.00     0.000 HD 
ENDBRANCH  20  24
BRANCH  21  30
HETATM   30  O   UNL     1     -11.131  15.386  65.713  1.00  0.00    -0.324 OA 
HETATM   31  C   UNL     1     -12.119  14.797  64.879  1.00  0.00    -0.333 C  
ENDBRANCH  21  30
ENDBRANCH  17  18
ENDBRANCH  15  17
ENDBRANCH  13  15
ENDBRANCH  12  13
ENDBRANCH  11  12
ENDBRANCH  10  11
ENDBRANCH   9  10
ENDBRANCH   3   4
ENDBRANCH   2   3
TORSDOF 11
ENDMDL
MODEL      334
REMARK 921   NORMALIZED FREE ENERGY PREDICTED BY IDOCK:   -3.52 KCAL/MOL
REMARK 922        TOTAL FREE ENERGY PREDICTED BY IDOCK:   -7.02 KCAL/MOL
REMARK 923 INTER-LIGAND FREE ENERGY PREDICTED BY IDOCK:   -5.74 KCAL/MOL
REMARK 924 INTRA-LIGAND FREE ENERGY PREDICTED BY IDOCK:   -1.28 KCAL/MOL
REMARK 927      BINDING AFFINITY PREDICTED BY RF-SCORE:    0.00 PKD
ROOT
HETATM    1  C   UNL     1      -6.719  13.199  67.928  1.00  0.00    -0.138 C  
HETATM    2  C   UNL     1      -7.517  14.466  68.192  1.00  0.00    -0.128 C  
ENDROOT
BRANCH   2   3
HETATM    3  O   UNL     1      -8.618  14.427  67.292  1.00  0.00    -0.192 OA 
BRANCH   3   4
HETATM    4  C   UNL     1      -9.284  15.564  66.951  1.00  0.00    -0.236 A  
HETATM    5  C   UNL     1      -9.338  16.699  67.773  1.00  0.00    -0.222 A  
HETATM    6  C   UNL     1     -10.059  17.832  67.386  1.00  0.00    -0.338 A  
HETATM    7  C   UNL     1     -10.737  17.844  66.169  1.00  0.00    -0.123 A  
HETATM    8  C   UNL     1     -10.681  16.727  65.338  1.00  0.00    -0.201 A  
HETATM    9  C   UNL     1      -9.955  15.584  65.711  1.00  0.00    -0.359 A  
BRANCH   9  10
HETATM   10  O   UNL     1     -10.009  14.596  64.754  1.00  0.00    -0.247 OA 
BRANCH  10  11
HETATM   11  C   UNL     1     -11.107  13.686  64.790  1.00  0.00    -0.370 C  
BRANCH  11  12
HETATM   12  C   UNL     1     -10.583  12.248  64.896  1.00  0.00    -0.293 C  
BRANCH  12  13
HETATM   13  N   UNL     1     -10.042  11.865  66.210  1.00  0.00    -0.215 NA 
HETATM   14  H   UNL     1     -10.763  11.963  66.926  1.00  0.00     0.000 HD 
BRANCH  13  15
HETATM   15  C   UNL     1      -9.439  10.521  66.283  1.00  0.00    -0.177 C  
HETATM   16  C   UNL     1      -8.701  10.286  64.956  1.00  0.00    -0.195 C  
BRANCH  15  17
HETATM   17  C   UNL     1     -10.468   9.388  66.562  1.00  0.00    -0.199 C  
BRANCH  17  18
HETATM   18  C   UNL     1     -10.103   8.588  67.793  1.00  0.00    -0.266 A  
HETATM   19  C   UNL     1      -9.184   9.111  68.709  1.00  0.00    -0.136 A  
HETATM   20  C   UNL     1      -8.658   8.301  69.723  1.00  0.00    -0.129 A  
HETATM   21  C   UNL     1      -9.128   6.993  69.907  1.00  0.00    -0.141 A  
HETATM   22  C   UNL     1     -10.584   7.292  67.981  1.00  0.00    -0.247 A  
HETATM   23  C   UNL     1     -10.116   6.509  69.043  1.00  0.00    -0.186 A  
BRANCH  20  24
HETATM   24  S   UNL     1      -7.299   8.871  70.715  1.00  0.00    -0.102 S  
HETATM   25  O   UNL     1      -6.095   8.240  70.227  1.00  0.00    -0.031 OA 
HETATM   26  N   UNL     1      -7.133  10.497  70.322  1.00  0.00    -0.254 N  
HETATM   27  O   UNL     1      -7.706   8.868  72.101  1.00  0.00    -0.341 OA 
HETATM   28  H1  UNL     1      -6.353  10.824  70.890  1.00  0.00     0.000 HD 
HETATM   29  H2  UNL     1      -7.690  11.037  69.660  1.00  0.00     0.000 HD 
ENDBRANCH  20  24
BRANCH  21  30
HETATM   30  O   UNL     1      -8.579   6.269  70.928  1.00  0.00    -0.133 OA 
HETATM   31  C   UNL     1      -9.048   4.944  71.136  1.00  0.00    -0.141 C  
ENDBRANCH  21  30
ENDBRANCH  17  18
ENDBRANCH  15  17
ENDBRANCH  13  15
ENDBRANCH  12  13
ENDBRANCH  11  12
ENDBRANCH  10  11
ENDBRANCH   9  10
ENDBRANCH   3   4
ENDBRANCH   2   3
TORSDOF 11
ENDMDL
MODEL      335
REMARK 921   NORMALIZED FREE ENERGY PREDICTED BY IDOCK:   -3.51 KCAL/MOL
REMARK 922        TOTAL FREE ENERGY PREDICTED BY IDOCK:   -7.02 KCAL/MOL
REMARK 923 INTER-LIGAND FREE ENERGY PREDICTED BY IDOCK:   -6.28 KCAL/MOL
REMARK 924 INTRA-LIGAND FREE ENERGY PREDICTED BY IDOCK:   -0.74 KCAL/MOL
REMARK 927      BINDING AFFINITY PREDICTED BY RF-SCORE:    0.00 PKD
ROOT
HETATM    1  C   UNL     1      -7.410  11.990  67.511  1.00  0.00    -0.137 C  
HETATM    2  C   UNL     1      -7.537  13.504  67.583  1.00  0.00    -0.177 C  
ENDROOT
BRANCH   2   3
HETATM    3  O   UNL     1      -8.847  13.761  68.074  1.00  0.00    -0.166 OA 
BRANCH   3   4
HETATM    4  C   UNL     1      -9.900  13.895  67.221  1.00  0.00    -0.244 A  
HETATM    5  C   UNL     1      -9.788  14.467  65.946  1.00  0.00    -0.347 A  
HETATM    6  C   UNL     1     -10.907  14.605  65.120  1.00  0.00    -0.414 A  
HETATM    7  C   UNL     1     -12.155  14.169  65.560  1.00  0.00    -0.421 A  
HETATM    8  C   UNL     1     -12.277  13.587  66.821  1.00  0.00    -0.392 A  
HETATM    9  C   UNL     1     -11.160  13.437  67.658  1.00  0.00    -0.265 A  
BRANCH   9  10
HETATM   10  O   UNL     1     -11.480  12.830  68.851  1.00  0.00    -0.264 OA 
BRANCH  10  11
HETATM   11  C   UNL     1     -11.906  11.469  68.819  1.00  0.00    -0.330 C  
BRANCH  11  12
HETATM   12  C   UNL     1     -10.766  10.582  68.302  1.00  0.00    -0.229 C  
BRANCH  12  13
HETATM   13  N   UNL     1     -11.184   9.360  67.596  1.00  0.00    -0.391 NA 
HETATM   14  H   UNL     1     -11.601   9.602  66.696  1.00  0.00     0.000 HD 
BRANCH  13  15
HETATM   15  C   UNL     1     -10.132   8.343  67.408  1.00  0.00    -0.236 C  
HETATM   16  C   UNL     1     -10.802   6.969  67.567  1.00  0.00    -0.338 C  
BRANCH  15  17
HETATM   17  C   UNL     1      -8.931   8.499  68.384  1.00  0.00    -0.139 C  
BRANCH  17  18
HETATM   18  C   UNL     1      -9.122   7.685  69.644  1.00  0.00    -0.147 A  
HETATM   19  C   UNL     1      -8.597   6.390  69.715  1.00  0.00    -0.138 A  
HETATM   20  C   UNL     1      -8.957   5.539  70.768  1.00  0.00    -0.142 A  
HETATM   21  C   UNL     1      -9.752   6.006  71.823  1.00  0.00    -0.151 A  
HETATM   22  C   UNL     1      -9.902   8.158  70.700  1.00  0.00    -0.196 A  
HETATM   23  C   UNL     1     -10.197   7.332  71.791  1.00  0.00    -0.211 A  
BRANCH  20  24
HETATM   24  S   UNL     1      -8.517   3.818  70.723  1.00  0.00    -0.071 S  
HETATM   25  O   UNL     1      -7.335   3.681  69.904  1.00  0.00    -0.042 OA 
HETATM   26  N   UNL     1      -8.011   3.463  72.286  1.00  0.00    -0.062 N  
HETATM   27  O   UNL     1      -9.719   3.039  70.540  1.00  0.00    -0.151 OA 
HETATM   28  H1  UNL     1      -7.759   2.475  72.260  1.00  0.00     0.000 HD 
HETATM   29  H2  UNL     1      -7.967   4.095  73.085  1.00  0.00     0.000 HD 
ENDBRANCH  20  24
BRANCH  21  30
HETATM   30  O   UNL     1     -10.047   5.121  72.823  1.00  0.00    -0.161 OA 
HETATM   31  C   UNL     1     -11.410   4.960  73.192  1.00  0.00    -0.315 C  
ENDBRANCH  21  30
ENDBRANCH  17  18
ENDBRANCH  15  17
ENDBRANCH  13  15
ENDBRANCH  12  13
ENDBRANCH  11  12
ENDBRANCH  10  11
ENDBRANCH   9  10
ENDBRANCH   3   4
ENDBRANCH   2   3
TORSDOF 11
ENDMDL
MODEL      336
REMARK 921   NORMALIZED FREE ENERGY PREDICTED BY IDOCK:   -3.50 KCAL/MOL
REMARK 922        TOTAL FREE ENERGY PREDICTED BY IDOCK:   -6.99 KCAL/MOL
REMARK 923 INTER-LIGAND FREE ENERGY PREDICTED BY IDOCK:   -7.84 KCAL/MOL
REMARK 924 INTRA-LIGAND FREE ENERGY PREDICTED BY IDOCK:    0.85 KCAL/MOL
REMARK 927      BINDING AFFINITY PREDICTED BY RF-SCORE:    0.00 PKD
ROOT
HETATM    1  C   UNL     1     -11.100   3.387  73.766  1.00  0.00    -0.286 C  
HETATM    2  C   UNL     1     -11.039   4.880  73.482  1.00  0.00    -0.332 C  
ENDROOT
BRANCH   2   3
HETATM    3  O   UNL     1     -11.525   5.043  72.155  1.00  0.00     0.047 OA 
BRANCH   3   4
HETATM    4  C   UNL     1     -10.736   5.573  71.181  1.00  0.00    -0.210 A  
HETATM    5  C   UNL     1      -9.519   5.003  70.782  1.00  0.00    -0.230 A  
HETATM    6  C   UNL     1      -8.734   5.604  69.795  1.00  0.00    -0.125 A  
HETATM    7  C   UNL     1      -9.157   6.786  69.191  1.00  0.00    -0.138 A  
HETATM    8  C   UNL     1     -10.371   7.356  69.570  1.00  0.00    -0.218 A  
HETATM    9  C   UNL     1     -11.173   6.760  70.557  1.00  0.00    -0.320 A  
BRANCH   9  10
HETATM   10  O   UNL     1     -12.335   7.463  70.781  1.00  0.00    -0.242 OA 
BRANCH  10  11
HETATM   11  C   UNL     1     -12.685   7.771  72.129  1.00  0.00    -0.191 C  
BRANCH  11  12
HETATM   12  C   UNL     1     -13.962   8.621  72.150  1.00  0.00    -0.435 C  
BRANCH  12  13
HETATM   13  N   UNL     1     -13.801   9.995  72.650  1.00  0.00    -0.477 NA 
HETATM   14  H   UNL     1     -13.218   9.996  73.488  1.00  0.00     0.000 HD 
BRANCH  13  15
HETATM   15  C   UNL     1     -13.282  10.971  71.673  1.00  0.00    -0.357 C  
HETATM   16  C   UNL     1     -11.827  10.577  71.373  1.00  0.00    -0.237 C  
BRANCH  15  17
HETATM   17  C   UNL     1     -13.377  12.447  72.154  1.00  0.00    -0.508 C  
BRANCH  17  18
HETATM   18  C   UNL     1     -12.694  13.395  71.194  1.00  0.00    -0.411 A  
HETATM   19  C   UNL     1     -12.030  12.884  70.074  1.00  0.00    -0.380 A  
HETATM   20  C   UNL     1     -11.201  13.712  69.305  1.00  0.00    -0.233 A  
HETATM   21  C   UNL     1     -11.114  15.084  69.576  1.00  0.00    -0.277 A  
HETATM   22  C   UNL     1     -12.622  14.764  71.458  1.00  0.00    -0.400 A  
HETATM   23  C   UNL     1     -11.855  15.604  70.642  1.00  0.00    -0.409 A  
BRANCH  20  24
HETATM   24  S   UNL     1     -10.149  13.017  68.054  1.00  0.00    -0.240 S  
HETATM   25  O   UNL     1     -10.549  13.564  66.779  1.00  0.00    -0.269 OA 
HETATM   26  N   UNL     1      -8.631  13.672  68.356  1.00  0.00    -0.216 N  
HETATM   27  O   UNL     1      -9.997  11.604  68.313  1.00  0.00    -0.188 OA 
HETATM   28  H1  UNL     1      -8.027  13.273  67.638  1.00  0.00     0.000 HD 
HETATM   29  H2  UNL     1      -8.371  14.325  69.095  1.00  0.00     0.000 HD 
ENDBRANCH  20  24
BRANCH  21  30
HETATM   30  O   UNL     1     -10.298  15.830  68.772  1.00  0.00    -0.208 OA 
HETATM   31  C   UNL     1     -10.862  16.947  68.098  1.00  0.00    -0.351 C  
ENDBRANCH  21  30
ENDBRANCH  17  18
ENDBRANCH  15  17
ENDBRANCH  13  15
ENDBRANCH  12  13
ENDBRANCH  11  12
ENDBRANCH  10  11
ENDBRANCH   9  10
ENDBRANCH   3   4
ENDBRANCH   2   3
TORSDOF 11
ENDMDL
MODEL      337
REMARK 921   NORMALIZED FREE ENERGY PREDICTED BY IDOCK:   -3.47 KCAL/MOL
REMARK 922        TOTAL FREE ENERGY PREDICTED BY IDOCK:   -6.95 KCAL/MOL
REMARK 923 INTER-LIGAND FREE ENERGY PREDICTED BY IDOCK:   -6.26 KCAL/MOL
REMARK 924 INTRA-LIGAND FREE ENERGY PREDICTED BY IDOCK:   -0.69 KCAL/MOL
REMARK 927      BINDING AFFINITY PREDICTED BY RF-SCORE:    0.00 PKD
ROOT
HETATM    1  C   UNL     1      -6.611  11.690  68.560  1.00  0.00    -0.061 C  
HETATM    2  C   UNL     1      -8.116  11.570  68.748  1.00  0.00    -0.093 C  
ENDROOT
BRANCH   2   3
HETATM    3  O   UNL     1      -8.692  11.905  67.491  1.00  0.00    -0.151 OA 
BRANCH   3   4
HETATM    4  C   UNL     1      -9.576  12.934  67.379  1.00  0.00    -0.203 A  
HETATM    5  C   UNL     1      -9.229  14.195  66.873  1.00  0.00    -0.270 A  
HETATM    6  C   UNL     1     -10.170  15.226  66.806  1.00  0.00    -0.273 A  
HETATM    7  C   UNL     1     -11.475  15.008  67.244  1.00  0.00    -0.312 A  
HETATM    8  C   UNL     1     -11.835  13.755  67.738  1.00  0.00    -0.404 A  
HETATM    9  C   UNL     1     -10.902  12.709  67.806  1.00  0.00    -0.221 A  
BRANCH   9  10
HETATM   10  O   UNL     1     -11.451  11.551  68.308  1.00  0.00    -0.250 OA 
BRANCH  10  11
HETATM   11  C   UNL     1     -11.874  11.544  69.670  1.00  0.00    -0.354 C  
BRANCH  11  12
HETATM   12  C   UNL     1     -11.241  10.353  70.402  1.00  0.00    -0.321 C  
BRANCH  12  13
HETATM   13  N   UNL     1     -12.170   9.281  70.793  1.00  0.00    -0.470 NA 
HETATM   14  H   UNL     1     -12.632   8.901  69.966  1.00  0.00     0.000 HD 
BRANCH  13  15
HETATM   15  C   UNL     1     -11.582   8.188  71.590  1.00  0.00    -0.279 C  
HETATM   16  C   UNL     1     -10.056   8.347  71.515  1.00  0.00    -0.293 C  
BRANCH  15  17
HETATM   17  C   UNL     1     -12.024   6.770  71.127  1.00  0.00    -0.421 C  
BRANCH  17  18
HETATM   18  C   UNL     1     -11.210   6.286  69.948  1.00  0.00    -0.498 A  
HETATM   19  C   UNL     1     -10.293   5.244  70.123  1.00  0.00    -0.354 A  
HETATM   20  C   UNL     1      -9.371   4.938  69.114  1.00  0.00    -0.128 A  
HETATM   21  C   UNL     1      -9.425   5.591  67.875  1.00  0.00    -0.116 A  
HETATM   22  C   UNL     1     -11.277   6.929  68.710  1.00  0.00    -0.095 A  
HETATM   23  C   UNL     1     -10.406   6.569  67.676  1.00  0.00    -0.239 A  
BRANCH  20  24
HETATM   24  S   UNL     1      -8.036   3.809  69.430  1.00  0.00    -0.053 S  
HETATM   25  O   UNL     1      -6.807   4.566  69.461  1.00  0.00    -0.043 OA 
HETATM   26  N   UNL     1      -8.275   3.293  71.011  1.00  0.00    -0.061 N  
HETATM   27  O   UNL     1      -8.234   2.625  68.625  1.00  0.00    -0.058 OA 
HETATM   28  H1  UNL     1      -7.509   2.645  71.193  1.00  0.00     0.000 HD 
HETATM   29  H2  UNL     1      -9.021   3.568  71.650  1.00  0.00     0.000 HD 
ENDBRANCH  20  24
BRANCH  21  30
HETATM   30  O   UNL     1      -8.502   5.227  66.935  1.00  0.00    -0.108 OA 
HETATM   31  C   UNL     1      -8.211   6.147  65.891  1.00  0.00    -0.131 C  
ENDBRANCH  21  30
ENDBRANCH  17  18
ENDBRANCH  15  17
ENDBRANCH  13  15
ENDBRANCH  12  13
ENDBRANCH  11  12
ENDBRANCH  10  11
ENDBRANCH   9  10
ENDBRANCH   3   4
ENDBRANCH   2   3
TORSDOF 11
ENDMDL
MODEL      338
REMARK 921   NORMALIZED FREE ENERGY PREDICTED BY IDOCK:   -3.43 KCAL/MOL
REMARK 922        TOTAL FREE ENERGY PREDICTED BY IDOCK:   -6.89 KCAL/MOL
REMARK 923 INTER-LIGAND FREE ENERGY PREDICTED BY IDOCK:   -6.39 KCAL/MOL
REMARK 924 INTRA-LIGAND FREE ENERGY PREDICTED BY IDOCK:   -0.50 KCAL/MOL
REMARK 927      BINDING AFFINITY PREDICTED BY RF-SCORE:    0.00 PKD
ROOT
HETATM    1  C   UNL     1     -10.576  15.852  65.115  1.00  0.00    -0.421 C  
HETATM    2  C   UNL     1     -11.197  14.606  65.729  1.00  0.00    -0.336 C  
ENDROOT
BRANCH   2   3
HETATM    3  O   UNL     1     -11.129  14.792  67.138  1.00  0.00    -0.314 OA 
BRANCH   3   4
HETATM    4  C   UNL     1      -9.929  14.911  67.771  1.00  0.00    -0.222 A  
HETATM    5  C   UNL     1      -9.542  16.059  68.477  1.00  0.00    -0.215 A  
HETATM    6  C   UNL     1      -8.287  16.139  69.085  1.00  0.00    -0.230 A  
HETATM    7  C   UNL     1      -7.400  15.068  68.997  1.00  0.00    -0.151 A  
HETATM    8  C   UNL     1      -7.778  13.916  68.309  1.00  0.00    -0.136 A  
HETATM    9  C   UNL     1      -9.038  13.820  67.697  1.00  0.00    -0.196 A  
BRANCH   9  10
HETATM   10  O   UNL     1      -9.228  12.604  67.081  1.00  0.00    -0.199 OA 
BRANCH  10  11
HETATM   11  C   UNL     1      -9.111  11.424  67.873  1.00  0.00    -0.164 C  
BRANCH  11  12
HETATM   12  C   UNL     1      -8.318  10.360  67.102  1.00  0.00    -0.126 C  
BRANCH  12  13
HETATM   13  N   UNL     1      -9.122   9.295  66.482  1.00  0.00    -0.147 NA 
HETATM   14  H   UNL     1      -9.068   9.365  65.465  1.00  0.00     0.000 HD 
BRANCH  13  15
HETATM   15  C   UNL     1      -8.798   7.921  66.911  1.00  0.00    -0.133 C  
HETATM   16  C   UNL     1     -10.097   7.104  66.821  1.00  0.00    -0.278 C  
BRANCH  15  17
HETATM   17  C   UNL     1      -8.182   7.842  68.337  1.00  0.00    -0.124 C  
BRANCH  17  18
HETATM   18  C   UNL     1      -9.095   7.122  69.304  1.00  0.00    -0.137 A  
HETATM   19  C   UNL     1     -10.164   7.812  69.888  1.00  0.00    -0.213 A  
HETATM   20  C   UNL     1     -10.875   7.242  70.952  1.00  0.00    -0.243 A  
HETATM   21  C   UNL     1     -10.604   5.933  71.371  1.00  0.00    -0.252 A  
HETATM   22  C   UNL     1      -8.833   5.813  69.709  1.00  0.00    -0.129 A  
HETATM   23  C   UNL     1      -9.596   5.216  70.719  1.00  0.00    -0.241 A  
BRANCH  20  24
HETATM   24  S   UNL     1     -12.046   8.213  71.871  1.00  0.00    -0.343 S  
HETATM   25  O   UNL     1     -12.437   9.335  71.051  1.00  0.00    -0.288 OA 
HETATM   26  N   UNL     1     -13.417   7.246  71.976  1.00  0.00    -0.546 N  
HETATM   27  O   UNL     1     -11.577   8.334  73.232  1.00  0.00    -0.085 OA 
HETATM   28  H1  UNL     1     -14.088   7.803  72.503  1.00  0.00     0.000 HD 
HETATM   29  H2  UNL     1     -13.548   6.309  71.596  1.00  0.00     0.000 HD 
ENDBRANCH  20  24
BRANCH  21  30
HETATM   30  O   UNL     1     -11.352   5.441  72.404  1.00  0.00    -0.244 OA 
HETATM   31  C   UNL     1     -10.671   4.803  73.477  1.00  0.00    -0.273 C  
ENDBRANCH  21  30
ENDBRANCH  17  18
ENDBRANCH  15  17
ENDBRANCH  13  15
ENDBRANCH  12  13
ENDBRANCH  11  12
ENDBRANCH  10  11
ENDBRANCH   9  10
ENDBRANCH   3   4
ENDBRANCH   2   3
TORSDOF 11
ENDMDL
MODEL      339
REMARK 921   NORMALIZED FREE ENERGY PREDICTED BY IDOCK:   -3.43 KCAL/MOL
REMARK 922        TOTAL FREE ENERGY PREDICTED BY IDOCK:   -6.88 KCAL/MOL
REMARK 923 INTER-LIGAND FREE ENERGY PREDICTED BY IDOCK:   -5.14 KCAL/MOL
REMARK 924 INTRA-LIGAND FREE ENERGY PREDICTED BY IDOCK:   -1.73 KCAL/MOL
REMARK 927      BINDING AFFINITY PREDICTED BY RF-SCORE:    0.00 PKD
ROOT
HETATM    1  C   UNL     1      -6.303  10.221  63.205  1.00  0.00    -0.128 C  
HETATM    2  C   UNL     1      -5.948   9.279  64.346  1.00  0.00    -0.071 C  
ENDROOT
BRANCH   2   3
HETATM    3  O   UNL     1      -7.015   9.383  65.281  1.00  0.00    -0.086 OA 
BRANCH   3   4
HETATM    4  C   UNL     1      -7.547   8.271  65.862  1.00  0.00    -0.082 A  
HETATM    5  C   UNL     1      -6.799   7.120  66.146  1.00  0.00    -0.057 A  
HETATM    6  C   UNL     1      -7.401   5.997  66.718  1.00  0.00    -0.079 A  
HETATM    7  C   UNL     1      -8.762   6.010  67.015  1.00  0.00    -0.110 A  
HETATM    8  C   UNL     1      -9.514   7.153  66.749  1.00  0.00    -0.214 A  
HETATM    9  C   UNL     1      -8.921   8.292  66.179  1.00  0.00    -0.181 A  
BRANCH   9  10
HETATM   10  O   UNL     1      -9.822   9.318  66.006  1.00  0.00    -0.277 OA 
BRANCH  10  11
HETATM   11  C   UNL     1     -10.906   9.422  66.927  1.00  0.00     0.015 C  
BRANCH  11  12
HETATM   12  C   UNL     1     -10.862  10.788  67.625  1.00  0.00    -0.279 C  
BRANCH  12  13
HETATM   13  N   UNL     1     -11.916  11.024  68.625  1.00  0.00    -0.672 NA 
HETATM   14  H   UNL     1     -12.835  10.932  68.191  1.00  0.00     0.000 HD 
BRANCH  13  15
HETATM   15  C   UNL     1     -11.843  10.184  69.836  1.00  0.00    -0.135 C  
HETATM   16  C   UNL     1     -12.552  10.955  70.960  1.00  0.00    -0.517 C  
BRANCH  15  17
HETATM   17  C   UNL     1     -10.392   9.802  70.244  1.00  0.00    -0.348 C  
BRANCH  17  18
HETATM   18  C   UNL     1     -10.261   8.322  70.530  1.00  0.00    -0.213 A  
HETATM   19  C   UNL     1      -9.165   7.855  71.264  1.00  0.00    -0.170 A  
HETATM   20  C   UNL     1      -8.901   6.481  71.340  1.00  0.00    -0.137 A  
HETATM   21  C   UNL     1      -9.788   5.551  70.783  1.00  0.00    -0.188 A  
HETATM   22  C   UNL     1     -11.155   7.399  69.986  1.00  0.00    -0.238 A  
HETATM   23  C   UNL     1     -10.932   6.025  70.131  1.00  0.00    -0.429 A  
BRANCH  20  24
HETATM   24  S   UNL     1      -7.372   5.899  72.034  1.00  0.00    -0.095 S  
HETATM   25  O   UNL     1      -6.774   6.986  72.773  1.00  0.00    -0.067 OA 
HETATM   26  N   UNL     1      -7.829   4.776  73.198  1.00  0.00    -0.095 N  
HETATM   27  O   UNL     1      -6.676   5.126  71.032  1.00  0.00    -0.037 OA 
HETATM   28  H1  UNL     1      -6.952   4.442  73.597  1.00  0.00     0.000 HD 
HETATM   29  H2  UNL     1      -8.775   4.492  73.452  1.00  0.00     0.000 HD 
ENDBRANCH  20  24
BRANCH  21  30
HETATM   30  O   UNL     1      -9.470   4.228  70.913  1.00  0.00    -0.141 OA 
HETATM   31  C   UNL     1      -9.619   3.390  69.775  1.00  0.00    -0.110 C  
ENDBRANCH  21  30
ENDBRANCH  17  18
ENDBRANCH  15  17
ENDBRANCH  13  15
ENDBRANCH  12  13
ENDBRANCH  11  12
ENDBRANCH  10  11
ENDBRANCH   9  10
ENDBRANCH   3   4
ENDBRANCH   2   3
TORSDOF 11
ENDMDL
MODEL      340
REMARK 921   NORMALIZED FREE ENERGY PREDICTED BY IDOCK:   -3.42 KCAL/MOL
REMARK 922        TOTAL FREE ENERGY PREDICTED BY IDOCK:   -6.87 KCAL/MOL
REMARK 923 INTER-LIGAND FREE ENERGY PREDICTED BY IDOCK:   -6.74 KCAL/MOL
REMARK 924 INTRA-LIGAND FREE ENERGY PREDICTED BY IDOCK:   -0.12 KCAL/MOL
REMARK 927      BINDING AFFINITY PREDICTED BY RF-SCORE:    0.00 PKD
ROOT
HETATM    1  C   UNL     1     -11.640  14.753  69.962  1.00  0.00    -0.332 C  
HETATM    2  C   UNL     1     -11.539  16.264  69.829  1.00  0.00    -0.135 C  
ENDROOT
BRANCH   2   3
HETATM    3  O   UNL     1     -10.310  16.514  69.158  1.00  0.00    -0.276 OA 
BRANCH   3   4
HETATM    4  C   UNL     1     -10.140  17.633  68.402  1.00  0.00    -0.368 A  
HETATM    5  C   UNL     1      -9.701  18.857  68.928  1.00  0.00    -0.420 A  
HETATM    6  C   UNL     1      -9.570  19.983  68.112  1.00  0.00    -0.423 A  
HETATM    7  C   UNL     1      -9.875  19.900  66.755  1.00  0.00    -0.550 A  
HETATM    8  C   UNL     1     -10.299  18.686  66.217  1.00  0.00    -0.483 A  
HETATM    9  C   UNL     1     -10.430  17.545  67.024  1.00  0.00    -0.293 A  
BRANCH   9  10
HETATM   10  O   UNL     1     -10.847  16.445  66.310  1.00  0.00    -0.210 OA 
BRANCH  10  11
HETATM   11  C   UNL     1      -9.850  15.590  65.751  1.00  0.00    -0.357 C  
BRANCH  11  12
HETATM   12  C   UNL     1     -10.468  14.226  65.417  1.00  0.00    -0.365 C  
BRANCH  12  13
HETATM   13  N   UNL     1     -10.236  13.164  66.409  1.00  0.00    -0.279 NA 
HETATM   14  H   UNL     1     -10.146  13.570  67.340  1.00  0.00     0.000 HD 
BRANCH  13  15
HETATM   15  C   UNL     1     -11.235  12.079  66.425  1.00  0.00    -0.337 C  
HETATM   16  C   UNL     1     -11.605  11.830  67.896  1.00  0.00    -0.377 C  
BRANCH  15  17
HETATM   17  C   UNL     1     -10.748  10.771  65.739  1.00  0.00    -0.141 C  
BRANCH  17  18
HETATM   18  C   UNL     1      -9.898   9.933  66.668  1.00  0.00    -0.265 A  
HETATM   19  C   UNL     1      -9.004  10.562  67.542  1.00  0.00    -0.137 A  
HETATM   20  C   UNL     1      -8.049   9.809  68.238  1.00  0.00    -0.104 A  
HETATM   21  C   UNL     1      -8.048   8.410  68.159  1.00  0.00    -0.120 A  
HETATM   22  C   UNL     1      -9.909   8.539  66.599  1.00  0.00    -0.342 A  
HETATM   23  C   UNL     1      -9.005   7.784  67.355  1.00  0.00    -0.128 A  
BRANCH  20  24
HETATM   24  S   UNL     1      -6.745  10.619  69.132  1.00  0.00    -0.083 S  
HETATM   25  O   UNL     1      -7.196  11.947  69.475  1.00  0.00     0.034 OA 
HETATM   26  N   UNL     1      -6.652   9.796  70.595  1.00  0.00    -0.113 N  
HETATM   27  O   UNL     1      -5.491  10.339  68.473  1.00  0.00    -0.039 OA 
HETATM   28  H1  UNL     1      -5.904  10.261  71.108  1.00  0.00     0.000 HD 
HETATM   29  H2  UNL     1      -7.218   9.006  70.902  1.00  0.00     0.000 HD 
ENDBRANCH  20  24
BRANCH  21  30
HETATM   30  O   UNL     1      -7.096   7.744  68.880  1.00  0.00    -0.071 OA 
HETATM   31  C   UNL     1      -6.320   6.758  68.212  1.00  0.00    -0.031 C  
ENDBRANCH  21  30
ENDBRANCH  17  18
ENDBRANCH  15  17
ENDBRANCH  13  15
ENDBRANCH  12  13
ENDBRANCH  11  12
ENDBRANCH  10  11
ENDBRANCH   9  10
ENDBRANCH   3   4
ENDBRANCH   2   3
TORSDOF 11
ENDMDL
MODEL      341
REMARK 921   NORMALIZED FREE ENERGY PREDICTED BY IDOCK:   -3.42 KCAL/MOL
REMARK 922        TOTAL FREE ENERGY PREDICTED BY IDOCK:   -6.86 KCAL/MOL
REMARK 923 INTER-LIGAND FREE ENERGY PREDICTED BY IDOCK:   -6.10 KCAL/MOL
REMARK 924 INTRA-LIGAND FREE ENERGY PREDICTED BY IDOCK:   -0.76 KCAL/MOL
REMARK 927      BINDING AFFINITY PREDICTED BY RF-SCORE:    0.00 PKD
ROOT
HETATM    1  C   UNL     1      -7.263   9.707  70.303  1.00  0.00    -0.137 C  
HETATM    2  C   UNL     1      -8.243   8.573  70.046  1.00  0.00    -0.121 C  
ENDROOT
BRANCH   2   3
HETATM    3  O   UNL     1      -9.315   9.146  69.308  1.00  0.00    -0.152 OA 
BRANCH   3   4
HETATM    4  C   UNL     1     -10.427   9.615  69.939  1.00  0.00    -0.253 A  
HETATM    5  C   UNL     1     -10.830   9.181  71.210  1.00  0.00    -0.402 A  
HETATM    6  C   UNL     1     -11.995   9.676  71.801  1.00  0.00    -0.421 A  
HETATM    7  C   UNL     1     -12.773  10.616  71.129  1.00  0.00    -0.522 A  
HETATM    8  C   UNL     1     -12.376  11.065  69.870  1.00  0.00    -0.356 A  
HETATM    9  C   UNL     1     -11.205  10.581  69.266  1.00  0.00    -0.262 A  
BRANCH   9  10
HETATM   10  O   UNL     1     -10.976  11.153  68.036  1.00  0.00    -0.214 OA 
BRANCH  10  11
HETATM   11  C   UNL     1      -9.744  11.844  67.835  1.00  0.00    -0.192 C  
BRANCH  11  12
HETATM   12  C   UNL     1      -9.312  11.713  66.368  1.00  0.00    -0.213 C  
BRANCH  12  13
HETATM   13  N   UNL     1      -7.859  11.673  66.136  1.00  0.00    -0.375 NA 
HETATM   14  H   UNL     1      -7.362  11.908  66.996  1.00  0.00     0.000 HD 
BRANCH  13  15
HETATM   15  C   UNL     1      -7.338  10.408  65.583  1.00  0.00    -0.148 C  
HETATM   16  C   UNL     1      -8.323   9.954  64.494  1.00  0.00    -0.168 C  
BRANCH  15  17
HETATM   17  C   UNL     1      -7.129   9.298  66.651  1.00  0.00    -0.082 C  
BRANCH  17  18
HETATM   18  C   UNL     1      -7.436   7.923  66.100  1.00  0.00    -0.079 A  
HETATM   19  C   UNL     1      -8.678   7.335  66.363  1.00  0.00    -0.152 A  
HETATM   20  C   UNL     1      -8.897   5.984  66.065  1.00  0.00    -0.153 A  
HETATM   21  C   UNL     1      -7.920   5.233  65.397  1.00  0.00    -0.108 A  
HETATM   22  C   UNL     1      -6.467   7.183  65.420  1.00  0.00    -0.047 A  
HETATM   23  C   UNL     1      -6.716   5.856  65.053  1.00  0.00    -0.043 A  
BRANCH  20  24
HETATM   24  S   UNL     1     -10.364   5.163  66.641  1.00  0.00    -0.276 S  
HETATM   25  O   UNL     1     -10.000   4.337  67.768  1.00  0.00    -0.116 OA 
HETATM   26  N   UNL     1     -11.317   6.389  67.285  1.00  0.00    -0.731 N  
HETATM   27  O   UNL     1     -11.104   4.685  65.497  1.00  0.00    -0.200 OA 
HETATM   28  H1  UNL     1     -12.158   5.918  67.615  1.00  0.00     0.000 HD 
HETATM   29  H2  UNL     1     -11.101   7.385  67.334  1.00  0.00     0.000 HD 
ENDBRANCH  20  24
BRANCH  21  30
HETATM   30  O   UNL     1      -8.213   3.926  65.126  1.00  0.00    -0.100 OA 
HETATM   31  C   UNL     1      -7.657   2.927  65.970  1.00  0.00    -0.077 C  
ENDBRANCH  21  30
ENDBRANCH  17  18
ENDBRANCH  15  17
ENDBRANCH  13  15
ENDBRANCH  12  13
ENDBRANCH  11  12
ENDBRANCH  10  11
ENDBRANCH   9  10
ENDBRANCH   3   4
ENDBRANCH   2   3
TORSDOF 11
ENDMDL
MODEL      342
REMARK 921   NORMALIZED FREE ENERGY PREDICTED BY IDOCK:   -3.32 KCAL/MOL
REMARK 922        TOTAL FREE ENERGY PREDICTED BY IDOCK:   -6.71 KCAL/MOL
REMARK 923 INTER-LIGAND FREE ENERGY PREDICTED BY IDOCK:   -6.40 KCAL/MOL
REMARK 924 INTRA-LIGAND FREE ENERGY PREDICTED BY IDOCK:   -0.31 KCAL/MOL
REMARK 927      BINDING AFFINITY PREDICTED BY RF-SCORE:    0.00 PKD
ROOT
HETATM    1  C   UNL     1     -10.197  18.832  66.999  1.00  0.00    -0.426 C  
HETATM    2  C   UNL     1     -10.868  17.562  67.499  1.00  0.00    -0.203 C  
ENDROOT
BRANCH   2   3
HETATM    3  O   UNL     1     -10.022  16.492  67.097  1.00  0.00    -0.254 OA 
BRANCH   3   4
HETATM    4  C   UNL     1     -10.538  15.369  66.524  1.00  0.00    -0.306 A  
HETATM    5  C   UNL     1     -10.839  15.272  65.159  1.00  0.00    -0.441 A  
HETATM    6  C   UNL     1     -11.393  14.104  64.627  1.00  0.00    -0.374 A  
HETATM    7  C   UNL     1     -11.652  13.015  65.457  1.00  0.00    -0.382 A  
HETATM    8  C   UNL     1     -11.345  13.095  66.814  1.00  0.00    -0.353 A  
HETATM    9  C   UNL     1     -10.783  14.260  67.361  1.00  0.00    -0.282 A  
BRANCH   9  10
HETATM   10  O   UNL     1     -10.540  14.139  68.710  1.00  0.00    -0.245 OA 
BRANCH  10  11
HETATM   11  C   UNL     1      -9.270  14.559  69.205  1.00  0.00     0.023 C  
BRANCH  11  12
HETATM   12  C   UNL     1      -8.156  13.766  68.508  1.00  0.00    -0.128 C  
BRANCH  12  13
HETATM   13  N   UNL     1      -8.036  12.355  68.911  1.00  0.00    -0.335 NA 
HETATM   14  H   UNL     1      -8.960  11.966  69.097  1.00  0.00     0.000 HD 
BRANCH  13  15
HETATM   15  C   UNL     1      -7.301  11.486  67.971  1.00  0.00    -0.091 C  
HETATM   16  C   UNL     1      -8.172  11.347  66.713  1.00  0.00    -0.160 C  
BRANCH  15  17
HETATM   17  C   UNL     1      -6.940  10.094  68.562  1.00  0.00    -0.069 C  
BRANCH  17  18
HETATM   18  C   UNL     1      -7.807   9.747  69.752  1.00  0.00    -0.159 A  
HETATM   19  C   UNL     1      -7.207   9.329  70.945  1.00  0.00    -0.113 A  
HETATM   20  C   UNL     1      -7.986   8.784  71.974  1.00  0.00     0.014 A  
HETATM   21  C   UNL     1      -9.383   8.754  71.872  1.00  0.00    -0.273 A  
HETATM   22  C   UNL     1      -9.199   9.733  69.653  1.00  0.00    -0.239 A  
HETATM   23  C   UNL     1      -9.981   9.261  70.713  1.00  0.00    -0.357 A  
BRANCH  20  24
HETATM   24  S   UNL     1      -7.212   8.006  73.371  1.00  0.00    -0.135 S  
HETATM   25  O   UNL     1      -7.457   6.585  73.284  1.00  0.00    -0.085 OA 
HETATM   26  N   UNL     1      -5.562   8.184  73.102  1.00  0.00    -0.047 N  
HETATM   27  O   UNL     1      -7.479   8.799  74.548  1.00  0.00    -0.396 OA 
HETATM   28  H1  UNL     1      -5.117   7.737  73.903  1.00  0.00     0.000 HD 
HETATM   29  H2  UNL     1      -5.106   8.638  72.311  1.00  0.00     0.000 HD 
ENDBRANCH  20  24
BRANCH  21  30
HETATM   30  O   UNL     1     -10.076   8.223  72.924  1.00  0.00    -0.294 OA 
HETATM   31  C   UNL     1     -10.947   7.129  72.667  1.00  0.00    -0.288 C  
ENDBRANCH  21  30
ENDBRANCH  17  18
ENDBRANCH  15  17
ENDBRANCH  13  15
ENDBRANCH  12  13
ENDBRANCH  11  12
ENDBRANCH  10  11
ENDBRANCH   9  10
ENDBRANCH   3   4
ENDBRANCH   2   3
TORSDOF 11
ENDMDL
MODEL      343
REMARK 921   NORMALIZED FREE ENERGY PREDICTED BY IDOCK:   -3.30 KCAL/MOL
REMARK 922        TOTAL FREE ENERGY PREDICTED BY IDOCK:   -6.67 KCAL/MOL
REMARK 923 INTER-LIGAND FREE ENERGY PREDICTED BY IDOCK:   -6.18 KCAL/MOL
REMARK 924 INTRA-LIGAND FREE ENERGY PREDICTED BY IDOCK:   -0.49 KCAL/MOL
REMARK 927      BINDING AFFINITY PREDICTED BY RF-SCORE:    0.00 PKD
ROOT
HETATM    1  C   UNL     1      -7.192   7.270  72.470  1.00  0.00    -0.071 C  
HETATM    2  C   UNL     1      -7.940   6.966  73.759  1.00  0.00    -0.108 C  
ENDROOT
BRANCH   2   3
HETATM    3  O   UNL     1      -9.193   6.421  73.361  1.00  0.00    -0.131 OA 
BRANCH   3   4
HETATM    4  C   UNL     1      -9.480   5.106  73.566  1.00  0.00    -0.133 A  
HETATM    5  C   UNL     1      -8.537   4.176  74.027  1.00  0.00    -0.097 A  
HETATM    6  C   UNL     1      -8.878   2.831  74.195  1.00  0.00    -0.078 A  
HETATM    7  C   UNL     1     -10.170   2.398  73.905  1.00  0.00    -0.184 A  
HETATM    8  C   UNL     1     -11.120   3.315  73.458  1.00  0.00    -0.314 A  
HETATM    9  C   UNL     1     -10.793   4.670  73.290  1.00  0.00    -0.272 A  
BRANCH   9  10
HETATM   10  O   UNL     1     -11.865   5.416  72.856  1.00  0.00    -0.263 OA 
BRANCH  10  11
HETATM   11  C   UNL     1     -11.721   6.158  71.645  1.00  0.00    -0.228 C  
BRANCH  11  12
HETATM   12  C   UNL     1     -12.849   7.192  71.536  1.00  0.00    -0.391 C  
BRANCH  12  13
HETATM   13  N   UNL     1     -12.510   8.427  70.810  1.00  0.00    -0.489 NA 
HETATM   14  H   UNL     1     -13.349   8.826  70.389  1.00  0.00     0.000 HD 
BRANCH  13  15
HETATM   15  C   UNL     1     -11.803   9.454  71.598  1.00  0.00    -0.394 C  
HETATM   16  C   UNL     1     -12.281  10.822  71.085  1.00  0.00    -0.457 C  
BRANCH  15  17
HETATM   17  C   UNL     1     -10.254   9.338  71.530  1.00  0.00    -0.338 C  
BRANCH  17  18
HETATM   18  C   UNL     1      -9.751   9.365  70.104  1.00  0.00    -0.274 A  
HETATM   19  C   UNL     1      -9.822  10.553  69.369  1.00  0.00    -0.205 A  
HETATM   20  C   UNL     1      -9.583  10.545  67.989  1.00  0.00    -0.148 A  
HETATM   21  C   UNL     1      -9.158   9.375  67.345  1.00  0.00    -0.126 A  
HETATM   22  C   UNL     1      -9.314   8.201  69.469  1.00  0.00    -0.155 A  
HETATM   23  C   UNL     1      -9.000   8.212  68.105  1.00  0.00    -0.135 A  
BRANCH  20  24
HETATM   24  S   UNL     1      -9.934  11.985  67.008  1.00  0.00    -0.205 S  
HETATM   25  O   UNL     1     -11.043  11.673  66.138  1.00  0.00    -0.301 OA 
HETATM   26  N   UNL     1     -10.537  13.111  68.100  1.00  0.00    -0.238 N  
HETATM   27  O   UNL     1      -8.685  12.548  66.552  1.00  0.00    -0.150 OA 
HETATM   28  H1  UNL     1     -10.739  13.937  67.538  1.00  0.00     0.000 HD 
HETATM   29  H2  UNL     1     -10.672  12.995  69.105  1.00  0.00     0.000 HD 
ENDBRANCH  20  24
BRANCH  21  30
HETATM   30  O   UNL     1      -8.929   9.451  65.999  1.00  0.00    -0.149 OA 
HETATM   31  C   UNL     1      -8.233   8.378  65.378  1.00  0.00    -0.144 C  
ENDBRANCH  21  30
ENDBRANCH  17  18
ENDBRANCH  15  17
ENDBRANCH  13  15
ENDBRANCH  12  13
ENDBRANCH  11  12
ENDBRANCH  10  11
ENDBRANCH   9  10
ENDBRANCH   3   4
ENDBRANCH   2   3
TORSDOF 11
ENDMDL
MODEL      344
REMARK 921   NORMALIZED FREE ENERGY PREDICTED BY IDOCK:   -3.29 KCAL/MOL
REMARK 922        TOTAL FREE ENERGY PREDICTED BY IDOCK:   -6.65 KCAL/MOL
REMARK 923 INTER-LIGAND FREE ENERGY PREDICTED BY IDOCK:   -5.89 KCAL/MOL
REMARK 924 INTRA-LIGAND FREE ENERGY PREDICTED BY IDOCK:   -0.77 KCAL/MOL
REMARK 927      BINDING AFFINITY PREDICTED BY RF-SCORE:    0.00 PKD
ROOT
HETATM    1  C   UNL     1     -10.883   6.821  67.315  1.00  0.00    -0.443 C  
HETATM    2  C   UNL     1      -9.521   6.450  67.881  1.00  0.00    -0.115 C  
ENDROOT
BRANCH   2   3
HETATM    3  O   UNL     1      -9.729   6.209  69.267  1.00  0.00    -0.134 OA 
BRANCH   3   4
HETATM    4  C   UNL     1     -10.437   7.086  70.031  1.00  0.00    -0.215 A  
HETATM    5  C   UNL     1     -11.658   6.764  70.640  1.00  0.00    -0.422 A  
HETATM    6  C   UNL     1     -12.357   7.712  71.391  1.00  0.00    -0.358 A  
HETATM    7  C   UNL     1     -11.842   8.997  71.545  1.00  0.00    -0.415 A  
HETATM    8  C   UNL     1     -10.623   9.326  70.955  1.00  0.00    -0.386 A  
HETATM    9  C   UNL     1      -9.906   8.382  70.202  1.00  0.00    -0.181 A  
BRANCH   9  10
HETATM   10  O   UNL     1      -8.725   8.892  69.715  1.00  0.00    -0.129 OA 
BRANCH  10  11
HETATM   11  C   UNL     1      -8.549  10.307  69.722  1.00  0.00    -0.056 C  
BRANCH  11  12
HETATM   12  C   UNL     1      -7.053  10.643  69.787  1.00  0.00    -0.139 C  
BRANCH  12  13
HETATM   13  N   UNL     1      -6.327  10.552  68.510  1.00  0.00    -0.050 NA 
HETATM   14  H   UNL     1      -6.684   9.770  67.960  1.00  0.00     0.000 HD 
BRANCH  13  15
HETATM   15  C   UNL     1      -6.320  11.781  67.694  1.00  0.00    -0.082 C  
HETATM   16  C   UNL     1      -5.355  11.538  66.523  1.00  0.00    -0.111 C  
BRANCH  15  17
HETATM   17  C   UNL     1      -5.927  13.058  68.491  1.00  0.00    -0.075 C  
BRANCH  17  18
HETATM   18  C   UNL     1      -6.902  14.190  68.254  1.00  0.00    -0.107 A  
HETATM   19  C   UNL     1      -6.520  15.274  67.456  1.00  0.00    -0.158 A  
HETATM   20  C   UNL     1      -7.309  16.431  67.412  1.00  0.00    -0.155 A  
HETATM   21  C   UNL     1      -8.544  16.478  68.073  1.00  0.00    -0.184 A  
HETATM   22  C   UNL     1      -8.138  14.227  68.901  1.00  0.00    -0.063 A  
HETATM   23  C   UNL     1      -8.961  15.354  68.793  1.00  0.00    -0.196 A  
BRANCH  20  24
HETATM   24  S   UNL     1      -6.701  17.903  66.625  1.00  0.00    -0.221 S  
HETATM   25  O   UNL     1      -7.586  18.222  65.529  1.00  0.00    -0.518 OA 
HETATM   26  N   UNL     1      -6.941  19.125  67.754  1.00  0.00    -0.224 N  
HETATM   27  O   UNL     1      -5.266  17.798  66.498  1.00  0.00    -0.134 OA 
HETATM   28  H1  UNL     1      -6.593  19.969  67.302  1.00  0.00     0.000 HD 
HETATM   29  H2  UNL     1      -7.347  19.040  68.686  1.00  0.00     0.000 HD 
ENDBRANCH  20  24
BRANCH  21  30
HETATM   30  O   UNL     1      -9.264  17.635  67.970  1.00  0.00    -0.258 OA 
HETATM   31  C   UNL     1     -10.640  17.539  67.627  1.00  0.00    -0.355 C  
ENDBRANCH  21  30
ENDBRANCH  17  18
ENDBRANCH  15  17
ENDBRANCH  13  15
ENDBRANCH  12  13
ENDBRANCH  11  12
ENDBRANCH  10  11
ENDBRANCH   9  10
ENDBRANCH   3   4
ENDBRANCH   2   3
TORSDOF 11
ENDMDL
MODEL      345
REMARK 921   NORMALIZED FREE ENERGY PREDICTED BY IDOCK:   -3.29 KCAL/MOL
REMARK 922        TOTAL FREE ENERGY PREDICTED BY IDOCK:   -6.65 KCAL/MOL
REMARK 923 INTER-LIGAND FREE ENERGY PREDICTED BY IDOCK:   -6.11 KCAL/MOL
REMARK 924 INTRA-LIGAND FREE ENERGY PREDICTED BY IDOCK:   -0.55 KCAL/MOL
REMARK 927      BINDING AFFINITY PREDICTED BY RF-SCORE:    0.00 PKD
ROOT
HETATM    1  C   UNL     1      -7.194   6.049  71.898  1.00  0.00    -0.092 C  
HETATM    2  C   UNL     1      -7.325   6.224  70.393  1.00  0.00    -0.089 C  
ENDROOT
BRANCH   2   3
HETATM    3  O   UNL     1      -8.647   5.811  70.068  1.00  0.00    -0.124 OA 
BRANCH   3   4
HETATM    4  C   UNL     1      -8.865   4.784  69.200  1.00  0.00    -0.092 A  
HETATM    5  C   UNL     1      -9.153   3.476  69.613  1.00  0.00    -0.204 A  
HETATM    6  C   UNL     1      -9.342   2.454  68.680  1.00  0.00    -0.244 A  
HETATM    7  C   UNL     1      -9.247   2.727  67.317  1.00  0.00    -0.191 A  
HETATM    8  C   UNL     1      -8.973   4.027  66.893  1.00  0.00    -0.141 A  
HETATM    9  C   UNL     1      -8.787   5.065  67.820  1.00  0.00    -0.103 A  
BRANCH   9  10
HETATM   10  O   UNL     1      -8.541   6.273  67.207  1.00  0.00    -0.108 OA 
BRANCH  10  11
HETATM   11  C   UNL     1      -8.209   6.268  65.820  1.00  0.00    -0.136 C  
BRANCH  11  12
HETATM   12  C   UNL     1      -7.304   7.465  65.501  1.00  0.00    -0.074 C  
BRANCH  12  13
HETATM   13  N   UNL     1      -7.389   7.975  64.123  1.00  0.00    -0.090 NA 
HETATM   14  H   UNL     1      -8.089   7.449  63.599  1.00  0.00     0.000 HD 
BRANCH  13  15
HETATM   15  C   UNL     1      -7.645   9.422  63.994  1.00  0.00    -0.115 C  
HETATM   16  C   UNL     1      -7.231  10.072  65.324  1.00  0.00    -0.137 C  
BRANCH  15  17
HETATM   17  C   UNL     1      -9.119   9.766  63.636  1.00  0.00    -0.269 C  
BRANCH  17  18
HETATM   18  C   UNL     1      -9.859  10.360  64.813  1.00  0.00    -0.406 A  
HETATM   19  C   UNL     1     -10.242  11.705  64.781  1.00  0.00    -0.321 A  
HETATM   20  C   UNL     1     -10.716  12.333  65.941  1.00  0.00    -0.258 A  
HETATM   21  C   UNL     1     -10.922  11.598  67.116  1.00  0.00    -0.280 A  
HETATM   22  C   UNL     1     -10.077   9.621  65.978  1.00  0.00    -0.318 A  
HETATM   23  C   UNL     1     -10.624  10.231  67.112  1.00  0.00    -0.320 A  
BRANCH  20  24
HETATM   24  S   UNL     1     -10.944  14.094  65.980  1.00  0.00    -0.310 S  
HETATM   25  O   UNL     1     -10.943  14.575  64.618  1.00  0.00    -0.382 OA 
HETATM   26  N   UNL     1     -12.520  14.311  66.522  1.00  0.00    -0.528 N  
HETATM   27  O   UNL     1     -10.116  14.643  67.029  1.00  0.00    -0.245 OA 
HETATM   28  H1  UNL     1     -12.651  15.322  66.544  1.00  0.00     0.000 HD 
HETATM   29  H2  UNL     1     -13.197  13.591  66.773  1.00  0.00     0.000 HD 
ENDBRANCH  20  24
BRANCH  21  30
HETATM   30  O   UNL     1     -11.402  12.276  68.202  1.00  0.00    -0.251 OA 
HETATM   31  C   UNL     1     -12.067  11.533  69.215  1.00  0.00    -0.278 C  
ENDBRANCH  21  30
ENDBRANCH  17  18
ENDBRANCH  15  17
ENDBRANCH  13  15
ENDBRANCH  12  13
ENDBRANCH  11  12
ENDBRANCH  10  11
ENDBRANCH   9  10
ENDBRANCH   3   4
ENDBRANCH   2   3
TORSDOF 11
ENDMDL
MODEL      346
REMARK 921   NORMALIZED FREE ENERGY PREDICTED BY IDOCK:   -3.29 KCAL/MOL
REMARK 922        TOTAL FREE ENERGY PREDICTED BY IDOCK:   -6.64 KCAL/MOL
REMARK 923 INTER-LIGAND FREE ENERGY PREDICTED BY IDOCK:   -5.58 KCAL/MOL
REMARK 924 INTRA-LIGAND FREE ENERGY PREDICTED BY IDOCK:   -1.06 KCAL/MOL
REMARK 927      BINDING AFFINITY PREDICTED BY RF-SCORE:    0.00 PKD
ROOT
HETATM    1  C   UNL     1      -9.403  14.222  68.307  1.00  0.00    -0.208 C  
HETATM    2  C   UNL     1      -8.944  13.186  67.293  1.00  0.00    -0.216 C  
ENDROOT
BRANCH   2   3
HETATM    3  O   UNL     1     -10.102  12.430  66.959  1.00  0.00    -0.212 OA 
BRANCH   3   4
HETATM    4  C   UNL     1     -10.701  12.568  65.744  1.00  0.00    -0.269 A  
HETATM    5  C   UNL     1     -11.882  13.298  65.548  1.00  0.00    -0.405 A  
HETATM    6  C   UNL     1     -12.470  13.386  64.284  1.00  0.00    -0.321 A  
HETATM    7  C   UNL     1     -11.883  12.744  63.196  1.00  0.00    -0.314 A  
HETATM    8  C   UNL     1     -10.701  12.026  63.375  1.00  0.00    -0.475 A  
HETATM    9  C   UNL     1     -10.096  11.934  64.639  1.00  0.00    -0.269 A  
BRANCH   9  10
HETATM   10  O   UNL     1      -8.935  11.197  64.609  1.00  0.00    -0.126 OA 
BRANCH  10  11
HETATM   11  C   UNL     1      -8.984   9.889  64.041  1.00  0.00    -0.243 C  
BRANCH  11  12
HETATM   12  C   UNL     1      -8.333   8.884  65.001  1.00  0.00    -0.165 C  
BRANCH  12  13
HETATM   13  N   UNL     1      -8.168   9.346  66.388  1.00  0.00    -0.110 NA 
HETATM   14  H   UNL     1      -8.501  10.307  66.477  1.00  0.00     0.000 HD 
BRANCH  13  15
HETATM   15  C   UNL     1      -8.794   8.498  67.420  1.00  0.00    -0.134 C  
HETATM   16  C   UNL     1     -10.315   8.675  67.287  1.00  0.00    -0.366 C  
BRANCH  15  17
HETATM   17  C   UNL     1      -8.315   8.817  68.865  1.00  0.00    -0.127 C  
BRANCH  17  18
HETATM   18  C   UNL     1      -8.827   7.802  69.863  1.00  0.00    -0.142 A  
HETATM   19  C   UNL     1      -8.399   6.473  69.778  1.00  0.00    -0.127 A  
HETATM   20  C   UNL     1      -9.031   5.478  70.535  1.00  0.00    -0.136 A  
HETATM   21  C   UNL     1     -10.019   5.812  71.470  1.00  0.00    -0.180 A  
HETATM   22  C   UNL     1      -9.801   8.141  70.804  1.00  0.00    -0.201 A  
HETATM   23  C   UNL     1     -10.376   7.156  71.616  1.00  0.00    -0.215 A  
BRANCH  20  24
HETATM   24  S   UNL     1      -8.680   3.762  70.233  1.00  0.00    -0.082 S  
HETATM   25  O   UNL     1      -9.838   3.173  69.603  1.00  0.00    -0.022 OA 
HETATM   26  N   UNL     1      -7.490   3.769  69.046  1.00  0.00    -0.053 N  
HETATM   27  O   UNL     1      -8.030   3.212  71.400  1.00  0.00    -0.057 OA 
HETATM   28  H1  UNL     1      -7.290   2.785  68.873  1.00  0.00     0.000 HD 
HETATM   29  H2  UNL     1      -7.063   4.579  68.597  1.00  0.00     0.000 HD 
ENDBRANCH  20  24
BRANCH  21  30
HETATM   30  O   UNL     1     -10.577   4.788  72.183  1.00  0.00    -0.198 OA 
HETATM   31  C   UNL     1     -10.381   4.768  73.591  1.00  0.00    -0.206 C  
ENDBRANCH  21  30
ENDBRANCH  17  18
ENDBRANCH  15  17
ENDBRANCH  13  15
ENDBRANCH  12  13
ENDBRANCH  11  12
ENDBRANCH  10  11
ENDBRANCH   9  10
ENDBRANCH   3   4
ENDBRANCH   2   3
TORSDOF 11
ENDMDL
MODEL      347
REMARK 921   NORMALIZED FREE ENERGY PREDICTED BY IDOCK:   -3.29 KCAL/MOL
REMARK 922        TOTAL FREE ENERGY PREDICTED BY IDOCK:   -6.64 KCAL/MOL
REMARK 923 INTER-LIGAND FREE ENERGY PREDICTED BY IDOCK:   -5.99 KCAL/MOL
REMARK 924 INTRA-LIGAND FREE ENERGY PREDICTED BY IDOCK:   -0.65 KCAL/MOL
REMARK 927      BINDING AFFINITY PREDICTED BY RF-SCORE:    0.00 PKD
ROOT
HETATM    1  C   UNL     1      -7.279  13.332  67.835  1.00  0.00    -0.137 C  
HETATM    2  C   UNL     1      -7.991  14.592  67.366  1.00  0.00    -0.200 C  
ENDROOT
BRANCH   2   3
HETATM    3  O   UNL     1      -9.360  14.416  67.712  1.00  0.00    -0.192 OA 
BRANCH   3   4
HETATM    4  C   UNL     1     -10.324  14.367  66.751  1.00  0.00    -0.273 A  
HETATM    5  C   UNL     1     -10.264  15.110  65.564  1.00  0.00    -0.405 A  
HETATM    6  C   UNL     1     -11.295  15.043  64.623  1.00  0.00    -0.357 A  
HETATM    7  C   UNL     1     -12.400  14.228  64.857  1.00  0.00    -0.435 A  
HETATM    8  C   UNL     1     -12.465  13.474  66.027  1.00  0.00    -0.456 A  
HETATM    9  C   UNL     1     -11.434  13.527  66.979  1.00  0.00    -0.340 A  
BRANCH   9  10
HETATM   10  O   UNL     1     -11.674  12.704  68.056  1.00  0.00    -0.321 OA 
BRANCH  10  11
HETATM   11  C   UNL     1     -11.624  11.294  67.847  1.00  0.00    -0.256 C  
BRANCH  11  12
HETATM   12  C   UNL     1     -10.167  10.849  67.669  1.00  0.00    -0.183 C  
BRANCH  12  13
HETATM   13  N   UNL     1      -9.960   9.400  67.515  1.00  0.00    -0.187 NA 
HETATM   14  H   UNL     1      -9.675   9.188  66.559  1.00  0.00     0.000 HD 
BRANCH  13  15
HETATM   15  C   UNL     1      -9.017   8.787  68.470  1.00  0.00    -0.138 C  
HETATM   16  C   UNL     1      -7.724   8.487  67.696  1.00  0.00    -0.102 C  
BRANCH  15  17
HETATM   17  C   UNL     1      -9.570   7.507  69.159  1.00  0.00    -0.157 C  
BRANCH  17  18
HETATM   18  C   UNL     1      -9.725   6.365  68.180  1.00  0.00    -0.122 A  
HETATM   19  C   UNL     1      -8.771   5.343  68.154  1.00  0.00    -0.105 A  
HETATM   20  C   UNL     1      -8.765   4.407  67.111  1.00  0.00    -0.105 A  
HETATM   21  C   UNL     1      -9.779   4.411  66.144  1.00  0.00    -0.214 A  
HETATM   22  C   UNL     1     -10.745   6.363  67.227  1.00  0.00    -0.426 A  
HETATM   23  C   UNL     1     -10.783   5.381  66.230  1.00  0.00    -0.234 A  
BRANCH  20  24
HETATM   24  S   UNL     1      -7.405   3.280  66.923  1.00  0.00    -0.071 S  
HETATM   25  O   UNL     1      -6.709   3.205  68.186  1.00  0.00    -0.043 OA 
HETATM   26  N   UNL     1      -8.121   1.772  66.726  1.00  0.00    -0.072 N  
HETATM   27  O   UNL     1      -6.756   3.546  65.660  1.00  0.00    -0.042 OA 
HETATM   28  H1  UNL     1      -7.340   1.125  66.619  1.00  0.00     0.000 HD 
HETATM   29  H2  UNL     1      -9.116   1.552  66.717  1.00  0.00     0.000 HD 
ENDBRANCH  20  24
BRANCH  21  30
HETATM   30  O   UNL     1      -9.714   3.457  65.167  1.00  0.00    -0.157 OA 
HETATM   31  C   UNL     1     -10.529   3.625  64.014  1.00  0.00    -0.265 C  
ENDBRANCH  21  30
ENDBRANCH  17  18
ENDBRANCH  15  17
ENDBRANCH  13  15
ENDBRANCH  12  13
ENDBRANCH  11  12
ENDBRANCH  10  11
ENDBRANCH   9  10
ENDBRANCH   3   4
ENDBRANCH   2   3
TORSDOF 11
ENDMDL
MODEL      348
REMARK 921   NORMALIZED FREE ENERGY PREDICTED BY IDOCK:   -3.28 KCAL/MOL
REMARK 922        TOTAL FREE ENERGY PREDICTED BY IDOCK:   -6.64 KCAL/MOL
REMARK 923 INTER-LIGAND FREE ENERGY PREDICTED BY IDOCK:   -5.63 KCAL/MOL
REMARK 924 INTRA-LIGAND FREE ENERGY PREDICTED BY IDOCK:   -1.01 KCAL/MOL
REMARK 927      BINDING AFFINITY PREDICTED BY RF-SCORE:    0.00 PKD
ROOT
HETATM    1  C   UNL     1      -8.661   9.683  63.206  1.00  0.00    -0.239 C  
HETATM    2  C   UNL     1      -7.507   8.792  63.639  1.00  0.00    -0.108 C  
ENDROOT
BRANCH   2   3
HETATM    3  O   UNL     1      -7.454   8.887  65.057  1.00  0.00    -0.093 OA 
BRANCH   3   4
HETATM    4  C   UNL     1      -7.869   7.856  65.844  1.00  0.00    -0.101 A  
HETATM    5  C   UNL     1      -7.064   6.749  66.148  1.00  0.00    -0.066 A  
HETATM    6  C   UNL     1      -7.550   5.704  66.939  1.00  0.00    -0.096 A  
HETATM    7  C   UNL     1      -8.850   5.753  67.437  1.00  0.00    -0.106 A  
HETATM    8  C   UNL     1      -9.656   6.854  67.151  1.00  0.00    -0.182 A  
HETATM    9  C   UNL     1      -9.179   7.914  66.363  1.00  0.00    -0.191 A  
BRANCH   9  10
HETATM   10  O   UNL     1     -10.115   8.910  66.206  1.00  0.00    -0.293 OA 
BRANCH  10  11
HETATM   11  C   UNL     1     -11.009   9.168  67.288  1.00  0.00     0.110 C  
BRANCH  11  12
HETATM   12  C   UNL     1     -10.594  10.460  68.005  1.00  0.00    -0.221 C  
BRANCH  12  13
HETATM   13  N   UNL     1     -11.386  10.807  69.196  1.00  0.00    -0.260 NA 
HETATM   14  H   UNL     1     -11.051  10.281  70.003  1.00  0.00     0.000 HD 
BRANCH  13  15
HETATM   15  C   UNL     1     -11.449  12.245  69.521  1.00  0.00    -0.249 C  
HETATM   16  C   UNL     1     -12.384  12.392  70.731  1.00  0.00    -0.377 C  
BRANCH  15  17
HETATM   17  C   UNL     1     -11.921  13.133  68.335  1.00  0.00    -0.324 C  
BRANCH  17  18
HETATM   18  C   UNL     1     -11.095  14.394  68.214  1.00  0.00    -0.275 A  
HETATM   19  C   UNL     1      -9.726  14.299  67.941  1.00  0.00    -0.222 A  
HETATM   20  C   UNL     1      -8.903  15.427  68.056  1.00  0.00    -0.165 A  
HETATM   21  C   UNL     1      -9.453  16.686  68.331  1.00  0.00    -0.231 A  
HETATM   22  C   UNL     1     -11.648  15.649  68.474  1.00  0.00    -0.378 A  
HETATM   23  C   UNL     1     -10.836  16.788  68.510  1.00  0.00    -0.345 A  
BRANCH  20  24
HETATM   24  S   UNL     1      -7.136  15.261  67.979  1.00  0.00    -0.143 S  
HETATM   25  O   UNL     1      -6.597  15.608  69.273  1.00  0.00    -0.131 OA 
HETATM   26  N   UNL     1      -6.866  13.610  67.819  1.00  0.00    -0.155 N  
HETATM   27  O   UNL     1      -6.673  15.831  66.734  1.00  0.00    -0.227 OA 
HETATM   28  H1  UNL     1      -5.852  13.515  67.775  1.00  0.00     0.000 HD 
HETATM   29  H2  UNL     1      -7.563  12.867  67.776  1.00  0.00     0.000 HD 
ENDBRANCH  20  24
BRANCH  21  30
HETATM   30  O   UNL     1      -8.588  17.742  68.411  1.00  0.00    -0.278 OA 
HETATM   31  C   UNL     1      -8.861  18.891  67.619  1.00  0.00    -0.288 C  
ENDBRANCH  21  30
ENDBRANCH  17  18
ENDBRANCH  15  17
ENDBRANCH  13  15
ENDBRANCH  12  13
ENDBRANCH  11  12
ENDBRANCH  10  11
ENDBRANCH   9  10
ENDBRANCH   3   4
ENDBRANCH   2   3
TORSDOF 11
ENDMDL
MODEL      349
REMARK 921   NORMALIZED FREE ENERGY PREDICTED BY IDOCK:   -3.27 KCAL/MOL
REMARK 922        TOTAL FREE ENERGY PREDICTED BY IDOCK:   -6.62 KCAL/MOL
REMARK 923 INTER-LIGAND FREE ENERGY PREDICTED BY IDOCK:   -7.41 KCAL/MOL
REMARK 924 INTRA-LIGAND FREE ENERGY PREDICTED BY IDOCK:    0.79 KCAL/MOL
REMARK 927      BINDING AFFINITY PREDICTED BY RF-SCORE:    0.00 PKD
ROOT
HETATM    1  C   UNL     1     -14.232   9.029  71.461  1.00  0.00    -0.245 C  
HETATM    2  C   UNL     1     -13.027   9.626  72.171  1.00  0.00    -0.406 C  
ENDROOT
BRANCH   2   3
HETATM    3  O   UNL     1     -12.254  10.258  71.158  1.00  0.00    -0.333 OA 
BRANCH   3   4
HETATM    4  C   UNL     1     -11.358   9.549  70.417  1.00  0.00    -0.264 A  
HETATM    5  C   UNL     1     -11.124   8.179  70.599  1.00  0.00    -0.264 A  
HETATM    6  C   UNL     1     -10.172   7.505  69.829  1.00  0.00    -0.211 A  
HETATM    7  C   UNL     1      -9.442   8.194  68.864  1.00  0.00    -0.151 A  
HETATM    8  C   UNL     1      -9.675   9.554  68.664  1.00  0.00    -0.163 A  
HETATM    9  C   UNL     1     -10.631  10.243  69.427  1.00  0.00    -0.237 A  
BRANCH   9  10
HETATM   10  O   UNL     1     -10.724  11.569  69.073  1.00  0.00    -0.208 OA 
BRANCH  10  11
HETATM   11  C   UNL     1     -11.590  11.919  67.995  1.00  0.00    -0.332 C  
BRANCH  11  12
HETATM   12  C   UNL     1     -11.793  13.439  67.967  1.00  0.00    -0.357 C  
BRANCH  12  13
HETATM   13  N   UNL     1     -10.765  14.204  67.244  1.00  0.00    -0.277 NA 
HETATM   14  H   UNL     1      -9.850  13.773  67.381  1.00  0.00     0.000 HD 
BRANCH  13  15
HETATM   15  C   UNL     1     -11.017  14.407  65.805  1.00  0.00    -0.314 C  
HETATM   16  C   UNL     1     -10.249  13.308  65.054  1.00  0.00    -0.313 C  
BRANCH  15  17
HETATM   17  C   UNL     1     -10.618  15.821  65.295  1.00  0.00    -0.446 C  
BRANCH  17  18
HETATM   18  C   UNL     1      -9.744  16.551  66.291  1.00  0.00    -0.328 A  
HETATM   19  C   UNL     1      -8.597  15.925  66.792  1.00  0.00    -0.301 A  
HETATM   20  C   UNL     1      -7.907  16.480  67.878  1.00  0.00    -0.154 A  
HETATM   21  C   UNL     1      -8.284  17.723  68.403  1.00  0.00    -0.298 A  
HETATM   22  C   UNL     1     -10.113  17.796  66.802  1.00  0.00    -0.349 A  
HETATM   23  C   UNL     1      -9.377  18.386  67.835  1.00  0.00    -0.291 A  
BRANCH  20  24
HETATM   24  S   UNL     1      -6.622  15.560  68.689  1.00  0.00    -0.107 S  
HETATM   25  O   UNL     1      -6.262  16.265  69.897  1.00  0.00    -0.200 OA 
HETATM   26  N   UNL     1      -7.368  14.147  69.211  1.00  0.00    -0.281 N  
HETATM   27  O   UNL     1      -5.668  15.125  67.695  1.00  0.00    -0.260 OA 
HETATM   28  H1  UNL     1      -6.631  13.620  69.677  1.00  0.00     0.000 HD 
HETATM   29  H2  UNL     1      -8.344  13.877  69.089  1.00  0.00     0.000 HD 
ENDBRANCH  20  24
BRANCH  21  30
HETATM   30  O   UNL     1      -7.553  18.206  69.452  1.00  0.00    -0.011 OA 
HETATM   31  C   UNL     1      -7.014  19.517  69.343  1.00  0.00    -0.313 C  
ENDBRANCH  21  30
ENDBRANCH  17  18
ENDBRANCH  15  17
ENDBRANCH  13  15
ENDBRANCH  12  13
ENDBRANCH  11  12
ENDBRANCH  10  11
ENDBRANCH   9  10
ENDBRANCH   3   4
ENDBRANCH   2   3
TORSDOF 11
ENDMDL
MODEL      350
REMARK 921   NORMALIZED FREE ENERGY PREDICTED BY IDOCK:   -3.27 KCAL/MOL
REMARK 922        TOTAL FREE ENERGY PREDICTED BY IDOCK:   -6.62 KCAL/MOL
REMARK 923 INTER-LIGAND FREE ENERGY PREDICTED BY IDOCK:   -5.47 KCAL/MOL
REMARK 924 INTRA-LIGAND FREE ENERGY PREDICTED BY IDOCK:   -1.14 KCAL/MOL
REMARK 927      BINDING AFFINITY PREDICTED BY RF-SCORE:    0.00 PKD
ROOT
HETATM    1  C   UNL     1      -7.308   8.197  73.063  1.00  0.00    -0.161 C  
HETATM    2  C   UNL     1      -8.005   7.420  74.170  1.00  0.00    -0.146 C  
ENDROOT
BRANCH   2   3
HETATM    3  O   UNL     1      -9.122   6.788  73.556  1.00  0.00    -0.127 OA 
BRANCH   3   4
HETATM    4  C   UNL     1      -9.071   5.476  73.195  1.00  0.00    -0.126 A  
HETATM    5  C   UNL     1      -7.917   4.689  73.316  1.00  0.00    -0.099 A  
HETATM    6  C   UNL     1      -7.912   3.354  72.904  1.00  0.00    -0.072 A  
HETATM    7  C   UNL     1      -9.065   2.786  72.366  1.00  0.00    -0.128 A  
HETATM    8  C   UNL     1     -10.223   3.555  72.252  1.00  0.00    -0.180 A  
HETATM    9  C   UNL     1     -10.244   4.896  72.667  1.00  0.00    -0.188 A  
BRANCH   9  10
HETATM   10  O   UNL     1     -11.477   5.479  72.486  1.00  0.00    -0.283 OA 
BRANCH  10  11
HETATM   11  C   UNL     1     -11.704   6.212  71.284  1.00  0.00    -0.144 C  
BRANCH  11  12
HETATM   12  C   UNL     1     -12.429   7.525  71.608  1.00  0.00    -0.342 C  
BRANCH  12  13
HETATM   13  N   UNL     1     -12.277   8.596  70.611  1.00  0.00    -0.485 NA 
HETATM   14  H   UNL     1     -13.195   8.922  70.306  1.00  0.00     0.000 HD 
BRANCH  13  15
HETATM   15  C   UNL     1     -11.448   9.743  71.030  1.00  0.00    -0.383 C  
HETATM   16  C   UNL     1     -12.013  10.987  70.328  1.00  0.00    -0.452 C  
BRANCH  15  17
HETATM   17  C   UNL     1      -9.934   9.563  70.724  1.00  0.00    -0.334 C  
BRANCH  17  18
HETATM   18  C   UNL     1      -9.677   9.396  69.243  1.00  0.00    -0.173 A  
HETATM   19  C   UNL     1      -9.498   8.113  68.713  1.00  0.00    -0.148 A  
HETATM   20  C   UNL     1      -9.032   7.949  67.403  1.00  0.00    -0.127 A  
HETATM   21  C   UNL     1      -8.847   9.058  66.567  1.00  0.00    -0.135 A  
HETATM   22  C   UNL     1      -9.508  10.502  68.409  1.00  0.00    -0.158 A  
HETATM   23  C   UNL     1      -9.118  10.333  67.076  1.00  0.00    -0.154 A  
BRANCH  20  24
HETATM   24  S   UNL     1      -8.545   6.344  66.817  1.00  0.00    -0.116 S  
HETATM   25  O   UNL     1      -9.139   5.353  67.684  1.00  0.00    -0.109 OA 
HETATM   26  N   UNL     1      -9.334   6.166  65.344  1.00  0.00    -0.348 N  
HETATM   27  O   UNL     1      -7.141   6.382  66.479  1.00  0.00    -0.065 OA 
HETATM   28  H1  UNL     1      -9.056   5.245  65.008  1.00  0.00     0.000 HD 
HETATM   29  H2  UNL     1      -9.956   6.833  64.886  1.00  0.00     0.000 HD 
ENDBRANCH  20  24
BRANCH  21  30
HETATM   30  O   UNL     1      -8.406   8.817  65.296  1.00  0.00    -0.141 OA 
HETATM   31  C   UNL     1      -8.099   9.933  64.471  1.00  0.00    -0.149 C  
ENDBRANCH  21  30
ENDBRANCH  17  18
ENDBRANCH  15  17
ENDBRANCH  13  15
ENDBRANCH  12  13
ENDBRANCH  11  12
ENDBRANCH  10  11
ENDBRANCH   9  10
ENDBRANCH   3   4
ENDBRANCH   2   3
TORSDOF 11
ENDMDL
MODEL      351
REMARK 921   NORMALIZED FREE ENERGY PREDICTED BY IDOCK:   -3.27 KCAL/MOL
REMARK 922        TOTAL FREE ENERGY PREDICTED BY IDOCK:   -6.61 KCAL/MOL
REMARK 923 INTER-LIGAND FREE ENERGY PREDICTED BY IDOCK:   -4.85 KCAL/MOL
REMARK 924 INTRA-LIGAND FREE ENERGY PREDICTED BY IDOCK:   -1.76 KCAL/MOL
REMARK 927      BINDING AFFINITY PREDICTED BY RF-SCORE:    0.00 PKD
ROOT
HETATM    1  C   UNL     1      -9.849   3.680  67.117  1.00  0.00     0.039 C  
HETATM    2  C   UNL     1      -8.419   4.025  67.502  1.00  0.00    -0.099 C  
ENDROOT
BRANCH   2   3
HETATM    3  O   UNL     1      -8.470   5.336  68.050  1.00  0.00    -0.098 OA 
BRANCH   3   4
HETATM    4  C   UNL     1      -8.635   6.424  67.247  1.00  0.00    -0.110 A  
HETATM    5  C   UNL     1      -7.707   6.803  66.267  1.00  0.00    -0.098 A  
HETATM    6  C   UNL     1      -7.912   7.945  65.489  1.00  0.00    -0.119 A  
HETATM    7  C   UNL     1      -9.051   8.723  65.679  1.00  0.00    -0.247 A  
HETATM    8  C   UNL     1      -9.988   8.349  66.642  1.00  0.00    -0.354 A  
HETATM    9  C   UNL     1      -9.798   7.202  67.428  1.00  0.00    -0.155 A  
BRANCH   9  10
HETATM   10  O   UNL     1     -10.835   6.994  68.308  1.00  0.00    -0.198 OA 
BRANCH  10  11
HETATM   11  C   UNL     1     -10.521   6.831  69.690  1.00  0.00    -0.214 C  
BRANCH  11  12
HETATM   12  C   UNL     1     -10.422   8.206  70.363  1.00  0.00    -0.215 C  
BRANCH  12  13
HETATM   13  N   UNL     1      -9.130   8.510  70.998  1.00  0.00    -0.163 NA 
HETATM   14  H   UNL     1      -8.976   7.889  71.793  1.00  0.00     0.000 HD 
BRANCH  13  15
HETATM   15  C   UNL     1      -7.959   8.482  70.101  1.00  0.00    -0.105 C  
HETATM   16  C   UNL     1      -7.039   7.355  70.598  1.00  0.00    -0.060 C  
BRANCH  15  17
HETATM   17  C   UNL     1      -7.198   9.836  70.025  1.00  0.00    -0.130 C  
BRANCH  17  18
HETATM   18  C   UNL     1      -7.816  10.771  69.009  1.00  0.00    -0.138 A  
HETATM   19  C   UNL     1      -9.069  11.337  69.264  1.00  0.00     0.237 A  
HETATM   20  C   UNL     1      -9.759  12.012  68.249  1.00  0.00    -0.205 A  
HETATM   21  C   UNL     1      -9.160  12.229  67.001  1.00  0.00    -0.201 A  
HETATM   22  C   UNL     1      -7.210  10.998  67.772  1.00  0.00    -0.091 A  
HETATM   23  C   UNL     1      -7.868  11.739  66.785  1.00  0.00    -0.103 A  
BRANCH  20  24
HETATM   24  S   UNL     1     -11.454  12.494  68.482  1.00  0.00    -0.329 S  
HETATM   25  O   UNL     1     -12.282  11.615  67.691  1.00  0.00    -0.544 OA 
HETATM   26  N   UNL     1     -11.796  12.099  70.080  1.00  0.00    -0.441 N  
HETATM   27  O   UNL     1     -11.534  13.935  68.435  1.00  0.00    -0.273 OA 
HETATM   28  H1  UNL     1     -12.768  12.375  70.214  1.00  0.00     0.000 HD 
HETATM   29  H2  UNL     1     -11.170  11.676  70.765  1.00  0.00     0.000 HD 
ENDBRANCH  20  24
BRANCH  21  30
HETATM   30  O   UNL     1      -9.890  12.910  66.067  1.00  0.00    -0.267 OA 
HETATM   31  C   UNL     1      -9.989  12.356  64.762  1.00  0.00    -0.172 C  
ENDBRANCH  21  30
ENDBRANCH  17  18
ENDBRANCH  15  17
ENDBRANCH  13  15
ENDBRANCH  12  13
ENDBRANCH  11  12
ENDBRANCH  10  11
ENDBRANCH   9  10
ENDBRANCH   3   4
ENDBRANCH   2   3
TORSDOF 11
ENDMDL
MODEL      352
REMARK 921   NORMALIZED FREE ENERGY PREDICTED BY IDOCK:   -3.25 KCAL/MOL
REMARK 922        TOTAL FREE ENERGY PREDICTED BY IDOCK:   -6.58 KCAL/MOL
REMARK 923 INTER-LIGAND FREE ENERGY PREDICTED BY IDOCK:   -6.11 KCAL/MOL
REMARK 924 INTRA-LIGAND FREE ENERGY PREDICTED BY IDOCK:   -0.48 KCAL/MOL
REMARK 927      BINDING AFFINITY PREDICTED BY RF-SCORE:    0.00 PKD
ROOT
HETATM    1  C   UNL     1     -11.761  15.396  64.731  1.00  0.00    -0.232 C  
HETATM    2  C   UNL     1     -10.899  16.550  65.221  1.00  0.00    -0.221 C  
ENDROOT
BRANCH   2   3
HETATM    3  O   UNL     1     -10.671  16.304  66.603  1.00  0.00    -0.291 OA 
BRANCH   3   4
HETATM    4  C   UNL     1      -9.672  16.944  67.272  1.00  0.00    -0.251 A  
HETATM    5  C   UNL     1      -9.506  18.336  67.257  1.00  0.00    -0.264 A  
HETATM    6  C   UNL     1      -8.447  18.940  67.939  1.00  0.00    -0.318 A  
HETATM    7  C   UNL     1      -7.538  18.157  68.649  1.00  0.00    -0.306 A  
HETATM    8  C   UNL     1      -7.700  16.773  68.682  1.00  0.00    -0.232 A  
HETATM    9  C   UNL     1      -8.763  16.153  68.006  1.00  0.00    -0.176 A  
BRANCH   9  10
HETATM   10  O   UNL     1      -8.760  14.787  68.169  1.00  0.00    -0.157 OA 
BRANCH  10  11
HETATM   11  C   UNL     1      -7.677  14.046  67.608  1.00  0.00    -0.177 C  
BRANCH  11  12
HETATM   12  C   UNL     1      -8.180  12.676  67.133  1.00  0.00    -0.159 C  
BRANCH  12  13
HETATM   13  N   UNL     1      -9.078  12.699  65.968  1.00  0.00    -0.434 NA 
HETATM   14  H   UNL     1      -8.544  12.890  65.119  1.00  0.00     0.000 HD 
BRANCH  13  15
HETATM   15  C   UNL     1      -9.910  11.495  65.781  1.00  0.00    -0.234 C  
HETATM   16  C   UNL     1     -10.882  11.794  64.629  1.00  0.00    -0.363 C  
BRANCH  15  17
HETATM   17  C   UNL     1     -10.675  11.060  67.063  1.00  0.00    -0.319 C  
BRANCH  17  18
HETATM   18  C   UNL     1     -10.235   9.694  67.542  1.00  0.00    -0.274 A  
HETATM   19  C   UNL     1      -9.522   9.580  68.741  1.00  0.00    -0.147 A  
HETATM   20  C   UNL     1      -8.907   8.368  69.084  1.00  0.00    -0.142 A  
HETATM   21  C   UNL     1      -9.092   7.226  68.294  1.00  0.00    -0.134 A  
HETATM   22  C   UNL     1     -10.433   8.555  66.761  1.00  0.00    -0.308 A  
HETATM   23  C   UNL     1      -9.885   7.326  67.145  1.00  0.00    -0.242 A  
BRANCH  20  24
HETATM   24  S   UNL     1      -7.781   8.289  70.456  1.00  0.00    -0.086 S  
HETATM   25  O   UNL     1      -7.405   9.639  70.803  1.00  0.00    -0.240 OA 
HETATM   26  N   UNL     1      -8.713   7.747  71.745  1.00  0.00    -0.115 N  
HETATM   27  O   UNL     1      -6.834   7.226  70.214  1.00  0.00    -0.050 OA 
HETATM   28  H1  UNL     1      -8.067   7.702  72.533  1.00  0.00     0.000 HD 
HETATM   29  H2  UNL     1      -9.706   7.515  71.742  1.00  0.00     0.000 HD 
ENDBRANCH  20  24
BRANCH  21  30
HETATM   30  O   UNL     1      -8.474   6.077  68.702  1.00  0.00    -0.112 OA 
HETATM   31  C   UNL     1      -9.288   5.012  69.176  1.00  0.00    -0.122 C  
ENDBRANCH  21  30
ENDBRANCH  17  18
ENDBRANCH  15  17
ENDBRANCH  13  15
ENDBRANCH  12  13
ENDBRANCH  11  12
ENDBRANCH  10  11
ENDBRANCH   9  10
ENDBRANCH   3   4
ENDBRANCH   2   3
TORSDOF 11
ENDMDL
MODEL      353
REMARK 921   NORMALIZED FREE ENERGY PREDICTED BY IDOCK:   -3.20 KCAL/MOL
REMARK 922        TOTAL FREE ENERGY PREDICTED BY IDOCK:   -6.51 KCAL/MOL
REMARK 923 INTER-LIGAND FREE ENERGY PREDICTED BY IDOCK:   -6.27 KCAL/MOL
REMARK 924 INTRA-LIGAND FREE ENERGY PREDICTED BY IDOCK:   -0.24 KCAL/MOL
REMARK 927      BINDING AFFINITY PREDICTED BY RF-SCORE:    0.00 PKD
ROOT
HETATM    1  C   UNL     1     -12.171  14.349  64.527  1.00  0.00    -0.483 C  
HETATM    2  C   UNL     1     -12.280  12.838  64.663  1.00  0.00    -0.447 C  
ENDROOT
BRANCH   2   3
HETATM    3  O   UNL     1     -12.384  12.580  66.058  1.00  0.00    -0.615 OA 
BRANCH   3   4
HETATM    4  C   UNL     1     -11.547  13.185  66.945  1.00  0.00    -0.368 A  
HETATM    5  C   UNL     1     -11.833  14.415  67.554  1.00  0.00    -0.418 A  
HETATM    6  C   UNL     1     -10.927  15.007  68.438  1.00  0.00    -0.266 A  
HETATM    7  C   UNL     1      -9.720  14.373  68.726  1.00  0.00    -0.190 A  
HETATM    8  C   UNL     1      -9.430  13.144  68.136  1.00  0.00    -0.222 A  
HETATM    9  C   UNL     1     -10.333  12.535  67.251  1.00  0.00    -0.220 A  
BRANCH   9  10
HETATM   10  O   UNL     1      -9.874  11.324  66.786  1.00  0.00    -0.193 OA 
BRANCH  10  11
HETATM   11  C   UNL     1      -9.418  10.367  67.742  1.00  0.00    -0.145 C  
BRANCH  11  12
HETATM   12  C   UNL     1     -10.614   9.809  68.525  1.00  0.00    -0.221 C  
BRANCH  12  13
HETATM   13  N   UNL     1     -10.548   9.976  69.986  1.00  0.00    -0.276 NA 
HETATM   14  H   UNL     1     -10.883  10.904  70.247  1.00  0.00     0.000 HD 
BRANCH  13  15
HETATM   15  C   UNL     1     -11.249   8.946  70.776  1.00  0.00    -0.272 C  
HETATM   16  C   UNL     1     -10.520   8.839  72.124  1.00  0.00    -0.384 C  
BRANCH  15  17
HETATM   17  C   UNL     1     -11.329   7.563  70.068  1.00  0.00    -0.115 C  
BRANCH  17  18
HETATM   18  C   UNL     1     -10.378   6.561  70.686  1.00  0.00    -0.239 A  
HETATM   19  C   UNL     1      -9.060   6.483  70.223  1.00  0.00    -0.155 A  
HETATM   20  C   UNL     1      -8.237   5.418  70.612  1.00  0.00    -0.114 A  
HETATM   21  C   UNL     1      -8.680   4.482  71.556  1.00  0.00    -0.118 A  
HETATM   22  C   UNL     1     -10.818   5.639  71.638  1.00  0.00    -0.301 A  
HETATM   23  C   UNL     1      -9.968   4.621  72.084  1.00  0.00    -0.241 A  
BRANCH  20  24
HETATM   24  S   UNL     1      -6.666   5.163  69.823  1.00  0.00    -0.048 S  
HETATM   25  O   UNL     1      -6.746   3.944  69.052  1.00  0.00    -0.043 OA 
HETATM   26  N   UNL     1      -6.552   6.395  68.685  1.00  0.00    -0.049 N  
HETATM   27  O   UNL     1      -5.620   5.447  70.777  1.00  0.00    -0.008 OA 
HETATM   28  H1  UNL     1      -5.651   6.249  68.232  1.00  0.00     0.000 HD 
HETATM   29  H2  UNL     1      -7.234   7.128  68.490  1.00  0.00     0.000 HD 
ENDBRANCH  20  24
BRANCH  21  30
HETATM   30  O   UNL     1      -7.814   3.481  71.897  1.00  0.00    -0.059 OA 
HETATM   31  C   UNL     1      -7.395   3.392  73.253  1.00  0.00    -0.055 C  
ENDBRANCH  21  30
ENDBRANCH  17  18
ENDBRANCH  15  17
ENDBRANCH  13  15
ENDBRANCH  12  13
ENDBRANCH  11  12
ENDBRANCH  10  11
ENDBRANCH   9  10
ENDBRANCH   3   4
ENDBRANCH   2   3
TORSDOF 11
ENDMDL
MODEL      354
REMARK 921   NORMALIZED FREE ENERGY PREDICTED BY IDOCK:   -3.20 KCAL/MOL
REMARK 922        TOTAL FREE ENERGY PREDICTED BY IDOCK:   -6.50 KCAL/MOL
REMARK 923 INTER-LIGAND FREE ENERGY PREDICTED BY IDOCK:   -5.61 KCAL/MOL
REMARK 924 INTRA-LIGAND FREE ENERGY PREDICTED BY IDOCK:   -0.89 KCAL/MOL
REMARK 927      BINDING AFFINITY PREDICTED BY RF-SCORE:    0.00 PKD
ROOT
HETATM    1  C   UNL     1      -9.586  13.442  68.328  1.00  0.00    -0.220 C  
HETATM    2  C   UNL     1      -8.945  12.428  67.392  1.00  0.00    -0.185 C  
ENDROOT
BRANCH   2   3
HETATM    3  O   UNL     1     -10.009  11.615  66.914  1.00  0.00    -0.198 OA 
BRANCH   3   4
HETATM    4  C   UNL     1     -10.720  11.972  65.809  1.00  0.00    -0.279 A  
HETATM    5  C   UNL     1     -11.933  12.672  65.869  1.00  0.00    -0.497 A  
HETATM    6  C   UNL     1     -12.637  12.990  64.704  1.00  0.00    -0.425 A  
HETATM    7  C   UNL     1     -12.134  12.613  63.461  1.00  0.00    -0.648 A  
HETATM    8  C   UNL     1     -10.922  11.927  63.387  1.00  0.00    -0.470 A  
HETATM    9  C   UNL     1     -10.202  11.606  64.549  1.00  0.00    -0.291 A  
BRANCH   9  10
HETATM   10  O   UNL     1      -9.029  10.943  64.270  1.00  0.00    -0.173 OA 
BRANCH  10  11
HETATM   11  C   UNL     1      -9.096   9.771  63.458  1.00  0.00    -0.228 C  
BRANCH  11  12
HETATM   12  C   UNL     1      -8.190   8.682  64.048  1.00  0.00    -0.148 C  
BRANCH  12  13
HETATM   13  N   UNL     1      -7.862   8.834  65.475  1.00  0.00    -0.095 NA 
HETATM   14  H   UNL     1      -8.391   9.610  65.874  1.00  0.00     0.000 HD 
BRANCH  13  15
HETATM   15  C   UNL     1      -8.039   7.625  66.301  1.00  0.00    -0.112 C  
HETATM   16  C   UNL     1      -9.534   7.268  66.262  1.00  0.00    -0.133 C  
BRANCH  15  17
HETATM   17  C   UNL     1      -7.539   7.790  67.764  1.00  0.00    -0.113 C  
BRANCH  17  18
HETATM   18  C   UNL     1      -7.888   6.589  68.616  1.00  0.00    -0.110 A  
HETATM   19  C   UNL     1      -8.669   6.761  69.764  1.00  0.00    -0.141 A  
HETATM   20  C   UNL     1      -8.809   5.715  70.685  1.00  0.00    -0.138 A  
HETATM   21  C   UNL     1      -8.267   4.451  70.417  1.00  0.00    -0.070 A  
HETATM   22  C   UNL     1      -7.360   5.327  68.338  1.00  0.00    -0.071 A  
HETATM   23  C   UNL     1      -7.567   4.262  69.222  1.00  0.00    -0.054 A  
BRANCH  20  24
HETATM   24  S   UNL     1      -9.566   6.006  72.266  1.00  0.00    -0.148 S  
HETATM   25  O   UNL     1     -10.293   7.252  72.191  1.00  0.00    -0.189 OA 
HETATM   26  N   UNL     1     -10.745   4.817  72.403  1.00  0.00    -0.184 N  
HETATM   27  O   UNL     1      -8.607   5.694  73.301  1.00  0.00    -0.117 OA 
HETATM   28  H1  UNL     1     -11.180   4.984  73.310  1.00  0.00     0.000 HD 
HETATM   29  H2  UNL     1     -10.976   4.088  71.729  1.00  0.00     0.000 HD 
ENDBRANCH  20  24
BRANCH  21  30
HETATM   30  O   UNL     1      -8.460   3.476  71.357  1.00  0.00    -0.067 OA 
HETATM   31  C   UNL     1      -9.087   2.268  70.948  1.00  0.00    -0.109 C  
ENDBRANCH  21  30
ENDBRANCH  17  18
ENDBRANCH  15  17
ENDBRANCH  13  15
ENDBRANCH  12  13
ENDBRANCH  11  12
ENDBRANCH  10  11
ENDBRANCH   9  10
ENDBRANCH   3   4
ENDBRANCH   2   3
TORSDOF 11
ENDMDL
MODEL      355
REMARK 921   NORMALIZED FREE ENERGY PREDICTED BY IDOCK:   -3.19 KCAL/MOL
REMARK 922        TOTAL FREE ENERGY PREDICTED BY IDOCK:   -6.48 KCAL/MOL
REMARK 923 INTER-LIGAND FREE ENERGY PREDICTED BY IDOCK:   -5.51 KCAL/MOL
REMARK 924 INTRA-LIGAND FREE ENERGY PREDICTED BY IDOCK:   -0.97 KCAL/MOL
REMARK 927      BINDING AFFINITY PREDICTED BY RF-SCORE:    0.00 PKD
ROOT
HETATM    1  C   UNL     1      -8.540   9.018  64.652  1.00  0.00    -0.190 C  
HETATM    2  C   UNL     1      -8.813  10.282  63.852  1.00  0.00    -0.220 C  
ENDROOT
BRANCH   2   3
HETATM    3  O   UNL     1      -9.112  11.291  64.809  1.00  0.00    -0.142 OA 
BRANCH   3   4
HETATM    4  C   UNL     1     -10.294  11.965  64.769  1.00  0.00    -0.281 A  
HETATM    5  C   UNL     1     -11.368  11.585  63.952  1.00  0.00    -0.400 A  
HETATM    6  C   UNL     1     -12.551  12.329  63.929  1.00  0.00    -0.544 A  
HETATM    7  C   UNL     1     -12.676  13.464  64.726  1.00  0.00    -0.310 A  
HETATM    8  C   UNL     1     -11.620  13.845  65.553  1.00  0.00    -0.332 A  
HETATM    9  C   UNL     1     -10.428  13.105  65.590  1.00  0.00    -0.282 A  
BRANCH   9  10
HETATM   10  O   UNL     1      -9.514  13.630  66.474  1.00  0.00    -0.269 OA 
BRANCH  10  11
HETATM   11  C   UNL     1      -9.887  13.730  67.847  1.00  0.00    -0.232 C  
BRANCH  11  12
HETATM   12  C   UNL     1     -10.188  12.332  68.403  1.00  0.00    -0.217 C  
BRANCH  12  13
HETATM   13  N   UNL     1      -9.097  11.704  69.165  1.00  0.00    -0.363 NA 
HETATM   14  H   UNL     1      -9.395  11.535  70.127  1.00  0.00     0.000 HD 
BRANCH  13  15
HETATM   15  C   UNL     1      -8.546  10.465  68.583  1.00  0.00    -0.133 C  
HETATM   16  C   UNL     1      -7.562  10.885  67.480  1.00  0.00    -0.101 C  
BRANCH  15  17
HETATM   17  C   UNL     1      -9.632   9.498  68.030  1.00  0.00    -0.155 C  
BRANCH  17  18
HETATM   18  C   UNL     1      -9.469   8.098  68.579  1.00  0.00    -0.144 A  
HETATM   19  C   UNL     1      -8.594   7.873  69.648  1.00  0.00    -0.133 A  
HETATM   20  C   UNL     1      -8.252   6.565  70.017  1.00  0.00    -0.130 A  
HETATM   21  C   UNL     1      -8.866   5.466  69.401  1.00  0.00    -0.105 A  
HETATM   22  C   UNL     1     -10.093   7.007  67.974  1.00  0.00    -0.199 A  
HETATM   23  C   UNL     1      -9.810   5.703  68.396  1.00  0.00    -0.178 A  
BRANCH  20  24
HETATM   24  S   UNL     1      -6.944   6.275  71.183  1.00  0.00    -0.070 S  
HETATM   25  O   UNL     1      -6.342   7.547  71.506  1.00  0.00    -0.036 OA 
HETATM   26  N   UNL     1      -7.723   5.788  72.591  1.00  0.00    -0.100 N  
HETATM   27  O   UNL     1      -6.197   5.114  70.758  1.00  0.00    -0.021 OA 
HETATM   28  H1  UNL     1      -6.972   5.622  73.260  1.00  0.00     0.000 HD 
HETATM   29  H2  UNL     1      -8.726   5.683  72.743  1.00  0.00     0.000 HD 
ENDBRANCH  20  24
BRANCH  21  30
HETATM   30  O   UNL     1      -8.493   4.222  69.827  1.00  0.00    -0.061 OA 
HETATM   31  C   UNL     1      -9.516   3.308  70.200  1.00  0.00    -0.163 C  
ENDBRANCH  21  30
ENDBRANCH  17  18
ENDBRANCH  15  17
ENDBRANCH  13  15
ENDBRANCH  12  13
ENDBRANCH  11  12
ENDBRANCH  10  11
ENDBRANCH   9  10
ENDBRANCH   3   4
ENDBRANCH   2   3
TORSDOF 11
ENDMDL
MODEL      356
REMARK 921   NORMALIZED FREE ENERGY PREDICTED BY IDOCK:   -3.18 KCAL/MOL
REMARK 922        TOTAL FREE ENERGY PREDICTED BY IDOCK:   -6.47 KCAL/MOL
REMARK 923 INTER-LIGAND FREE ENERGY PREDICTED BY IDOCK:   -7.16 KCAL/MOL
REMARK 924 INTRA-LIGAND FREE ENERGY PREDICTED BY IDOCK:    0.69 KCAL/MOL
REMARK 927      BINDING AFFINITY PREDICTED BY RF-SCORE:    0.00 PKD
ROOT
HETATM    1  C   UNL     1      -6.083   6.775  69.021  1.00  0.00    -0.026 C  
HETATM    2  C   UNL     1      -6.677   7.003  70.402  1.00  0.00    -0.053 C  
ENDROOT
BRANCH   2   3
HETATM    3  O   UNL     1      -7.836   7.802  70.199  1.00  0.00    -0.092 OA 
BRANCH   3   4
HETATM    4  C   UNL     1      -9.084   7.267  70.312  1.00  0.00    -0.152 A  
HETATM    5  C   UNL     1      -9.332   5.887  70.296  1.00  0.00    -0.181 A  
HETATM    6  C   UNL     1     -10.635   5.392  70.388  1.00  0.00    -0.322 A  
HETATM    7  C   UNL     1     -11.710   6.272  70.499  1.00  0.00    -0.289 A  
HETATM    8  C   UNL     1     -11.474   7.646  70.529  1.00  0.00    -0.236 A  
HETATM    9  C   UNL     1     -10.170   8.158  70.442  1.00  0.00    -0.201 A  
BRANCH   9  10
HETATM   10  O   UNL     1     -10.143   9.532  70.502  1.00  0.00    -0.251 OA 
BRANCH  10  11
HETATM   11  C   UNL     1      -9.693  10.246  69.352  1.00  0.00    -0.222 C  
BRANCH  11  12
HETATM   12  C   UNL     1     -10.402   9.711  68.101  1.00  0.00    -0.209 C  
BRANCH  12  13
HETATM   13  N   UNL     1     -11.578  10.478  67.661  1.00  0.00    -0.612 NA 
HETATM   14  H   UNL     1     -12.049  10.887  68.468  1.00  0.00     0.000 HD 
BRANCH  13  15
HETATM   15  C   UNL     1     -11.316  11.518  66.648  1.00  0.00    -0.214 C  
HETATM   16  C   UNL     1      -9.792  11.702  66.575  1.00  0.00    -0.228 C  
BRANCH  15  17
HETATM   17  C   UNL     1     -12.032  12.868  66.939  1.00  0.00    -0.402 C  
BRANCH  17  18
HETATM   18  C   UNL     1     -11.149  14.053  66.616  1.00  0.00    -0.312 A  
HETATM   19  C   UNL     1     -10.896  15.014  67.600  1.00  0.00    -0.291 A  
HETATM   20  C   UNL     1     -10.281  16.227  67.261  1.00  0.00    -0.279 A  
HETATM   21  C   UNL     1      -9.808  16.448  65.960  1.00  0.00    -0.335 A  
HETATM   22  C   UNL     1     -10.667  14.263  65.323  1.00  0.00    -0.377 A  
HETATM   23  C   UNL     1      -9.983  15.442  65.004  1.00  0.00    -0.115 A  
BRANCH  20  24
HETATM   24  S   UNL     1     -10.202  17.554  68.440  1.00  0.00    -0.390 S  
HETATM   25  O   UNL     1     -10.959  18.665  67.913  1.00  0.00    -0.284 OA 
HETATM   26  N   UNL     1     -11.086  17.007  69.761  1.00  0.00    -0.280 N  
HETATM   27  O   UNL     1      -8.845  17.660  68.924  1.00  0.00    -0.235 OA 
HETATM   28  H1  UNL     1     -11.041  17.769  70.437  1.00  0.00     0.000 HD 
HETATM   29  H2  UNL     1     -11.562  16.112  69.864  1.00  0.00     0.000 HD 
ENDBRANCH  20  24
BRANCH  21  30
HETATM   30  O   UNL     1      -9.205  17.649  65.711  1.00  0.00    -0.505 OA 
HETATM   31  C   UNL     1      -7.797  17.739  65.888  1.00  0.00    -0.065 C  
ENDBRANCH  21  30
ENDBRANCH  17  18
ENDBRANCH  15  17
ENDBRANCH  13  15
ENDBRANCH  12  13
ENDBRANCH  11  12
ENDBRANCH  10  11
ENDBRANCH   9  10
ENDBRANCH   3   4
ENDBRANCH   2   3
TORSDOF 11
ENDMDL
MODEL      357
REMARK 921   NORMALIZED FREE ENERGY PREDICTED BY IDOCK:   -3.18 KCAL/MOL
REMARK 922        TOTAL FREE ENERGY PREDICTED BY IDOCK:   -6.46 KCAL/MOL
REMARK 923 INTER-LIGAND FREE ENERGY PREDICTED BY IDOCK:   -6.17 KCAL/MOL
REMARK 924 INTRA-LIGAND FREE ENERGY PREDICTED BY IDOCK:   -0.30 KCAL/MOL
REMARK 927      BINDING AFFINITY PREDICTED BY RF-SCORE:    0.00 PKD
ROOT
HETATM    1  C   UNL     1      -6.558  12.468  67.924  1.00  0.00    -0.104 C  
HETATM    2  C   UNL     1      -6.422  11.118  67.235  1.00  0.00    -0.079 C  
ENDROOT
BRANCH   2   3
HETATM    3  O   UNL     1      -7.683  10.478  67.385  1.00  0.00    -0.100 OA 
BRANCH   3   4
HETATM    4  C   UNL     1      -8.732  10.799  66.578  1.00  0.00    -0.151 A  
HETATM    5  C   UNL     1      -9.831  11.553  67.010  1.00  0.00    -0.212 A  
HETATM    6  C   UNL     1     -10.895  11.832  66.147  1.00  0.00    -0.336 A  
HETATM    7  C   UNL     1     -10.871  11.359  64.836  1.00  0.00    -0.323 A  
HETATM    8  C   UNL     1      -9.777  10.618  64.391  1.00  0.00    -0.368 A  
HETATM    9  C   UNL     1      -8.699  10.336  65.246  1.00  0.00    -0.172 A  
BRANCH   9  10
HETATM   10  O   UNL     1      -7.714   9.607  64.620  1.00  0.00    -0.118 OA 
BRANCH  10  11
HETATM   11  C   UNL     1      -7.966   8.229  64.349  1.00  0.00    -0.144 C  
BRANCH  11  12
HETATM   12  C   UNL     1      -8.276   7.494  65.659  1.00  0.00    -0.133 C  
BRANCH  12  13
HETATM   13  N   UNL     1      -8.936   6.187  65.512  1.00  0.00    -0.339 NA 
HETATM   14  H   UNL     1      -8.251   5.437  65.610  1.00  0.00     0.000 HD 
BRANCH  13  15
HETATM   15  C   UNL     1     -10.080   5.947  66.412  1.00  0.00    -0.110 C  
HETATM   16  C   UNL     1     -10.437   7.295  67.056  1.00  0.00    -0.398 C  
BRANCH  15  17
HETATM   17  C   UNL     1      -9.808   4.862  67.492  1.00  0.00    -0.207 C  
BRANCH  17  18
HETATM   18  C   UNL     1      -9.539   5.475  68.849  1.00  0.00    -0.178 A  
HETATM   19  C   UNL     1     -10.589   5.616  69.763  1.00  0.00    -0.400 A  
HETATM   20  C   UNL     1     -10.418   6.384  70.922  1.00  0.00    -0.228 A  
HETATM   21  C   UNL     1      -9.166   6.927  71.239  1.00  0.00    -0.157 A  
HETATM   22  C   UNL     1      -8.287   6.002  69.169  1.00  0.00    -0.114 A  
HETATM   23  C   UNL     1      -8.097   6.703  70.365  1.00  0.00    -0.117 A  
BRANCH  20  24
HETATM   24  S   UNL     1     -11.813   6.791  71.944  1.00  0.00    -0.335 S  
HETATM   25  O   UNL     1     -11.540   8.051  72.593  1.00  0.00    -0.388 OA 
HETATM   26  N   UNL     1     -13.058   7.115  70.862  1.00  0.00    -0.561 N  
HETATM   27  O   UNL     1     -12.236   5.599  72.642  1.00  0.00    -0.163 OA 
HETATM   28  H1  UNL     1     -13.858   7.348  71.448  1.00  0.00     0.000 HD 
HETATM   29  H2  UNL     1     -13.021   7.085  69.843  1.00  0.00     0.000 HD 
ENDBRANCH  20  24
BRANCH  21  30
HETATM   30  O   UNL     1      -9.073   7.652  72.395  1.00  0.00    -0.130 OA 
HETATM   31  C   UNL     1      -7.899   7.508  73.183  1.00  0.00    -0.102 C  
ENDBRANCH  21  30
ENDBRANCH  17  18
ENDBRANCH  15  17
ENDBRANCH  13  15
ENDBRANCH  12  13
ENDBRANCH  11  12
ENDBRANCH  10  11
ENDBRANCH   9  10
ENDBRANCH   3   4
ENDBRANCH   2   3
TORSDOF 11
ENDMDL
MODEL      358
REMARK 921   NORMALIZED FREE ENERGY PREDICTED BY IDOCK:   -3.14 KCAL/MOL
REMARK 922        TOTAL FREE ENERGY PREDICTED BY IDOCK:   -6.40 KCAL/MOL
REMARK 923 INTER-LIGAND FREE ENERGY PREDICTED BY IDOCK:   -5.40 KCAL/MOL
REMARK 924 INTRA-LIGAND FREE ENERGY PREDICTED BY IDOCK:   -1.00 KCAL/MOL
REMARK 927      BINDING AFFINITY PREDICTED BY RF-SCORE:    0.00 PKD
ROOT
HETATM    1  C   UNL     1      -9.014  11.641  68.044  1.00  0.00    -0.176 C  
HETATM    2  C   UNL     1      -9.383  10.478  67.135  1.00  0.00    -0.154 C  
ENDROOT
BRANCH   2   3
HETATM    3  O   UNL     1     -10.656  10.802  66.587  1.00  0.00    -0.245 OA 
BRANCH   3   4
HETATM    4  C   UNL     1     -10.970  12.086  66.262  1.00  0.00    -0.299 A  
HETATM    5  C   UNL     1     -11.799  12.897  67.049  1.00  0.00    -0.437 A  
HETATM    6  C   UNL     1     -12.113  14.201  66.654  1.00  0.00    -0.480 A  
HETATM    7  C   UNL     1     -11.598  14.711  65.464  1.00  0.00    -0.335 A  
HETATM    8  C   UNL     1     -10.763  13.918  64.679  1.00  0.00    -0.422 A  
HETATM    9  C   UNL     1     -10.435  12.609  65.066  1.00  0.00    -0.308 A  
BRANCH   9  10
HETATM   10  O   UNL     1      -9.591  11.995  64.169  1.00  0.00    -0.129 OA 
BRANCH  10  11
HETATM   11  C   UNL     1     -10.159  11.097  63.218  1.00  0.00    -0.380 C  
BRANCH  11  12
HETATM   12  C   UNL     1      -9.278   9.846  63.098  1.00  0.00    -0.249 C  
BRANCH  12  13
HETATM   13  N   UNL     1      -7.948   9.945  63.720  1.00  0.00    -0.141 NA 
HETATM   14  H   UNL     1      -7.891  10.791  64.289  1.00  0.00     0.000 HD 
BRANCH  13  15
HETATM   15  C   UNL     1      -7.527   8.774  64.513  1.00  0.00    -0.106 C  
HETATM   16  C   UNL     1      -5.998   8.847  64.648  1.00  0.00    -0.065 C  
BRANCH  15  17
HETATM   17  C   UNL     1      -7.974   7.415  63.904  1.00  0.00    -0.082 C  
BRANCH  17  18
HETATM   18  C   UNL     1      -8.123   6.347  64.965  1.00  0.00    -0.135 A  
HETATM   19  C   UNL     1      -8.698   6.673  66.198  1.00  0.00    -0.154 A  
HETATM   20  C   UNL     1      -8.634   5.770  67.267  1.00  0.00    -0.109 A  
HETATM   21  C   UNL     1      -8.099   4.488  67.088  1.00  0.00    -0.102 A  
HETATM   22  C   UNL     1      -7.602   5.065  64.778  1.00  0.00    -0.078 A  
HETATM   23  C   UNL     1      -7.610   4.137  65.825  1.00  0.00    -0.085 A  
BRANCH  20  24
HETATM   24  S   UNL     1      -9.115   6.278  68.900  1.00  0.00    -0.123 S  
HETATM   25  O   UNL     1     -10.162   5.393  69.354  1.00  0.00    -0.220 OA 
HETATM   26  N   UNL     1      -7.789   5.921  69.869  1.00  0.00    -0.094 N  
HETATM   27  O   UNL     1      -9.211   7.719  68.926  1.00  0.00    -0.141 OA 
HETATM   28  H1  UNL     1      -8.065   6.212  70.806  1.00  0.00     0.000 HD 
HETATM   29  H2  UNL     1      -6.903   5.505  69.583  1.00  0.00     0.000 HD 
ENDBRANCH  20  24
BRANCH  21  30
HETATM   30  O   UNL     1      -8.087   3.658  68.174  1.00  0.00    -0.081 OA 
HETATM   31  C   UNL     1      -8.482   2.305  67.987  1.00  0.00    -0.073 C  
ENDBRANCH  21  30
ENDBRANCH  17  18
ENDBRANCH  15  17
ENDBRANCH  13  15
ENDBRANCH  12  13
ENDBRANCH  11  12
ENDBRANCH  10  11
ENDBRANCH   9  10
ENDBRANCH   3   4
ENDBRANCH   2   3
TORSDOF 11
ENDMDL
MODEL      359
REMARK 921   NORMALIZED FREE ENERGY PREDICTED BY IDOCK:   -3.09 KCAL/MOL
REMARK 922        TOTAL FREE ENERGY PREDICTED BY IDOCK:   -6.33 KCAL/MOL
REMARK 923 INTER-LIGAND FREE ENERGY PREDICTED BY IDOCK:   -6.39 KCAL/MOL
REMARK 924 INTRA-LIGAND FREE ENERGY PREDICTED BY IDOCK:    0.06 KCAL/MOL
REMARK 927      BINDING AFFINITY PREDICTED BY RF-SCORE:    0.00 PKD
ROOT
HETATM    1  C   UNL     1     -12.250  14.228  64.396  1.00  0.00    -0.471 C  
HETATM    2  C   UNL     1     -12.626  12.800  64.761  1.00  0.00    -0.446 C  
ENDROOT
BRANCH   2   3
HETATM    3  O   UNL     1     -12.647  12.755  66.183  1.00  0.00    -0.428 OA 
BRANCH   3   4
HETATM    4  C   UNL     1     -11.646  13.318  66.915  1.00  0.00    -0.364 A  
HETATM    5  C   UNL     1     -11.736  14.596  67.484  1.00  0.00    -0.403 A  
HETATM    6  C   UNL     1     -10.667  15.138  68.204  1.00  0.00    -0.254 A  
HETATM    7  C   UNL     1      -9.493  14.405  68.365  1.00  0.00    -0.207 A  
HETATM    8  C   UNL     1      -9.396  13.129  67.814  1.00  0.00    -0.206 A  
HETATM    9  C   UNL     1     -10.464  12.569  67.093  1.00  0.00    -0.224 A  
BRANCH   9  10
HETATM   10  O   UNL     1     -10.181  11.300  66.643  1.00  0.00    -0.214 OA 
BRANCH  10  11
HETATM   11  C   UNL     1      -9.559  10.389  67.547  1.00  0.00    -0.156 C  
BRANCH  11  12
HETATM   12  C   UNL     1     -10.576   9.933  68.602  1.00  0.00    -0.217 C  
BRANCH  12  13
HETATM   13  N   UNL     1     -10.068   9.858  69.982  1.00  0.00    -0.254 NA 
HETATM   14  H   UNL     1      -9.795  10.787  70.304  1.00  0.00     0.000 HD 
BRANCH  13  15
HETATM   15  C   UNL     1     -10.977   9.232  70.961  1.00  0.00    -0.320 C  
HETATM   16  C   UNL     1     -10.117   8.799  72.159  1.00  0.00    -0.362 C  
BRANCH  15  17
HETATM   17  C   UNL     1     -11.785   8.034  70.386  1.00  0.00    -0.001 C  
BRANCH  17  18
HETATM   18  C   UNL     1     -10.935   6.788  70.270  1.00  0.00    -0.339 A  
HETATM   19  C   UNL     1     -10.684   6.015  71.409  1.00  0.00    -0.314 A  
HETATM   20  C   UNL     1      -9.720   5.000  71.374  1.00  0.00    -0.171 A  
HETATM   21  C   UNL     1      -9.077   4.666  70.175  1.00  0.00    -0.098 A  
HETATM   22  C   UNL     1     -10.308   6.449  69.070  1.00  0.00    -0.238 A  
HETATM   23  C   UNL     1      -9.403   5.383  69.019  1.00  0.00    -0.163 A  
BRANCH  20  24
HETATM   24  S   UNL     1      -9.203   4.201  72.875  1.00  0.00    -0.112 S  
HETATM   25  O   UNL     1     -10.035   4.688  73.950  1.00  0.00    -0.144 OA 
HETATM   26  N   UNL     1      -9.639   2.590  72.677  1.00  0.00    -0.099 N  
HETATM   27  O   UNL     1      -7.759   4.187  72.916  1.00  0.00    -0.077 OA 
HETATM   28  H1  UNL     1      -9.343   2.132  73.538  1.00  0.00     0.000 HD 
HETATM   29  H2  UNL     1     -10.100   2.164  71.873  1.00  0.00     0.000 HD 
ENDBRANCH  20  24
BRANCH  21  30
HETATM   30  O   UNL     1      -8.161   3.653  70.217  1.00  0.00    -0.049 OA 
HETATM   31  C   UNL     1      -8.100   2.759  69.113  1.00  0.00    -0.054 C  
ENDBRANCH  21  30
ENDBRANCH  17  18
ENDBRANCH  15  17
ENDBRANCH  13  15
ENDBRANCH  12  13
ENDBRANCH  11  12
ENDBRANCH  10  11
ENDBRANCH   9  10
ENDBRANCH   3   4
ENDBRANCH   2   3
TORSDOF 11
ENDMDL
MODEL      360
REMARK 921   NORMALIZED FREE ENERGY PREDICTED BY IDOCK:   -3.08 KCAL/MOL
REMARK 922        TOTAL FREE ENERGY PREDICTED BY IDOCK:   -6.31 KCAL/MOL
REMARK 923 INTER-LIGAND FREE ENERGY PREDICTED BY IDOCK:   -6.05 KCAL/MOL
REMARK 924 INTRA-LIGAND FREE ENERGY PREDICTED BY IDOCK:   -0.25 KCAL/MOL
REMARK 927      BINDING AFFINITY PREDICTED BY RF-SCORE:    0.00 PKD
ROOT
HETATM    1  C   UNL     1     -12.393  14.281  64.265  1.00  0.00    -0.407 C  
HETATM    2  C   UNL     1     -12.155  12.813  64.583  1.00  0.00    -0.423 C  
ENDROOT
BRANCH   2   3
HETATM    3  O   UNL     1     -12.252  12.701  65.998  1.00  0.00    -0.564 OA 
BRANCH   3   4
HETATM    4  C   UNL     1     -11.484  13.474  66.815  1.00  0.00    -0.346 A  
HETATM    5  C   UNL     1     -12.018  14.401  67.721  1.00  0.00    -0.368 A  
HETATM    6  C   UNL     1     -11.183  15.190  68.517  1.00  0.00    -0.301 A  
HETATM    7  C   UNL     1      -9.800  15.060  68.418  1.00  0.00    -0.222 A  
HETATM    8  C   UNL     1      -9.257  14.133  67.530  1.00  0.00    -0.192 A  
HETATM    9  C   UNL     1     -10.083  13.330  66.728  1.00  0.00    -0.258 A  
BRANCH   9  10
HETATM   10  O   UNL     1      -9.362  12.471  65.930  1.00  0.00    -0.164 OA 
BRANCH  10  11
HETATM   11  C   UNL     1      -8.450  11.574  66.561  1.00  0.00    -0.160 C  
BRANCH  11  12
HETATM   12  C   UNL     1      -9.227  10.428  67.223  1.00  0.00    -0.142 C  
BRANCH  12  13
HETATM   13  N   UNL     1      -8.558   9.784  68.365  1.00  0.00    -0.118 NA 
HETATM   14  H   UNL     1      -8.267  10.490  69.042  1.00  0.00     0.000 HD 
BRANCH  13  15
HETATM   15  C   UNL     1      -9.330   8.724  69.040  1.00  0.00    -0.145 C  
HETATM   16  C   UNL     1      -8.314   7.762  69.675  1.00  0.00    -0.129 C  
BRANCH  15  17
HETATM   17  C   UNL     1     -10.309   7.968  68.098  1.00  0.00    -0.250 C  
BRANCH  17  18
HETATM   18  C   UNL     1      -9.747   6.634  67.660  1.00  0.00    -0.142 A  
HETATM   19  C   UNL     1      -9.152   6.515  66.399  1.00  0.00    -0.172 A  
HETATM   20  C   UNL     1      -8.839   5.251  65.882  1.00  0.00    -0.145 A  
HETATM   21  C   UNL     1      -9.009   4.099  66.661  1.00  0.00    -0.125 A  
HETATM   22  C   UNL     1      -9.904   5.490  68.444  1.00  0.00    -0.186 A  
HETATM   23  C   UNL     1      -9.518   4.237  67.957  1.00  0.00    -0.212 A  
BRANCH  20  24
HETATM   24  S   UNL     1      -8.340   5.074  64.186  1.00  0.00    -0.133 S  
HETATM   25  O   UNL     1      -9.379   4.354  63.487  1.00  0.00    -0.147 OA 
HETATM   26  N   UNL     1      -8.387   6.632  63.559  1.00  0.00    -0.334 N  
HETATM   27  O   UNL     1      -6.943   4.707  64.153  1.00  0.00    -0.047 OA 
HETATM   28  H1  UNL     1      -8.101   6.530  62.586  1.00  0.00     0.000 HD 
HETATM   29  H2  UNL     1      -8.645   7.491  64.044  1.00  0.00     0.000 HD 
ENDBRANCH  20  24
BRANCH  21  30
HETATM   30  O   UNL     1      -8.665   2.904  66.094  1.00  0.00    -0.120 OA 
HETATM   31  C   UNL     1      -9.009   1.711  66.786  1.00  0.00    -0.102 C  
ENDBRANCH  21  30
ENDBRANCH  17  18
ENDBRANCH  15  17
ENDBRANCH  13  15
ENDBRANCH  12  13
ENDBRANCH  11  12
ENDBRANCH  10  11
ENDBRANCH   9  10
ENDBRANCH   3   4
ENDBRANCH   2   3
TORSDOF 11
ENDMDL
MODEL      361
REMARK 921   NORMALIZED FREE ENERGY PREDICTED BY IDOCK:   -3.08 KCAL/MOL
REMARK 922        TOTAL FREE ENERGY PREDICTED BY IDOCK:   -6.30 KCAL/MOL
REMARK 923 INTER-LIGAND FREE ENERGY PREDICTED BY IDOCK:   -6.05 KCAL/MOL
REMARK 924 INTRA-LIGAND FREE ENERGY PREDICTED BY IDOCK:   -0.25 KCAL/MOL
REMARK 927      BINDING AFFINITY PREDICTED BY RF-SCORE:    0.00 PKD
ROOT
HETATM    1  C   UNL     1      -6.722  15.644  69.234  1.00  0.00    -0.158 C  
HETATM    2  C   UNL     1      -6.752  16.888  68.360  1.00  0.00    -0.164 C  
ENDROOT
BRANCH   2   3
HETATM    3  O   UNL     1      -7.706  17.759  68.956  1.00  0.00    -0.232 OA 
BRANCH   3   4
HETATM    4  C   UNL     1      -8.618  18.424  68.194  1.00  0.00    -0.284 A  
HETATM    5  C   UNL     1      -8.564  19.805  67.961  1.00  0.00    -0.340 A  
HETATM    6  C   UNL     1      -9.542  20.442  67.193  1.00  0.00    -0.587 A  
HETATM    7  C   UNL     1     -10.589  19.704  66.645  1.00  0.00    -0.599 A  
HETATM    8  C   UNL     1     -10.646  18.328  66.859  1.00  0.00    -0.356 A  
HETATM    9  C   UNL     1      -9.668  17.673  67.624  1.00  0.00    -0.277 A  
BRANCH   9  10
HETATM   10  O   UNL     1      -9.891  16.318  67.708  1.00  0.00    -0.233 OA 
BRANCH  10  11
HETATM   11  C   UNL     1      -9.862  15.556  66.503  1.00  0.00    -0.264 C  
BRANCH  11  12
HETATM   12  C   UNL     1      -9.318  14.151  66.792  1.00  0.00    -0.282 C  
BRANCH  12  13
HETATM   13  N   UNL     1     -10.228  13.040  66.469  1.00  0.00    -0.263 NA 
HETATM   14  H   UNL     1      -9.771  12.390  65.828  1.00  0.00     0.000 HD 
BRANCH  13  15
HETATM   15  C   UNL     1     -10.774  12.307  67.627  1.00  0.00    -0.220 C  
HETATM   16  C   UNL     1     -11.830  13.215  68.277  1.00  0.00    -0.384 C  
BRANCH  15  17
HETATM   17  C   UNL     1      -9.693  11.874  68.658  1.00  0.00    -0.116 C  
BRANCH  17  18
HETATM   18  C   UNL     1      -9.669  10.373  68.848  1.00  0.00    -0.203 A  
HETATM   19  C   UNL     1      -8.459   9.734  69.142  1.00  0.00    -0.143 A  
HETATM   20  C   UNL     1      -8.368   8.337  69.092  1.00  0.00    -0.123 A  
HETATM   21  C   UNL     1      -9.508   7.556  68.861  1.00  0.00    -0.145 A  
HETATM   22  C   UNL     1     -10.809   9.598  68.632  1.00  0.00    -0.203 A  
HETATM   23  C   UNL     1     -10.733   8.201  68.660  1.00  0.00    -0.065 A  
BRANCH  20  24
HETATM   24  S   UNL     1      -6.786   7.536  69.195  1.00  0.00    -0.049 S  
HETATM   25  O   UNL     1      -6.336   7.261  67.851  1.00  0.00    -0.044 OA 
HETATM   26  N   UNL     1      -5.742   8.720  69.774  1.00  0.00    -0.029 N  
HETATM   27  O   UNL     1      -6.837   6.547  70.247  1.00  0.00    -0.054 OA 
HETATM   28  H1  UNL     1      -4.834   8.261  69.833  1.00  0.00     0.000 HD 
HETATM   29  H2  UNL     1      -5.967   9.686  70.013  1.00  0.00     0.000 HD 
ENDBRANCH  20  24
BRANCH  21  30
HETATM   30  O   UNL     1      -9.343   6.199  68.843  1.00  0.00    -0.124 OA 
HETATM   31  C   UNL     1      -8.957   5.588  67.619  1.00  0.00    -0.108 C  
ENDBRANCH  21  30
ENDBRANCH  17  18
ENDBRANCH  15  17
ENDBRANCH  13  15
ENDBRANCH  12  13
ENDBRANCH  11  12
ENDBRANCH  10  11
ENDBRANCH   9  10
ENDBRANCH   3   4
ENDBRANCH   2   3
TORSDOF 11
ENDMDL
MODEL      362
REMARK 921   NORMALIZED FREE ENERGY PREDICTED BY IDOCK:   -3.08 KCAL/MOL
REMARK 922        TOTAL FREE ENERGY PREDICTED BY IDOCK:   -6.30 KCAL/MOL
REMARK 923 INTER-LIGAND FREE ENERGY PREDICTED BY IDOCK:   -5.90 KCAL/MOL
REMARK 924 INTRA-LIGAND FREE ENERGY PREDICTED BY IDOCK:   -0.40 KCAL/MOL
REMARK 927      BINDING AFFINITY PREDICTED BY RF-SCORE:    0.00 PKD
ROOT
HETATM    1  C   UNL     1     -11.841  14.532  64.574  1.00  0.00    -0.459 C  
HETATM    2  C   UNL     1     -12.528  13.189  64.771  1.00  0.00    -0.402 C  
ENDROOT
BRANCH   2   3
HETATM    3  O   UNL     1     -12.594  12.989  66.177  1.00  0.00    -0.421 OA 
BRANCH   3   4
HETATM    4  C   UNL     1     -11.646  13.513  67.003  1.00  0.00    -0.359 A  
HETATM    5  C   UNL     1     -11.793  14.744  67.658  1.00  0.00    -0.319 A  
HETATM    6  C   UNL     1     -10.777  15.249  68.474  1.00  0.00    -0.247 A  
HETATM    7  C   UNL     1      -9.598  14.526  68.647  1.00  0.00    -0.219 A  
HETATM    8  C   UNL     1      -9.446  13.295  68.011  1.00  0.00    -0.219 A  
HETATM    9  C   UNL     1     -10.460  12.773  67.193  1.00  0.00    -0.233 A  
BRANCH   9  10
HETATM   10  O   UNL     1     -10.128  11.546  66.668  1.00  0.00    -0.203 OA 
BRANCH  10  11
HETATM   11  C   UNL     1      -9.906  10.465  67.573  1.00  0.00    -0.172 C  
BRANCH  11  12
HETATM   12  C   UNL     1     -10.087   9.130  66.838  1.00  0.00    -0.258 C  
BRANCH  12  13
HETATM   13  N   UNL     1     -11.029   8.186  67.462  1.00  0.00    -0.493 NA 
HETATM   14  H   UNL     1     -11.958   8.301  67.057  1.00  0.00     0.000 HD 
BRANCH  13  15
HETATM   15  C   UNL     1     -10.630   6.767  67.416  1.00  0.00    -0.302 C  
HETATM   16  C   UNL     1     -11.141   6.114  68.711  1.00  0.00    -0.398 C  
BRANCH  15  17
HETATM   17  C   UNL     1      -9.099   6.553  67.246  1.00  0.00    -0.117 C  
BRANCH  17  18
HETATM   18  C   UNL     1      -8.422   6.263  68.567  1.00  0.00    -0.115 A  
HETATM   19  C   UNL     1      -8.083   7.322  69.416  1.00  0.00    -0.130 A  
HETATM   20  C   UNL     1      -7.255   7.101  70.525  1.00  0.00    -0.067 A  
HETATM   21  C   UNL     1      -6.849   5.804  70.864  1.00  0.00    -0.058 A  
HETATM   22  C   UNL     1      -8.031   4.968  68.910  1.00  0.00    -0.081 A  
HETATM   23  C   UNL     1      -7.269   4.739  70.061  1.00  0.00    -0.054 A  
BRANCH  20  24
HETATM   24  S   UNL     1      -6.603   8.473  71.445  1.00  0.00    -0.073 S  
HETATM   25  O   UNL     1      -7.415   9.632  71.157  1.00  0.00    -0.328 OA 
HETATM   26  N   UNL     1      -6.922   8.102  73.053  1.00  0.00    -0.101 N  
HETATM   27  O   UNL     1      -5.162   8.454  71.343  1.00  0.00    -0.032 OA 
HETATM   28  H1  UNL     1      -6.548   8.889  73.582  1.00  0.00     0.000 HD 
HETATM   29  H2  UNL     1      -7.387   7.272  73.420  1.00  0.00     0.000 HD 
ENDBRANCH  20  24
BRANCH  21  30
HETATM   30  O   UNL     1      -6.055   5.667  71.969  1.00  0.00    -0.035 OA 
HETATM   31  C   UNL     1      -5.645   4.357  72.339  1.00  0.00    -0.004 C  
ENDBRANCH  21  30
ENDBRANCH  17  18
ENDBRANCH  15  17
ENDBRANCH  13  15
ENDBRANCH  12  13
ENDBRANCH  11  12
ENDBRANCH  10  11
ENDBRANCH   9  10
ENDBRANCH   3   4
ENDBRANCH   2   3
TORSDOF 11
ENDMDL
MODEL      363
REMARK 921   NORMALIZED FREE ENERGY PREDICTED BY IDOCK:   -3.05 KCAL/MOL
REMARK 922        TOTAL FREE ENERGY PREDICTED BY IDOCK:   -6.25 KCAL/MOL
REMARK 923 INTER-LIGAND FREE ENERGY PREDICTED BY IDOCK:   -5.32 KCAL/MOL
REMARK 924 INTRA-LIGAND FREE ENERGY PREDICTED BY IDOCK:   -0.93 KCAL/MOL
REMARK 927      BINDING AFFINITY PREDICTED BY RF-SCORE:    0.00 PKD
ROOT
HETATM    1  C   UNL     1      -7.729   7.735  67.712  1.00  0.00    -0.122 C  
HETATM    2  C   UNL     1      -7.073   7.158  68.957  1.00  0.00    -0.084 C  
ENDROOT
BRANCH   2   3
HETATM    3  O   UNL     1      -7.793   7.694  70.060  1.00  0.00    -0.097 OA 
BRANCH   3   4
HETATM    4  C   UNL     1      -7.826   7.045  71.256  1.00  0.00    -0.099 A  
HETATM    5  C   UNL     1      -7.009   7.391  72.342  1.00  0.00    -0.063 A  
HETATM    6  C   UNL     1      -7.063   6.673  73.539  1.00  0.00    -0.076 A  
HETATM    7  C   UNL     1      -7.939   5.597  73.668  1.00  0.00    -0.108 A  
HETATM    8  C   UNL     1      -8.766   5.251  72.600  1.00  0.00    -0.120 A  
HETATM    9  C   UNL     1      -8.726   5.967  71.393  1.00  0.00    -0.133 A  
BRANCH   9  10
HETATM   10  O   UNL     1      -9.623   5.483  70.469  1.00  0.00    -0.161 OA 
BRANCH  10  11
HETATM   11  C   UNL     1     -10.503   6.411  69.837  1.00  0.00    -0.213 C  
BRANCH  11  12
HETATM   12  C   UNL     1     -11.332   7.143  70.900  1.00  0.00    -0.286 C  
BRANCH  12  13
HETATM   13  N   UNL     1     -12.142   8.269  70.408  1.00  0.00    -0.439 NA 
HETATM   14  H   UNL     1     -13.037   8.295  70.898  1.00  0.00     0.000 HD 
BRANCH  13  15
HETATM   15  C   UNL     1     -11.495   9.594  70.469  1.00  0.00    -0.285 C  
HETATM   16  C   UNL     1     -10.554   9.579  71.684  1.00  0.00    -0.100 C  
BRANCH  15  17
HETATM   17  C   UNL     1     -12.501  10.777  70.552  1.00  0.00    -0.447 C  
BRANCH  17  18
HETATM   18  C   UNL     1     -12.140  11.889  69.592  1.00  0.00    -0.304 A  
HETATM   19  C   UNL     1     -11.126  11.685  68.649  1.00  0.00    -0.287 A  
HETATM   20  C   UNL     1     -10.619  12.764  67.914  1.00  0.00    -0.221 A  
HETATM   21  C   UNL     1     -11.193  14.037  68.026  1.00  0.00    -0.279 A  
HETATM   22  C   UNL     1     -12.724  13.152  69.696  1.00  0.00     0.403 A  
HETATM   23  C   UNL     1     -12.269  14.211  68.903  1.00  0.00    -0.257 A  
BRANCH  20  24
HETATM   24  S   UNL     1      -9.159  12.566  66.921  1.00  0.00    -0.210 S  
HETATM   25  O   UNL     1      -9.084  11.186  66.505  1.00  0.00    -0.171 OA 
HETATM   26  N   UNL     1      -9.474  13.432  65.516  1.00  0.00    -0.485 N  
HETATM   27  O   UNL     1      -8.072  13.277  67.554  1.00  0.00    -0.162 OA 
HETATM   28  H1  UNL     1      -8.637  13.319  64.946  1.00  0.00     0.000 HD 
HETATM   29  H2  UNL     1     -10.318  13.956  65.283  1.00  0.00     0.000 HD 
ENDBRANCH  20  24
BRANCH  21  30
HETATM   30  O   UNL     1     -10.654  15.036  67.264  1.00  0.00    -0.269 OA 
HETATM   31  C   UNL     1     -10.129  16.176  67.930  1.00  0.00    -0.244 C  
ENDBRANCH  21  30
ENDBRANCH  17  18
ENDBRANCH  15  17
ENDBRANCH  13  15
ENDBRANCH  12  13
ENDBRANCH  11  12
ENDBRANCH  10  11
ENDBRANCH   9  10
ENDBRANCH   3   4
ENDBRANCH   2   3
TORSDOF 11
ENDMDL
MODEL      364
REMARK 921   NORMALIZED FREE ENERGY PREDICTED BY IDOCK:   -3.05 KCAL/MOL
REMARK 922        TOTAL FREE ENERGY PREDICTED BY IDOCK:   -6.25 KCAL/MOL
REMARK 923 INTER-LIGAND FREE ENERGY PREDICTED BY IDOCK:   -6.32 KCAL/MOL
REMARK 924 INTRA-LIGAND FREE ENERGY PREDICTED BY IDOCK:    0.08 KCAL/MOL
REMARK 927      BINDING AFFINITY PREDICTED BY RF-SCORE:    0.00 PKD
ROOT
HETATM    1  C   UNL     1      -7.276   9.384  66.330  1.00  0.00    -0.089 C  
HETATM    2  C   UNL     1      -8.003   9.964  67.534  1.00  0.00    -0.106 C  
ENDROOT
BRANCH   2   3
HETATM    3  O   UNL     1      -8.797   8.905  68.055  1.00  0.00    -0.133 OA 
BRANCH   3   4
HETATM    4  C   UNL     1      -9.523   9.070  69.195  1.00  0.00    -0.153 A  
HETATM    5  C   UNL     1      -9.088   8.628  70.453  1.00  0.00    -0.176 A  
HETATM    6  C   UNL     1      -9.885   8.799  71.588  1.00  0.00    -0.378 A  
HETATM    7  C   UNL     1     -11.129   9.417  71.480  1.00  0.00    -0.446 A  
HETATM    8  C   UNL     1     -11.566   9.873  70.237  1.00  0.00    -0.319 A  
HETATM    9  C   UNL     1     -10.774   9.713  69.089  1.00  0.00    -0.217 A  
BRANCH   9  10
HETATM   10  O   UNL     1     -11.371  10.237  67.965  1.00  0.00    -0.282 OA 
BRANCH  10  11
HETATM   11  C   UNL     1     -11.780  11.604  67.998  1.00  0.00    -0.281 C  
BRANCH  11  12
HETATM   12  C   UNL     1     -11.616  12.226  66.606  1.00  0.00    -0.375 C  
BRANCH  12  13
HETATM   13  N   UNL     1     -12.184  13.574  66.442  1.00  0.00    -0.415 NA 
HETATM   14  H   UNL     1     -12.995  13.687  67.051  1.00  0.00     0.000 HD 
BRANCH  13  15
HETATM   15  C   UNL     1     -11.241  14.691  66.646  1.00  0.00    -0.349 C  
HETATM   16  C   UNL     1      -9.964  14.351  65.861  1.00  0.00    -0.350 C  
BRANCH  15  17
HETATM   17  C   UNL     1     -10.923  14.973  68.142  1.00  0.00    -0.281 C  
BRANCH  17  18
HETATM   18  C   UNL     1      -9.928  16.102  68.301  1.00  0.00    -0.226 A  
HETATM   19  C   UNL     1      -8.557  15.825  68.257  1.00  0.00    -0.170 A  
HETATM   20  C   UNL     1      -7.627  16.804  68.631  1.00  0.00    -0.222 A  
HETATM   21  C   UNL     1      -8.046  18.105  68.942  1.00  0.00    -0.156 A  
HETATM   22  C   UNL     1     -10.348  17.400  68.596  1.00  0.00    -0.364 A  
HETATM   23  C   UNL     1      -9.413  18.398  68.893  1.00  0.00    -0.250 A  
BRANCH  20  24
HETATM   24  S   UNL     1      -5.914  16.382  68.839  1.00  0.00    -0.140 S  
HETATM   25  O   UNL     1      -5.292  16.381  67.536  1.00  0.00    -0.128 OA 
HETATM   26  N   UNL     1      -5.243  17.696  69.645  1.00  0.00    -0.178 N  
HETATM   27  O   UNL     1      -5.820  15.288  69.778  1.00  0.00    -0.115 OA 
HETATM   28  H1  UNL     1      -4.260  17.454  69.764  1.00  0.00     0.000 HD 
HETATM   29  H2  UNL     1      -5.714  18.548  69.947  1.00  0.00     0.000 HD 
ENDBRANCH  20  24
BRANCH  21  30
HETATM   30  O   UNL     1      -7.078  19.009  69.281  1.00  0.00    -0.307 OA 
HETATM   31  C   UNL     1      -7.390  20.392  69.178  1.00  0.00     0.277 C  
ENDBRANCH  21  30
ENDBRANCH  17  18
ENDBRANCH  15  17
ENDBRANCH  13  15
ENDBRANCH  12  13
ENDBRANCH  11  12
ENDBRANCH  10  11
ENDBRANCH   9  10
ENDBRANCH   3   4
ENDBRANCH   2   3
TORSDOF 11
ENDMDL
MODEL      365
REMARK 921   NORMALIZED FREE ENERGY PREDICTED BY IDOCK:   -3.01 KCAL/MOL
REMARK 922        TOTAL FREE ENERGY PREDICTED BY IDOCK:   -6.20 KCAL/MOL
REMARK 923 INTER-LIGAND FREE ENERGY PREDICTED BY IDOCK:   -6.00 KCAL/MOL
REMARK 924 INTRA-LIGAND FREE ENERGY PREDICTED BY IDOCK:   -0.20 KCAL/MOL
REMARK 927      BINDING AFFINITY PREDICTED BY RF-SCORE:    0.00 PKD
ROOT
HETATM    1  C   UNL     1     -10.619  19.093  66.017  1.00  0.00    -0.524 C  
HETATM    2  C   UNL     1      -9.470  18.458  66.786  1.00  0.00    -0.297 C  
ENDROOT
BRANCH   2   3
HETATM    3  O   UNL     1      -9.690  17.054  66.724  1.00  0.00    -0.248 OA 
BRANCH   3   4
HETATM    4  C   UNL     1     -10.163  16.373  67.804  1.00  0.00    -0.274 A  
HETATM    5  C   UNL     1     -10.782  16.997  68.896  1.00  0.00    -0.300 A  
HETATM    6  C   UNL     1     -11.225  16.252  69.993  1.00  0.00    -0.324 A  
HETATM    7  C   UNL     1     -11.054  14.869  70.010  1.00  0.00    -0.263 A  
HETATM    8  C   UNL     1     -10.451  14.236  68.925  1.00  0.00    -0.241 A  
HETATM    9  C   UNL     1     -10.007  14.971  67.814  1.00  0.00    -0.229 A  
BRANCH   9  10
HETATM   10  O   UNL     1      -9.453  14.167  66.844  1.00  0.00    -0.246 OA 
BRANCH  10  11
HETATM   11  C   UNL     1      -9.658  12.759  66.941  1.00  0.00    -0.235 C  
BRANCH  11  12
HETATM   12  C   UNL     1     -10.954  12.374  66.215  1.00  0.00    -0.286 C  
BRANCH  12  13
HETATM   13  N   UNL     1     -10.872  11.176  65.364  1.00  0.00    -0.194 NA 
HETATM   14  H   UNL     1     -11.769  11.013  64.905  1.00  0.00     0.000 HD 
BRANCH  13  15
HETATM   15  C   UNL     1      -9.787  11.178  64.365  1.00  0.00    -0.284 C  
HETATM   16  C   UNL     1     -10.431  11.468  63.000  1.00  0.00    -0.255 C  
BRANCH  15  17
HETATM   17  C   UNL     1      -8.968   9.856  64.331  1.00  0.00    -0.275 C  
BRANCH  17  18
HETATM   18  C   UNL     1      -8.204   9.636  65.618  1.00  0.00    -0.121 A  
HETATM   19  C   UNL     1      -8.829   8.990  66.690  1.00  0.00    -0.152 A  
HETATM   20  C   UNL     1      -8.230   8.983  67.956  1.00  0.00    -0.110 A  
HETATM   21  C   UNL     1      -6.948   9.518  68.142  1.00  0.00    -0.078 A  
HETATM   22  C   UNL     1      -6.921  10.157  65.796  1.00  0.00    -0.123 A  
HETATM   23  C   UNL     1      -6.291  10.079  67.043  1.00  0.00    -0.064 A  
BRANCH  20  24
HETATM   24  S   UNL     1      -9.134   8.409  69.374  1.00  0.00    -0.154 S  
HETATM   25  O   UNL     1      -8.571   9.036  70.547  1.00  0.00    -0.160 OA 
HETATM   26  N   UNL     1     -10.665   9.081  69.208  1.00  0.00    -0.331 N  
HETATM   27  O   UNL     1      -9.342   6.985  69.243  1.00  0.00    -0.146 OA 
HETATM   28  H1  UNL     1     -11.184   8.752  70.022  1.00  0.00     0.000 HD 
HETATM   29  H2  UNL     1     -11.002   9.686  68.459  1.00  0.00     0.000 HD 
ENDBRANCH  20  24
BRANCH  21  30
HETATM   30  O   UNL     1      -6.423   9.459  69.403  1.00  0.00    -0.043 OA 
HETATM   31  C   UNL     1      -5.214  10.161  69.657  1.00  0.00    -0.038 C  
ENDBRANCH  21  30
ENDBRANCH  17  18
ENDBRANCH  15  17
ENDBRANCH  13  15
ENDBRANCH  12  13
ENDBRANCH  11  12
ENDBRANCH  10  11
ENDBRANCH   9  10
ENDBRANCH   3   4
ENDBRANCH   2   3
TORSDOF 11
ENDMDL
MODEL      366
REMARK 921   NORMALIZED FREE ENERGY PREDICTED BY IDOCK:   -3.00 KCAL/MOL
REMARK 922        TOTAL FREE ENERGY PREDICTED BY IDOCK:   -6.17 KCAL/MOL
REMARK 923 INTER-LIGAND FREE ENERGY PREDICTED BY IDOCK:   -6.08 KCAL/MOL
REMARK 924 INTRA-LIGAND FREE ENERGY PREDICTED BY IDOCK:   -0.09 KCAL/MOL
REMARK 927      BINDING AFFINITY PREDICTED BY RF-SCORE:    0.00 PKD
ROOT
HETATM    1  C   UNL     1     -10.432  16.852  65.777  1.00  0.00    -0.279 C  
HETATM    2  C   UNL     1     -10.198  15.637  66.661  1.00  0.00    -0.279 C  
ENDROOT
BRANCH   2   3
HETATM    3  O   UNL     1     -11.296  14.765  66.420  1.00  0.00    -0.345 OA 
BRANCH   3   4
HETATM    4  C   UNL     1     -11.152  13.657  65.641  1.00  0.00    -0.294 A  
HETATM    5  C   UNL     1     -11.478  13.628  64.278  1.00  0.00    -0.393 A  
HETATM    6  C   UNL     1     -11.336  12.456  63.531  1.00  0.00    -0.553 A  
HETATM    7  C   UNL     1     -10.863  11.295  64.138  1.00  0.00    -0.407 A  
HETATM    8  C   UNL     1     -10.522  11.315  65.490  1.00  0.00    -0.323 A  
HETATM    9  C   UNL     1     -10.655  12.487  66.252  1.00  0.00    -0.248 A  
BRANCH   9  10
HETATM   10  O   UNL     1     -10.257  12.309  67.557  1.00  0.00    -0.201 OA 
BRANCH  10  11
HETATM   11  C   UNL     1      -9.172  11.419  67.813  1.00  0.00    -0.159 C  
BRANCH  11  12
HETATM   12  C   UNL     1      -9.441  10.633  69.103  1.00  0.00    -0.170 C  
BRANCH  12  13
HETATM   13  N   UNL     1      -9.262   9.176  69.008  1.00  0.00    -0.142 NA 
HETATM   14  H   UNL     1      -8.823   8.822  69.858  1.00  0.00     0.000 HD 
BRANCH  13  15
HETATM   15  C   UNL     1     -10.483   8.403  68.710  1.00  0.00    -0.178 C  
HETATM   16  C   UNL     1     -10.475   7.176  69.636  1.00  0.00    -0.241 C  
BRANCH  15  17
HETATM   17  C   UNL     1     -10.606   7.980  67.219  1.00  0.00    -0.360 C  
BRANCH  17  18
HETATM   18  C   UNL     1      -9.608   6.903  66.856  1.00  0.00    -0.205 A  
HETATM   19  C   UNL     1      -9.915   5.990  65.841  1.00  0.00     0.205 A  
HETATM   20  C   UNL     1      -9.118   4.855  65.648  1.00  0.00    -0.151 A  
HETATM   21  C   UNL     1      -7.941   4.674  66.388  1.00  0.00    -0.103 A  
HETATM   22  C   UNL     1      -8.429   6.735  67.584  1.00  0.00    -0.122 A  
HETATM   23  C   UNL     1      -7.592   5.641  67.337  1.00  0.00    -0.089 A  
BRANCH  20  24
HETATM   24  S   UNL     1      -9.649   3.561  64.553  1.00  0.00    -0.176 S  
HETATM   25  O   UNL     1      -8.615   3.358  63.565  1.00  0.00    -0.089 OA 
HETATM   26  N   UNL     1      -9.636   2.168  65.494  1.00  0.00    -0.346 N  
HETATM   27  O   UNL     1     -11.041   3.772  64.230  1.00  0.00    -0.322 OA 
HETATM   28  H1  UNL     1      -9.940   1.426  64.865  1.00  0.00     0.000 HD 
HETATM   29  H2  UNL     1      -9.379   2.084  66.477  1.00  0.00     0.000 HD 
ENDBRANCH  20  24
BRANCH  21  30
HETATM   30  O   UNL     1      -7.208   3.549  66.131  1.00  0.00    -0.065 OA 
HETATM   31  C   UNL     1      -6.724   2.800  67.237  1.00  0.00    -0.041 C  
ENDBRANCH  21  30
ENDBRANCH  17  18
ENDBRANCH  15  17
ENDBRANCH  13  15
ENDBRANCH  12  13
ENDBRANCH  11  12
ENDBRANCH  10  11
ENDBRANCH   9  10
ENDBRANCH   3   4
ENDBRANCH   2   3
TORSDOF 11
ENDMDL
MODEL      367
REMARK 921   NORMALIZED FREE ENERGY PREDICTED BY IDOCK:   -2.98 KCAL/MOL
REMARK 922        TOTAL FREE ENERGY PREDICTED BY IDOCK:   -6.14 KCAL/MOL
REMARK 923 INTER-LIGAND FREE ENERGY PREDICTED BY IDOCK:   -5.32 KCAL/MOL
REMARK 924 INTRA-LIGAND FREE ENERGY PREDICTED BY IDOCK:   -0.82 KCAL/MOL
REMARK 927      BINDING AFFINITY PREDICTED BY RF-SCORE:    0.00 PKD
ROOT
HETATM    1  C   UNL     1      -6.946   2.615  70.052  1.00  0.00    -0.034 C  
HETATM    2  C   UNL     1      -8.455   2.419  70.072  1.00  0.00    -0.047 C  
ENDROOT
BRANCH   2   3
HETATM    3  O   UNL     1      -8.925   2.905  68.820  1.00  0.00    -0.103 OA 
BRANCH   3   4
HETATM    4  C   UNL     1      -8.782   4.216  68.480  1.00  0.00    -0.098 A  
HETATM    5  C   UNL     1      -7.889   4.661  67.495  1.00  0.00    -0.090 A  
HETATM    6  C   UNL     1      -7.761   6.022  67.204  1.00  0.00    -0.101 A  
HETATM    7  C   UNL     1      -8.528   6.957  67.895  1.00  0.00    -0.120 A  
HETATM    8  C   UNL     1      -9.429   6.526  68.868  1.00  0.00    -0.129 A  
HETATM    9  C   UNL     1      -9.571   5.162  69.167  1.00  0.00    -0.146 A  
BRANCH   9  10
HETATM   10  O   UNL     1     -10.516   4.937  70.142  1.00  0.00    -0.244 OA 
BRANCH  10  11
HETATM   11  C   UNL     1     -10.143   5.154  71.502  1.00  0.00    -0.193 C  
BRANCH  11  12
HETATM   12  C   UNL     1     -11.274   5.885  72.238  1.00  0.00    -0.291 C  
BRANCH  12  13
HETATM   13  N   UNL     1     -11.671   7.181  71.663  1.00  0.00    -0.276 NA 
HETATM   14  H   UNL     1     -12.531   7.508  72.103  1.00  0.00     0.000 HD 
BRANCH  13  15
HETATM   15  C   UNL     1     -10.644   8.239  71.711  1.00  0.00    -0.259 C  
HETATM   16  C   UNL     1      -9.942   8.124  73.073  1.00  0.00    -0.303 C  
BRANCH  15  17
HETATM   17  C   UNL     1     -11.212   9.670  71.491  1.00  0.00    -0.377 C  
BRANCH  17  18
HETATM   18  C   UNL     1     -10.887  10.197  70.111  1.00  0.00    -0.368 A  
HETATM   19  C   UNL     1      -9.553  10.260  69.693  1.00  0.00    -0.192 A  
HETATM   20  C   UNL     1      -9.212  10.954  68.524  1.00  0.00    -0.181 A  
HETATM   21  C   UNL     1     -10.207  11.494  67.698  1.00  0.00    -0.184 A  
HETATM   22  C   UNL     1     -11.882  10.720  69.283  1.00  0.00    -0.359 A  
HETATM   23  C   UNL     1     -11.545  11.344  68.077  1.00  0.00    -0.357 A  
BRANCH  20  24
HETATM   24  S   UNL     1      -7.508  11.270  68.133  1.00  0.00    -0.097 S  
HETATM   25  O   UNL     1      -6.712  10.917  69.285  1.00  0.00    -0.065 OA 
HETATM   26  N   UNL     1      -7.116  10.129  66.963  1.00  0.00    -0.088 N  
HETATM   27  O   UNL     1      -7.419  12.540  67.451  1.00  0.00    -0.142 OA 
HETATM   28  H1  UNL     1      -6.138  10.310  66.739  1.00  0.00     0.000 HD 
HETATM   29  H2  UNL     1      -7.723   9.412  66.565  1.00  0.00     0.000 HD 
ENDBRANCH  20  24
BRANCH  21  30
HETATM   30  O   UNL     1      -9.796  12.141  66.567  1.00  0.00    -0.209 OA 
HETATM   31  C   UNL     1     -10.755  12.909  65.851  1.00  0.00    -0.271 C  
ENDBRANCH  21  30
ENDBRANCH  17  18
ENDBRANCH  15  17
ENDBRANCH  13  15
ENDBRANCH  12  13
ENDBRANCH  11  12
ENDBRANCH  10  11
ENDBRANCH   9  10
ENDBRANCH   3   4
ENDBRANCH   2   3
TORSDOF 11
ENDMDL
MODEL      368
REMARK 921   NORMALIZED FREE ENERGY PREDICTED BY IDOCK:   -2.98 KCAL/MOL
REMARK 922        TOTAL FREE ENERGY PREDICTED BY IDOCK:   -6.14 KCAL/MOL
REMARK 923 INTER-LIGAND FREE ENERGY PREDICTED BY IDOCK:   -5.62 KCAL/MOL
REMARK 924 INTRA-LIGAND FREE ENERGY PREDICTED BY IDOCK:   -0.51 KCAL/MOL
REMARK 927      BINDING AFFINITY PREDICTED BY RF-SCORE:    0.00 PKD
ROOT
HETATM    1  C   UNL     1     -10.785  19.519  67.058  1.00  0.00    -0.592 C  
HETATM    2  C   UNL     1      -9.571  19.474  66.144  1.00  0.00    -0.362 C  
ENDROOT
BRANCH   2   3
HETATM    3  O   UNL     1      -9.326  18.096  65.890  1.00  0.00    -0.517 OA 
BRANCH   3   4
HETATM    4  C   UNL     1      -8.303  17.442  66.507  1.00  0.00    -0.273 A  
HETATM    5  C   UNL     1      -6.968  17.537  66.090  1.00  0.00    -0.323 A  
HETATM    6  C   UNL     1      -5.959  16.823  66.742  1.00  0.00    -0.154 A  
HETATM    7  C   UNL     1      -6.274  16.004  67.824  1.00  0.00    -0.164 A  
HETATM    8  C   UNL     1      -7.596  15.911  68.257  1.00  0.00    -0.135 A  
HETATM    9  C   UNL     1      -8.619  16.627  67.614  1.00  0.00    -0.200 A  
BRANCH   9  10
HETATM   10  O   UNL     1      -9.848  16.415  68.194  1.00  0.00    -0.231 OA 
BRANCH  10  11
HETATM   11  C   UNL     1     -10.532  15.199  67.894  1.00  0.00    -0.245 C  
BRANCH  11  12
HETATM   12  C   UNL     1     -11.594  14.925  68.967  1.00  0.00    -0.305 C  
BRANCH  12  13
HETATM   13  N   UNL     1     -11.287  13.826  69.897  1.00  0.00    -0.469 NA 
HETATM   14  H   UNL     1     -10.988  14.203  70.796  1.00  0.00     0.000 HD 
BRANCH  13  15
HETATM   15  C   UNL     1     -12.367  12.841  70.096  1.00  0.00    -0.165 C  
HETATM   16  C   UNL     1     -13.356  13.454  71.100  1.00  0.00    -0.096 C  
BRANCH  15  17
HETATM   17  C   UNL     1     -11.864  11.452  70.579  1.00  0.00    -0.394 C  
BRANCH  17  18
HETATM   18  C   UNL     1     -11.008  10.770  69.534  1.00  0.00    -0.317 A  
HETATM   19  C   UNL     1      -9.770  11.322  69.188  1.00  0.00     0.008 A  
HETATM   20  C   UNL     1      -9.073  10.846  68.070  1.00  0.00    -0.152 A  
HETATM   21  C   UNL     1      -9.546   9.740  67.352  1.00  0.00    -0.155 A  
HETATM   22  C   UNL     1     -11.475   9.658  68.831  1.00  0.00     0.184 A  
HETATM   23  C   UNL     1     -10.738   9.135  67.763  1.00  0.00    -0.243 A  
BRANCH  20  24
HETATM   24  S   UNL     1      -7.645  11.714  67.466  1.00  0.00    -0.137 S  
HETATM   25  O   UNL     1      -7.109  12.502  68.550  1.00  0.00    -0.094 OA 
HETATM   26  N   UNL     1      -6.501  10.516  67.186  1.00  0.00    -0.070 N  
HETATM   27  O   UNL     1      -7.948  12.245  66.157  1.00  0.00     0.363 OA 
HETATM   28  H1  UNL     1      -5.681  11.014  66.840  1.00  0.00     0.000 HD 
HETATM   29  H2  UNL     1      -6.602   9.511  67.331  1.00  0.00     0.000 HD 
ENDBRANCH  20  24
BRANCH  21  30
HETATM   30  O   UNL     1      -8.802   9.324  66.283  1.00  0.00    -0.135 OA 
HETATM   31  C   UNL     1      -9.219   9.720  64.983  1.00  0.00    -0.249 C  
ENDBRANCH  21  30
ENDBRANCH  17  18
ENDBRANCH  15  17
ENDBRANCH  13  15
ENDBRANCH  12  13
ENDBRANCH  11  12
ENDBRANCH  10  11
ENDBRANCH   9  10
ENDBRANCH   3   4
ENDBRANCH   2   3
TORSDOF 11
ENDMDL
MODEL      369
REMARK 921   NORMALIZED FREE ENERGY PREDICTED BY IDOCK:   -2.98 KCAL/MOL
REMARK 922        TOTAL FREE ENERGY PREDICTED BY IDOCK:   -6.13 KCAL/MOL
REMARK 923 INTER-LIGAND FREE ENERGY PREDICTED BY IDOCK:   -5.48 KCAL/MOL
REMARK 924 INTRA-LIGAND FREE ENERGY PREDICTED BY IDOCK:   -0.66 KCAL/MOL
REMARK 927      BINDING AFFINITY PREDICTED BY RF-SCORE:    0.00 PKD
ROOT
HETATM    1  C   UNL     1      -6.450   5.546  71.087  1.00  0.00    -0.036 C  
HETATM    2  C   UNL     1      -6.940   6.114  69.764  1.00  0.00    -0.070 C  
ENDROOT
BRANCH   2   3
HETATM    3  O   UNL     1      -8.355   6.206  69.881  1.00  0.00    -0.124 OA 
BRANCH   3   4
HETATM    4  C   UNL     1      -9.159   6.035  68.796  1.00  0.00    -0.124 A  
HETATM    5  C   UNL     1      -9.221   4.840  68.066  1.00  0.00    -0.151 A  
HETATM    6  C   UNL     1     -10.045   4.727  66.943  1.00  0.00    -0.246 A  
HETATM    7  C   UNL     1     -10.820   5.810  66.535  1.00  0.00    -0.227 A  
HETATM    8  C   UNL     1     -10.776   7.000  67.260  1.00  0.00    -0.412 A  
HETATM    9  C   UNL     1      -9.958   7.126  68.394  1.00  0.00    -0.158 A  
BRANCH   9  10
HETATM   10  O   UNL     1     -10.063   8.368  68.978  1.00  0.00    -0.192 OA 
BRANCH  10  11
HETATM   11  C   UNL     1      -9.804   9.515  68.170  1.00  0.00    -0.155 C  
BRANCH  11  12
HETATM   12  C   UNL     1      -9.323  10.672  69.055  1.00  0.00    -0.180 C  
BRANCH  12  13
HETATM   13  N   UNL     1      -7.897  11.015  68.931  1.00  0.00    -0.137 NA 
HETATM   14  H   UNL     1      -7.373  10.209  68.590  1.00  0.00     0.000 HD 
BRANCH  13  15
HETATM   15  C   UNL     1      -7.597  12.199  68.105  1.00  0.00    -0.125 C  
HETATM   16  C   UNL     1      -6.578  11.760  67.042  1.00  0.00    -0.140 C  
BRANCH  15  17
HETATM   17  C   UNL     1      -7.070  13.413  68.921  1.00  0.00    -0.084 C  
BRANCH  17  18
HETATM   18  C   UNL     1      -7.773  14.696  68.537  1.00  0.00    -0.126 A  
HETATM   19  C   UNL     1      -7.135  15.606  67.688  1.00  0.00    -0.192 A  
HETATM   20  C   UNL     1      -7.661  16.892  67.508  1.00  0.00    -0.169 A  
HETATM   21  C   UNL     1      -8.890  17.247  68.080  1.00  0.00    -0.238 A  
HETATM   22  C   UNL     1      -9.005  15.041  69.097  1.00  0.00    -0.186 A  
HETATM   23  C   UNL     1      -9.568  16.298  68.852  1.00  0.00    -0.243 A  
BRANCH  20  24
HETATM   24  S   UNL     1      -6.721  18.135  66.655  1.00  0.00    -0.215 S  
HETATM   25  O   UNL     1      -6.557  19.261  67.545  1.00  0.00    -0.200 OA 
HETATM   26  N   UNL     1      -5.183  17.476  66.495  1.00  0.00    -0.168 N  
HETATM   27  O   UNL     1      -7.217  18.242  65.303  1.00  0.00    -0.494 OA 
HETATM   28  H1  UNL     1      -4.643  18.189  66.006  1.00  0.00     0.000 HD 
HETATM   29  H2  UNL     1      -4.860  16.563  66.816  1.00  0.00     0.000 HD 
ENDBRANCH  20  24
BRANCH  21  30
HETATM   30  O   UNL     1      -9.346  18.514  67.845  1.00  0.00    -0.283 OA 
HETATM   31  C   UNL     1     -10.703  18.675  67.454  1.00  0.00    -0.402 C  
ENDBRANCH  21  30
ENDBRANCH  17  18
ENDBRANCH  15  17
ENDBRANCH  13  15
ENDBRANCH  12  13
ENDBRANCH  11  12
ENDBRANCH  10  11
ENDBRANCH   9  10
ENDBRANCH   3   4
ENDBRANCH   2   3
TORSDOF 11
ENDMDL
MODEL      370
REMARK 921   NORMALIZED FREE ENERGY PREDICTED BY IDOCK:   -2.96 KCAL/MOL
REMARK 922        TOTAL FREE ENERGY PREDICTED BY IDOCK:   -6.11 KCAL/MOL
REMARK 923 INTER-LIGAND FREE ENERGY PREDICTED BY IDOCK:   -6.05 KCAL/MOL
REMARK 924 INTRA-LIGAND FREE ENERGY PREDICTED BY IDOCK:   -0.06 KCAL/MOL
REMARK 927      BINDING AFFINITY PREDICTED BY RF-SCORE:    0.00 PKD
ROOT
HETATM    1  C   UNL     1      -9.812   8.929  68.682  1.00  0.00    -0.179 C  
HETATM    2  C   UNL     1     -10.817   8.058  67.944  1.00  0.00     0.026 C  
ENDROOT
BRANCH   2   3
HETATM    3  O   UNL     1     -10.318   7.927  66.619  1.00  0.00    -0.291 OA 
BRANCH   3   4
HETATM    4  C   UNL     1      -9.145   8.514  66.252  1.00  0.00    -0.185 A  
HETATM    5  C   UNL     1      -7.888   7.988  66.579  1.00  0.00    -0.097 A  
HETATM    6  C   UNL     1      -6.714   8.646  66.200  1.00  0.00    -0.069 A  
HETATM    7  C   UNL     1      -6.784   9.840  65.487  1.00  0.00    -0.090 A  
HETATM    8  C   UNL     1      -8.028  10.366  65.144  1.00  0.00    -0.134 A  
HETATM    9  C   UNL     1      -9.215   9.713  65.513  1.00  0.00    -0.234 A  
BRANCH   9  10
HETATM   10  O   UNL     1     -10.336  10.380  65.073  1.00  0.00    -0.306 OA 
BRANCH  10  11
HETATM   11  C   UNL     1     -11.067  11.162  66.017  1.00  0.00    -0.048 C  
BRANCH  11  12
HETATM   12  C   UNL     1     -10.137  12.201  66.657  1.00  0.00    -0.199 C  
BRANCH  12  13
HETATM   13  N   UNL     1     -10.323  12.413  68.101  1.00  0.00    -0.220 NA 
HETATM   14  H   UNL     1      -9.477  12.144  68.605  1.00  0.00     0.000 HD 
BRANCH  13  15
HETATM   15  C   UNL     1     -10.734  13.774  68.497  1.00  0.00    -0.262 C  
HETATM   16  C   UNL     1     -12.125  13.655  69.138  1.00  0.00    -0.361 C  
BRANCH  15  17
HETATM   17  C   UNL     1     -10.742  14.790  67.320  1.00  0.00    -0.294 C  
BRANCH  17  18
HETATM   18  C   UNL     1      -9.543  15.711  67.364  1.00  0.00    -0.217 A  
HETATM   19  C   UNL     1      -9.655  16.962  67.981  1.00  0.00    -0.247 A  
HETATM   20  C   UNL     1      -8.640  17.916  67.832  1.00  0.00    -0.252 A  
HETATM   21  C   UNL     1      -7.452  17.595  67.163  1.00  0.00    -0.193 A  
HETATM   22  C   UNL     1      -8.354  15.383  66.710  1.00  0.00    -0.285 A  
HETATM   23  C   UNL     1      -7.310  16.310  66.629  1.00  0.00    -0.204 A  
BRANCH  20  24
HETATM   24  S   UNL     1      -8.893  19.588  68.378  1.00  0.00    -0.319 S  
HETATM   25  O   UNL     1      -9.213  20.392  67.222  1.00  0.00    -0.374 OA 
HETATM   26  N   UNL     1     -10.309  19.535  69.282  1.00  0.00    -0.558 N  
HETATM   27  O   UNL     1      -7.861  19.922  69.332  1.00  0.00    -0.130 OA 
HETATM   28  H1  UNL     1     -10.454  20.494  69.595  1.00  0.00     0.000 HD 
HETATM   29  H2  UNL     1     -10.895  18.723  69.475  1.00  0.00     0.000 HD 
ENDBRANCH  20  24
BRANCH  21  30
HETATM   30  O   UNL     1      -6.501  18.574  67.073  1.00  0.00    -0.180 OA 
HETATM   31  C   UNL     1      -5.279  18.261  66.419  1.00  0.00    -0.148 C  
ENDBRANCH  21  30
ENDBRANCH  17  18
ENDBRANCH  15  17
ENDBRANCH  13  15
ENDBRANCH  12  13
ENDBRANCH  11  12
ENDBRANCH  10  11
ENDBRANCH   9  10
ENDBRANCH   3   4
ENDBRANCH   2   3
TORSDOF 11
ENDMDL
MODEL      371
REMARK 921   NORMALIZED FREE ENERGY PREDICTED BY IDOCK:   -2.94 KCAL/MOL
REMARK 922        TOTAL FREE ENERGY PREDICTED BY IDOCK:   -6.08 KCAL/MOL
REMARK 923 INTER-LIGAND FREE ENERGY PREDICTED BY IDOCK:   -5.73 KCAL/MOL
REMARK 924 INTRA-LIGAND FREE ENERGY PREDICTED BY IDOCK:   -0.35 KCAL/MOL
REMARK 927      BINDING AFFINITY PREDICTED BY RF-SCORE:    0.00 PKD
ROOT
HETATM    1  C   UNL     1     -10.082   5.618  68.687  1.00  0.00    -0.240 C  
HETATM    2  C   UNL     1     -10.384   6.383  67.408  1.00  0.00    -0.205 C  
ENDROOT
BRANCH   2   3
HETATM    3  O   UNL     1     -10.260   7.760  67.740  1.00  0.00    -0.187 OA 
BRANCH   3   4
HETATM    4  C   UNL     1      -9.422   8.575  67.042  1.00  0.00    -0.173 A  
HETATM    5  C   UNL     1      -8.231   8.129  66.451  1.00  0.00    -0.108 A  
HETATM    6  C   UNL     1      -7.393   9.014  65.768  1.00  0.00    -0.089 A  
HETATM    7  C   UNL     1      -7.737  10.360  65.665  1.00  0.00    -0.150 A  
HETATM    8  C   UNL     1      -8.924  10.814  66.237  1.00  0.00    -0.184 A  
HETATM    9  C   UNL     1      -9.779   9.935  66.922  1.00  0.00    -0.186 A  
BRANCH   9  10
HETATM   10  O   UNL     1     -10.903  10.567  67.401  1.00  0.00    -0.266 OA 
BRANCH  10  11
HETATM   11  C   UNL     1     -11.314  10.285  68.738  1.00  0.00    -0.167 C  
BRANCH  11  12
HETATM   12  C   UNL     1     -10.950  11.463  69.650  1.00  0.00    -0.110 C  
BRANCH  12  13
HETATM   13  N   UNL     1     -11.921  11.766  70.713  1.00  0.00    -0.438 NA 
HETATM   14  H   UNL     1     -11.681  11.254  71.562  1.00  0.00     0.000 HD 
BRANCH  13  15
HETATM   15  C   UNL     1     -12.101  13.198  71.022  1.00  0.00    -0.020 C  
HETATM   16  C   UNL     1     -12.720  13.281  72.426  1.00  0.00    -0.069 C  
BRANCH  15  17
HETATM   17  C   UNL     1     -12.969  13.957  69.978  1.00  0.00     0.229 C  
BRANCH  17  18
HETATM   18  C   UNL     1     -12.151  14.406  68.788  1.00  0.00    -0.276 A  
HETATM   19  C   UNL     1     -11.403  15.585  68.871  1.00  0.00    -0.329 A  
HETATM   20  C   UNL     1     -10.830  16.140  67.719  1.00  0.00    -0.318 A  
HETATM   21  C   UNL     1     -10.900  15.467  66.492  1.00  0.00    -0.298 A  
HETATM   22  C   UNL     1     -12.210  13.725  67.571  1.00  0.00    -0.262 A  
HETATM   23  C   UNL     1     -11.571  14.241  66.438  1.00  0.00    -0.381 A  
BRANCH  20  24
HETATM   24  S   UNL     1     -10.115  17.766  67.765  1.00  0.00    -0.363 S  
HETATM   25  O   UNL     1     -11.014  18.670  67.087  1.00  0.00    -0.357 OA 
HETATM   26  N   UNL     1     -10.178  18.217  69.383  1.00  0.00    -0.301 N  
HETATM   27  O   UNL     1      -8.705  17.658  67.469  1.00  0.00    -0.230 OA 
HETATM   28  H1  UNL     1      -9.768  19.150  69.410  1.00  0.00     0.000 HD 
HETATM   29  H2  UNL     1     -10.546  17.677  70.166  1.00  0.00     0.000 HD 
ENDBRANCH  20  24
BRANCH  21  30
HETATM   30  O   UNL     1     -10.303  16.063  65.416  1.00  0.00    -0.409 OA 
HETATM   31  C   UNL     1     -11.136  16.540  64.368  1.00  0.00     0.159 C  
ENDBRANCH  21  30
ENDBRANCH  17  18
ENDBRANCH  15  17
ENDBRANCH  13  15
ENDBRANCH  12  13
ENDBRANCH  11  12
ENDBRANCH  10  11
ENDBRANCH   9  10
ENDBRANCH   3   4
ENDBRANCH   2   3
TORSDOF 11
ENDMDL
MODEL      372
REMARK 921   NORMALIZED FREE ENERGY PREDICTED BY IDOCK:   -2.90 KCAL/MOL
REMARK 922        TOTAL FREE ENERGY PREDICTED BY IDOCK:   -6.01 KCAL/MOL
REMARK 923 INTER-LIGAND FREE ENERGY PREDICTED BY IDOCK:   -5.95 KCAL/MOL
REMARK 924 INTRA-LIGAND FREE ENERGY PREDICTED BY IDOCK:   -0.06 KCAL/MOL
REMARK 927      BINDING AFFINITY PREDICTED BY RF-SCORE:    0.00 PKD
ROOT
HETATM    1  C   UNL     1      -9.027  16.091  65.536  1.00  0.00     0.424 C  
HETATM    2  C   UNL     1      -9.612  14.886  66.257  1.00  0.00    -0.307 C  
ENDROOT
BRANCH   2   3
HETATM    3  O   UNL     1     -10.908  14.694  65.704  1.00  0.00    -0.303 OA 
BRANCH   3   4
HETATM    4  C   UNL     1     -11.171  13.634  64.891  1.00  0.00    -0.342 A  
HETATM    5  C   UNL     1     -12.113  13.676  63.853  1.00  0.00    -0.462 A  
HETATM    6  C   UNL     1     -12.364  12.550  63.066  1.00  0.00    -0.078 A  
HETATM    7  C   UNL     1     -11.675  11.363  63.306  1.00  0.00     0.074 A  
HETATM    8  C   UNL     1     -10.727  11.312  64.327  1.00  0.00    -0.416 A  
HETATM    9  C   UNL     1     -10.460  12.438  65.122  1.00  0.00    -0.292 A  
BRANCH   9  10
HETATM   10  O   UNL     1      -9.486  12.193  66.064  1.00  0.00    -0.239 OA 
BRANCH  10  11
HETATM   11  C   UNL     1      -9.747  11.204  67.058  1.00  0.00    -0.186 C  
BRANCH  11  12
HETATM   12  C   UNL     1      -9.389  11.757  68.444  1.00  0.00    -0.185 C  
BRANCH  12  13
HETATM   13  N   UNL     1      -9.717  13.174  68.665  1.00  0.00    -0.403 NA 
HETATM   14  H   UNL     1      -9.791  13.659  67.770  1.00  0.00     0.000 HD 
BRANCH  13  15
HETATM   15  C   UNL     1     -10.921  13.429  69.479  1.00  0.00     0.051 C  
HETATM   16  C   UNL     1     -12.115  13.475  68.513  1.00  0.00    -0.303 C  
BRANCH  15  17
HETATM   17  C   UNL     1     -10.836  14.729  70.329  1.00  0.00    -0.073 C  
BRANCH  17  18
HETATM   18  C   UNL     1     -10.123  15.838  69.589  1.00  0.00    -0.289 A  
HETATM   19  C   UNL     1      -8.730  15.802  69.466  1.00  0.00    -0.160 A  
HETATM   20  C   UNL     1      -8.033  16.923  68.995  1.00  0.00    -0.169 A  
HETATM   21  C   UNL     1      -8.725  18.050  68.533  1.00  0.00    -0.295 A  
HETATM   22  C   UNL     1     -10.816  16.954  69.116  1.00  0.00    -0.237 A  
HETATM   23  C   UNL     1     -10.123  18.042  68.573  1.00  0.00    -0.399 A  
BRANCH  20  24
HETATM   24  S   UNL     1      -6.260  16.984  69.091  1.00  0.00    -0.215 S  
HETATM   25  O   UNL     1      -5.732  16.749  67.768  1.00  0.00    -0.118 OA 
HETATM   26  N   UNL     1      -5.903  18.591  69.428  1.00  0.00    -0.235 N  
HETATM   27  O   UNL     1      -5.838  16.260  70.268  1.00  0.00    -0.183 OA 
HETATM   28  H1  UNL     1      -4.886  18.626  69.483  1.00  0.00     0.000 HD 
HETATM   29  H2  UNL     1      -6.560  19.362  69.549  1.00  0.00     0.000 HD 
ENDBRANCH  20  24
BRANCH  21  30
HETATM   30  O   UNL     1      -7.976  19.098  68.073  1.00  0.00    -0.278 OA 
HETATM   31  C   UNL     1      -8.481  19.851  66.978  1.00  0.00    -0.328 C  
ENDBRANCH  21  30
ENDBRANCH  17  18
ENDBRANCH  15  17
ENDBRANCH  13  15
ENDBRANCH  12  13
ENDBRANCH  11  12
ENDBRANCH  10  11
ENDBRANCH   9  10
ENDBRANCH   3   4
ENDBRANCH   2   3
TORSDOF 11
ENDMDL
MODEL      373
REMARK 921   NORMALIZED FREE ENERGY PREDICTED BY IDOCK:   -2.88 KCAL/MOL
REMARK 922        TOTAL FREE ENERGY PREDICTED BY IDOCK:   -5.97 KCAL/MOL
REMARK 923 INTER-LIGAND FREE ENERGY PREDICTED BY IDOCK:   -6.35 KCAL/MOL
REMARK 924 INTRA-LIGAND FREE ENERGY PREDICTED BY IDOCK:    0.38 KCAL/MOL
REMARK 927      BINDING AFFINITY PREDICTED BY RF-SCORE:    0.00 PKD
ROOT
HETATM    1  C   UNL     1      -5.127  10.503  67.196  1.00  0.00    -0.040 C  
HETATM    2  C   UNL     1      -6.362  11.257  67.665  1.00  0.00    -0.059 C  
ENDROOT
BRANCH   2   3
HETATM    3  O   UNL     1      -7.365  10.270  67.871  1.00  0.00    -0.085 OA 
BRANCH   3   4
HETATM    4  C   UNL     1      -7.262   9.371  68.890  1.00  0.00    -0.072 A  
HETATM    5  C   UNL     1      -6.820   9.714  70.175  1.00  0.00    -0.097 A  
HETATM    6  C   UNL     1      -6.707   8.747  71.177  1.00  0.00    -0.075 A  
HETATM    7  C   UNL     1      -7.038   7.421  70.906  1.00  0.00    -0.063 A  
HETATM    8  C   UNL     1      -7.491   7.070  69.635  1.00  0.00    -0.098 A  
HETATM    9  C   UNL     1      -7.614   8.032  68.620  1.00  0.00    -0.100 A  
BRANCH   9  10
HETATM   10  O   UNL     1      -8.089   7.495  67.446  1.00  0.00    -0.113 OA 
BRANCH  10  11
HETATM   11  C   UNL     1      -8.453   8.390  66.396  1.00  0.00    -0.123 C  
BRANCH  11  12
HETATM   12  C   UNL     1      -9.965   8.646  66.437  1.00  0.00    -0.260 C  
BRANCH  12  13
HETATM   13  N   UNL     1     -10.403   9.943  65.898  1.00  0.00    -0.179 NA 
HETATM   14  H   UNL     1     -11.274   9.829  65.378  1.00  0.00     0.000 HD 
BRANCH  13  15
HETATM   15  C   UNL     1     -10.545  11.028  66.887  1.00  0.00    -0.258 C  
HETATM   16  C   UNL     1     -11.041  10.385  68.192  1.00  0.00    -0.344 C  
BRANCH  15  17
HETATM   17  C   UNL     1     -11.494  12.172  66.428  1.00  0.00    -0.430 C  
BRANCH  17  18
HETATM   18  C   UNL     1     -11.563  13.287  67.448  1.00  0.00    -0.396 A  
HETATM   19  C   UNL     1     -11.079  14.557  67.116  1.00  0.00    -0.325 A  
HETATM   20  C   UNL     1     -10.920  15.533  68.108  1.00  0.00    -0.312 A  
HETATM   21  C   UNL     1     -11.347  15.293  69.421  1.00  0.00    -0.294 A  
HETATM   22  C   UNL     1     -12.004  13.049  68.751  1.00  0.00    -0.302 A  
HETATM   23  C   UNL     1     -11.917  14.052  69.723  1.00  0.00    -0.393 A  
BRANCH  20  24
HETATM   24  S   UNL     1     -10.057  17.045  67.750  1.00  0.00    -0.315 S  
HETATM   25  O   UNL     1      -8.687  16.890  68.180  1.00  0.00    -0.213 OA 
HETATM   26  N   UNL     1      -9.987  17.112  66.072  1.00  0.00    -0.282 N  
HETATM   27  O   UNL     1     -10.899  18.156  68.127  1.00  0.00    -0.287 OA 
HETATM   28  H1  UNL     1      -9.492  17.979  65.867  1.00  0.00     0.000 HD 
HETATM   29  H2  UNL     1     -10.357  16.434  65.406  1.00  0.00     0.000 HD 
ENDBRANCH  20  24
BRANCH  21  30
HETATM   30  O   UNL     1     -11.173  16.300  70.329  1.00  0.00    -0.367 OA 
HETATM   31  C   UNL     1     -11.855  16.204  71.573  1.00  0.00    -0.463 C  
ENDBRANCH  21  30
ENDBRANCH  17  18
ENDBRANCH  15  17
ENDBRANCH  13  15
ENDBRANCH  12  13
ENDBRANCH  11  12
ENDBRANCH  10  11
ENDBRANCH   9  10
ENDBRANCH   3   4
ENDBRANCH   2   3
TORSDOF 11
ENDMDL
MODEL      374
REMARK 921   NORMALIZED FREE ENERGY PREDICTED BY IDOCK:   -2.83 KCAL/MOL
REMARK 922        TOTAL FREE ENERGY PREDICTED BY IDOCK:   -5.89 KCAL/MOL
REMARK 923 INTER-LIGAND FREE ENERGY PREDICTED BY IDOCK:   -5.61 KCAL/MOL
REMARK 924 INTRA-LIGAND FREE ENERGY PREDICTED BY IDOCK:   -0.28 KCAL/MOL
REMARK 927      BINDING AFFINITY PREDICTED BY RF-SCORE:    0.00 PKD
ROOT
HETATM    1  C   UNL     1     -10.426  16.785  65.560  1.00  0.00    -0.254 C  
HETATM    2  C   UNL     1     -10.176  15.536  66.391  1.00  0.00    -0.289 C  
ENDROOT
BRANCH   2   3
HETATM    3  O   UNL     1     -11.337  14.729  66.237  1.00  0.00    -0.343 OA 
BRANCH   3   4
HETATM    4  C   UNL     1     -11.333  13.649  65.408  1.00  0.00    -0.301 A  
HETATM    5  C   UNL     1     -12.153  13.547  64.275  1.00  0.00    -0.482 A  
HETATM    6  C   UNL     1     -12.129  12.403  63.472  1.00  0.00    -0.651 A  
HETATM    7  C   UNL     1     -11.281  11.344  63.793  1.00  0.00    -0.375 A  
HETATM    8  C   UNL     1     -10.453  11.439  64.910  1.00  0.00    -0.363 A  
HETATM    9  C   UNL     1     -10.462  12.584  65.722  1.00  0.00    -0.271 A  
BRANCH   9  10
HETATM   10  O   UNL     1      -9.568  12.493  66.764  1.00  0.00    -0.218 OA 
BRANCH  10  11
HETATM   11  C   UNL     1      -8.326  11.832  66.527  1.00  0.00    -0.093 C  
BRANCH  11  12
HETATM   12  C   UNL     1      -7.281  12.317  67.540  1.00  0.00    -0.139 C  
BRANCH  12  13
HETATM   13  N   UNL     1      -6.716  11.279  68.416  1.00  0.00    -0.059 NA 
HETATM   14  H   UNL     1      -5.777  11.546  68.713  1.00  0.00     0.000 HD 
BRANCH  13  15
HETATM   15  C   UNL     1      -7.534  10.922  69.590  1.00  0.00    -0.022 C  
HETATM   16  C   UNL     1      -6.659  10.044  70.499  1.00  0.00    -0.122 C  
BRANCH  15  17
HETATM   17  C   UNL     1      -8.866  10.204  69.228  1.00  0.00    -0.191 C  
BRANCH  17  18
HETATM   18  C   UNL     1      -8.646   8.742  68.908  1.00  0.00    -0.136 A  
HETATM   19  C   UNL     1      -9.159   7.763  69.766  1.00  0.00    -0.147 A  
HETATM   20  C   UNL     1      -8.774   6.424  69.619  1.00  0.00    -0.138 A  
HETATM   21  C   UNL     1      -7.964   6.027  68.547  1.00  0.00    -0.107 A  
HETATM   22  C   UNL     1      -7.851   8.349  67.831  1.00  0.00    -0.107 A  
HETATM   23  C   UNL     1      -7.531   7.000  67.640  1.00  0.00    -0.098 A  
BRANCH  20  24
HETATM   24  S   UNL     1      -9.202   5.226  70.860  1.00  0.00    -0.150 S  
HETATM   25  O   UNL     1      -9.817   4.099  70.200  1.00  0.00    -0.209 OA 
HETATM   26  N   UNL     1      -7.728   4.652  71.429  1.00  0.00    -0.083 N  
HETATM   27  O   UNL     1      -9.785   5.917  71.986  1.00  0.00    -0.154 OA 
HETATM   28  H1  UNL     1      -7.973   3.964  72.140  1.00  0.00     0.000 HD 
HETATM   29  H2  UNL     1      -6.794   4.929  71.128  1.00  0.00     0.000 HD 
ENDBRANCH  20  24
BRANCH  21  30
HETATM   30  O   UNL     1      -7.644   4.701  68.462  1.00  0.00    -0.068 OA 
HETATM   31  C   UNL     1      -6.476   4.340  67.737  1.00  0.00    -0.038 C  
ENDBRANCH  21  30
ENDBRANCH  17  18
ENDBRANCH  15  17
ENDBRANCH  13  15
ENDBRANCH  12  13
ENDBRANCH  11  12
ENDBRANCH  10  11
ENDBRANCH   9  10
ENDBRANCH   3   4
ENDBRANCH   2   3
TORSDOF 11
ENDMDL
MODEL      375
REMARK 921   NORMALIZED FREE ENERGY PREDICTED BY IDOCK:   -2.78 KCAL/MOL
REMARK 922        TOTAL FREE ENERGY PREDICTED BY IDOCK:   -5.81 KCAL/MOL
REMARK 923 INTER-LIGAND FREE ENERGY PREDICTED BY IDOCK:   -5.56 KCAL/MOL
REMARK 924 INTRA-LIGAND FREE ENERGY PREDICTED BY IDOCK:   -0.25 KCAL/MOL
REMARK 927      BINDING AFFINITY PREDICTED BY RF-SCORE:    0.00 PKD
ROOT
HETATM    1  C   UNL     1      -9.173  16.330  66.051  1.00  0.00    -0.351 C  
HETATM    2  C   UNL     1      -9.406  15.052  66.842  1.00  0.00    -0.241 C  
ENDROOT
BRANCH   2   3
HETATM    3  O   UNL     1     -10.767  14.701  66.623  1.00  0.00    -0.294 OA 
BRANCH   3   4
HETATM    4  C   UNL     1     -11.120  13.875  65.600  1.00  0.00    -0.298 A  
HETATM    5  C   UNL     1     -11.829  14.310  64.471  1.00  0.00    -0.456 A  
HETATM    6  C   UNL     1     -12.191  13.414  63.461  1.00  0.00    -0.468 A  
HETATM    7  C   UNL     1     -11.846  12.068  63.567  1.00  0.00    -0.587 A  
HETATM    8  C   UNL     1     -11.130  11.626  64.679  1.00  0.00    -0.342 A  
HETATM    9  C   UNL     1     -10.755  12.516  65.698  1.00  0.00    -0.266 A  
BRANCH   9  10
HETATM   10  O   UNL     1     -10.046  11.894  66.700  1.00  0.00    -0.197 OA 
BRANCH  10  11
HETATM   11  C   UNL     1      -9.580  10.566  66.468  1.00  0.00    -0.174 C  
BRANCH  11  12
HETATM   12  C   UNL     1      -8.759  10.088  67.673  1.00  0.00    -0.121 C  
BRANCH  12  13
HETATM   13  N   UNL     1      -9.033   8.715  68.123  1.00  0.00    -0.141 NA 
HETATM   14  H   UNL     1      -8.292   8.398  68.749  1.00  0.00     0.000 HD 
BRANCH  13  15
HETATM   15  C   UNL     1     -10.350   8.503  68.754  1.00  0.00    -0.213 C  
HETATM   16  C   UNL     1     -10.209   8.895  70.234  1.00  0.00    -0.230 C  
BRANCH  15  17
HETATM   17  C   UNL     1     -10.887   7.051  68.606  1.00  0.00    -0.191 C  
BRANCH  17  18
HETATM   18  C   UNL     1     -10.396   6.155  69.722  1.00  0.00    -0.269 A  
HETATM   19  C   UNL     1      -9.067   5.717  69.722  1.00  0.00    -0.151 A  
HETATM   20  C   UNL     1      -8.656   4.710  70.604  1.00  0.00    -0.099 A  
HETATM   21  C   UNL     1      -9.534   4.208  71.574  1.00  0.00    -0.154 A  
HETATM   22  C   UNL     1     -11.270   5.668  70.696  1.00  0.00    -0.089 A  
HETATM   23  C   UNL     1     -10.835   4.719  71.628  1.00  0.00     0.087 A  
BRANCH  20  24
HETATM   24  S   UNL     1      -7.054   3.962  70.428  1.00  0.00    -0.038 S  
HETATM   25  O   UNL     1      -7.183   2.834  69.535  1.00  0.00    -0.043 OA 
HETATM   26  N   UNL     1      -6.143   5.092  69.581  1.00  0.00    -0.021 N  
HETATM   27  O   UNL     1      -6.432   3.892  71.730  1.00  0.00    -0.014 OA 
HETATM   28  H1  UNL     1      -5.224   4.662  69.479  1.00  0.00     0.000 HD 
HETATM   29  H2  UNL     1      -6.443   6.005  69.242  1.00  0.00     0.000 HD 
ENDBRANCH  20  24
BRANCH  21  30
HETATM   30  O   UNL     1      -9.054   3.239  72.410  1.00  0.00    -0.093 OA 
HETATM   31  C   UNL     1      -9.786   2.024  72.515  1.00  0.00    -0.106 C  
ENDBRANCH  21  30
ENDBRANCH  17  18
ENDBRANCH  15  17
ENDBRANCH  13  15
ENDBRANCH  12  13
ENDBRANCH  11  12
ENDBRANCH  10  11
ENDBRANCH   9  10
ENDBRANCH   3   4
ENDBRANCH   2   3
TORSDOF 11
ENDMDL
MODEL      376
REMARK 921   NORMALIZED FREE ENERGY PREDICTED BY IDOCK:   -2.70 KCAL/MOL
REMARK 922        TOTAL FREE ENERGY PREDICTED BY IDOCK:   -5.68 KCAL/MOL
REMARK 923 INTER-LIGAND FREE ENERGY PREDICTED BY IDOCK:   -4.69 KCAL/MOL
REMARK 924 INTRA-LIGAND FREE ENERGY PREDICTED BY IDOCK:   -0.99 KCAL/MOL
REMARK 927      BINDING AFFINITY PREDICTED BY RF-SCORE:    0.00 PKD
ROOT
HETATM    1  C   UNL     1      -6.930   8.504  73.384  1.00  0.00    -0.068 C  
HETATM    2  C   UNL     1      -7.670   7.727  74.462  1.00  0.00    -0.194 C  
ENDROOT
BRANCH   2   3
HETATM    3  O   UNL     1      -8.813   7.171  73.824  1.00  0.00    -0.150 OA 
BRANCH   3   4
HETATM    4  C   UNL     1      -8.977   5.822  73.733  1.00  0.00    -0.127 A  
HETATM    5  C   UNL     1      -8.060   4.900  74.257  1.00  0.00    -0.100 A  
HETATM    6  C   UNL     1      -8.263   3.525  74.112  1.00  0.00    -0.078 A  
HETATM    7  C   UNL     1      -9.390   3.054  73.441  1.00  0.00    -0.106 A  
HETATM    8  C   UNL     1     -10.315   3.961  72.927  1.00  0.00    -0.241 A  
HETATM    9  C   UNL     1     -10.127   5.345  73.070  1.00  0.00    -0.176 A  
BRANCH   9  10
HETATM   10  O   UNL     1     -11.152   6.072  72.509  1.00  0.00    -0.249 OA 
BRANCH  10  11
HETATM   11  C   UNL     1     -11.047   6.429  71.132  1.00  0.00    -0.291 C  
BRANCH  11  12
HETATM   12  C   UNL     1     -11.339   7.926  70.963  1.00  0.00    -0.274 C  
BRANCH  12  13
HETATM   13  N   UNL     1     -10.670   8.578  69.826  1.00  0.00    -0.250 NA 
HETATM   14  H   UNL     1     -11.264   9.316  69.448  1.00  0.00     0.000 HD 
BRANCH  13  15
HETATM   15  C   UNL     1      -9.320   9.107  70.100  1.00  0.00    -0.209 C  
HETATM   16  C   UNL     1      -9.212  10.460  69.380  1.00  0.00    -0.177 C  
BRANCH  15  17
HETATM   17  C   UNL     1      -8.174   8.147  69.668  1.00  0.00    -0.120 C  
BRANCH  17  18
HETATM   18  C   UNL     1      -8.331   7.695  68.234  1.00  0.00    -0.125 A  
HETATM   19  C   UNL     1      -8.883   6.439  67.962  1.00  0.00    -0.113 A  
HETATM   20  C   UNL     1      -8.824   5.906  66.667  1.00  0.00    -0.123 A  
HETATM   21  C   UNL     1      -8.317   6.668  65.605  1.00  0.00    -0.144 A  
HETATM   22  C   UNL     1      -7.840   8.462  67.176  1.00  0.00    -0.100 A  
HETATM   23  C   UNL     1      -7.853   7.960  65.870  1.00  0.00    -0.101 A  
BRANCH  20  24
HETATM   24  S   UNL     1      -9.273   4.213  66.371  1.00  0.00    -0.171 S  
HETATM   25  O   UNL     1      -9.825   3.677  67.593  1.00  0.00    -0.120 OA 
HETATM   26  N   UNL     1     -10.567   4.292  65.301  1.00  0.00    -0.569 N  
HETATM   27  O   UNL     1      -8.214   3.580  65.620  1.00  0.00    -0.096 OA 
HETATM   28  H1  UNL     1     -10.824   3.321  65.132  1.00  0.00     0.000 HD 
HETATM   29  H2  UNL     1     -11.000   5.128  64.908  1.00  0.00     0.000 HD 
ENDBRANCH  20  24
BRANCH  21  30
HETATM   30  O   UNL     1      -8.308   6.086  64.368  1.00  0.00    -0.111 OA 
HETATM   31  C   UNL     1      -7.769   6.830  63.283  1.00  0.00    -0.106 C  
ENDBRANCH  21  30
ENDBRANCH  17  18
ENDBRANCH  15  17
ENDBRANCH  13  15
ENDBRANCH  12  13
ENDBRANCH  11  12
ENDBRANCH  10  11
ENDBRANCH   9  10
ENDBRANCH   3   4
ENDBRANCH   2   3
TORSDOF 11
ENDMDL
MODEL      377
REMARK 921   NORMALIZED FREE ENERGY PREDICTED BY IDOCK:   -2.67 KCAL/MOL
REMARK 922        TOTAL FREE ENERGY PREDICTED BY IDOCK:   -5.64 KCAL/MOL
REMARK 923 INTER-LIGAND FREE ENERGY PREDICTED BY IDOCK:   -5.62 KCAL/MOL
REMARK 924 INTRA-LIGAND FREE ENERGY PREDICTED BY IDOCK:   -0.02 KCAL/MOL
REMARK 927      BINDING AFFINITY PREDICTED BY RF-SCORE:    0.00 PKD
ROOT
HETATM    1  C   UNL     1      -9.889   8.962  68.735  1.00  0.00    -0.182 C  
HETATM    2  C   UNL     1     -10.860   8.112  67.930  1.00  0.00     0.032 C  
ENDROOT
BRANCH   2   3
HETATM    3  O   UNL     1     -10.334   8.068  66.609  1.00  0.00    -0.297 OA 
BRANCH   3   4
HETATM    4  C   UNL     1      -9.207   8.759  66.281  1.00  0.00    -0.207 A  
HETATM    5  C   UNL     1      -7.915   8.306  66.580  1.00  0.00    -0.100 A  
HETATM    6  C   UNL     1      -6.792   9.068  66.245  1.00  0.00    -0.078 A  
HETATM    7  C   UNL     1      -6.949  10.295  65.604  1.00  0.00    -0.133 A  
HETATM    8  C   UNL     1      -8.228  10.750  65.291  1.00  0.00    -0.052 A  
HETATM    9  C   UNL     1      -9.365   9.993  65.616  1.00  0.00    -0.204 A  
BRANCH   9  10
HETATM   10  O   UNL     1     -10.531  10.602  65.214  1.00  0.00    -0.269 OA 
BRANCH  10  11
HETATM   11  C   UNL     1     -11.238  11.396  66.166  1.00  0.00    -0.137 C  
BRANCH  11  12
HETATM   12  C   UNL     1     -10.294  12.446  66.766  1.00  0.00    -0.221 C  
BRANCH  12  13
HETATM   13  N   UNL     1     -10.303  12.541  68.235  1.00  0.00    -0.231 NA 
HETATM   14  H   UNL     1      -9.368  12.359  68.601  1.00  0.00     0.000 HD 
BRANCH  13  15
HETATM   15  C   UNL     1     -10.825  13.805  68.788  1.00  0.00    -0.259 C  
HETATM   16  C   UNL     1     -11.971  13.439  69.744  1.00  0.00    -0.396 C  
BRANCH  15  17
HETATM   17  C   UNL     1     -11.299  14.813  67.702  1.00  0.00    -0.352 C  
BRANCH  17  18
HETATM   18  C   UNL     1     -10.231  15.835  67.381  1.00  0.00    -0.270 A  
HETATM   19  C   UNL     1      -8.978  15.741  67.995  1.00  0.00    -0.178 A  
HETATM   20  C   UNL     1      -8.061  16.796  67.895  1.00  0.00    -0.185 A  
HETATM   21  C   UNL     1      -8.338  17.907  67.087  1.00  0.00    -0.228 A  
HETATM   22  C   UNL     1     -10.504  16.933  66.563  1.00  0.00    -0.253 A  
HETATM   23  C   UNL     1      -9.556  17.949  66.400  1.00  0.00    -0.294 A  
BRANCH  20  24
HETATM   24  S   UNL     1      -6.589  16.803  68.889  1.00  0.00    -0.201 S  
HETATM   25  O   UNL     1      -6.661  17.932  69.786  1.00  0.00    -0.148 OA 
HETATM   26  N   UNL     1      -6.729  15.449  69.874  1.00  0.00    -0.159 N  
HETATM   27  O   UNL     1      -5.456  16.522  68.037  1.00  0.00    -0.101 OA 
HETATM   28  H1  UNL     1      -5.884  15.453  70.445  1.00  0.00     0.000 HD 
HETATM   29  H2  UNL     1      -7.491  14.772  69.897  1.00  0.00     0.000 HD 
ENDBRANCH  20  24
BRANCH  21  30
HETATM   30  O   UNL     1      -7.387  18.888  67.026  1.00  0.00    -0.211 OA 
HETATM   31  C   UNL     1      -7.664  20.039  66.240  1.00  0.00    -0.300 C  
ENDBRANCH  21  30
ENDBRANCH  17  18
ENDBRANCH  15  17
ENDBRANCH  13  15
ENDBRANCH  12  13
ENDBRANCH  11  12
ENDBRANCH  10  11
ENDBRANCH   9  10
ENDBRANCH   3   4
ENDBRANCH   2   3
TORSDOF 11
ENDMDL
MODEL      378
REMARK 921   NORMALIZED FREE ENERGY PREDICTED BY IDOCK:   -2.64 KCAL/MOL
REMARK 922        TOTAL FREE ENERGY PREDICTED BY IDOCK:   -5.57 KCAL/MOL
REMARK 923 INTER-LIGAND FREE ENERGY PREDICTED BY IDOCK:   -4.17 KCAL/MOL
REMARK 924 INTRA-LIGAND FREE ENERGY PREDICTED BY IDOCK:   -1.40 KCAL/MOL
REMARK 927      BINDING AFFINITY PREDICTED BY RF-SCORE:    0.00 PKD
ROOT
HETATM    1  C   UNL     1     -10.305   5.173  69.214  1.00  0.00    -0.248 C  
HETATM    2  C   UNL     1      -9.099   5.106  70.137  1.00  0.00    -0.128 C  
ENDROOT
BRANCH   2   3
HETATM    3  O   UNL     1      -9.624   5.021  71.456  1.00  0.00    -0.147 OA 
BRANCH   3   4
HETATM    4  C   UNL     1      -9.179   5.849  72.441  1.00  0.00    -0.143 A  
HETATM    5  C   UNL     1      -8.388   5.413  73.514  1.00  0.00    -0.113 A  
HETATM    6  C   UNL     1      -7.981   6.301  74.513  1.00  0.00    -0.109 A  
HETATM    7  C   UNL     1      -8.359   7.640  74.451  1.00  0.00    -0.268 A  
HETATM    8  C   UNL     1      -9.134   8.089  73.383  1.00  0.00    -0.340 A  
HETATM    9  C   UNL     1      -9.546   7.209  72.369  1.00  0.00    -0.146 A  
BRANCH   9  10
HETATM   10  O   UNL     1     -10.289   7.842  71.399  1.00  0.00    -0.196 OA 
BRANCH  10  11
HETATM   11  C   UNL     1     -10.050   9.229  71.168  1.00  0.00    -0.304 C  
BRANCH  11  12
HETATM   12  C   UNL     1      -8.869   9.396  70.203  1.00  0.00    -0.223 C  
BRANCH  12  13
HETATM   13  N   UNL     1      -8.864   8.490  69.044  1.00  0.00    -0.144 NA 
HETATM   14  H   UNL     1      -9.459   7.682  69.229  1.00  0.00     0.000 HD 
BRANCH  13  15
HETATM   15  C   UNL     1      -9.234   9.104  67.754  1.00  0.00    -0.133 C  
HETATM   16  C   UNL     1     -10.635   8.584  67.394  1.00  0.00    -0.304 C  
BRANCH  15  17
HETATM   17  C   UNL     1      -8.217   8.818  66.612  1.00  0.00    -0.107 C  
BRANCH  17  18
HETATM   18  C   UNL     1      -7.655   7.417  66.699  1.00  0.00    -0.100 A  
HETATM   19  C   UNL     1      -8.353   6.355  66.113  1.00  0.00    -0.128 A  
HETATM   20  C   UNL     1      -7.978   5.032  66.378  1.00  0.00    -0.107 A  
HETATM   21  C   UNL     1      -6.833   4.753  67.136  1.00  0.00    -0.056 A  
HETATM   22  C   UNL     1      -6.506   7.143  67.442  1.00  0.00    -0.058 A  
HETATM   23  C   UNL     1      -6.087   5.823  67.640  1.00  0.00    -0.022 A  
BRANCH  20  24
HETATM   24  S   UNL     1      -9.015   3.684  65.863  1.00  0.00    -0.149 S  
HETATM   25  O   UNL     1     -10.007   4.206  64.952  1.00  0.00    -0.188 OA 
HETATM   26  N   UNL     1      -8.021   2.712  64.920  1.00  0.00    -0.081 N  
HETATM   27  O   UNL     1      -9.329   2.877  67.019  1.00  0.00    -0.167 OA 
HETATM   28  H1  UNL     1      -8.616   1.939  64.625  1.00  0.00     0.000 HD 
HETATM   29  H2  UNL     1      -7.038   2.861  64.693  1.00  0.00     0.000 HD 
ENDBRANCH  20  24
BRANCH  21  30
HETATM   30  O   UNL     1      -6.522   3.437  67.337  1.00  0.00    -0.036 OA 
HETATM   31  C   UNL     1      -6.286   3.002  68.670  1.00  0.00    -0.029 C  
ENDBRANCH  21  30
ENDBRANCH  17  18
ENDBRANCH  15  17
ENDBRANCH  13  15
ENDBRANCH  12  13
ENDBRANCH  11  12
ENDBRANCH  10  11
ENDBRANCH   9  10
ENDBRANCH   3   4
ENDBRANCH   2   3
TORSDOF 11
ENDMDL
MODEL      379
REMARK 921   NORMALIZED FREE ENERGY PREDICTED BY IDOCK:   -2.60 KCAL/MOL
REMARK 922        TOTAL FREE ENERGY PREDICTED BY IDOCK:   -5.52 KCAL/MOL
REMARK 923 INTER-LIGAND FREE ENERGY PREDICTED BY IDOCK:   -5.51 KCAL/MOL
REMARK 924 INTRA-LIGAND FREE ENERGY PREDICTED BY IDOCK:   -0.01 KCAL/MOL
REMARK 927      BINDING AFFINITY PREDICTED BY RF-SCORE:    0.00 PKD
ROOT
HETATM    1  C   UNL     1     -12.491  15.089  64.102  1.00  0.00    -0.052 C  
HETATM    2  C   UNL     1     -11.972  14.908  65.520  1.00  0.00    -0.098 C  
ENDROOT
BRANCH   2   3
HETATM    3  O   UNL     1     -10.714  14.255  65.392  1.00  0.00    -0.306 OA 
BRANCH   3   4
HETATM    4  C   UNL     1      -9.614  14.723  66.043  1.00  0.00    -0.301 A  
HETATM    5  C   UNL     1      -9.195  16.060  65.981  1.00  0.00    -0.375 A  
HETATM    6  C   UNL     1      -8.041  16.482  66.647  1.00  0.00    -0.314 A  
HETATM    7  C   UNL     1      -7.291  15.571  67.387  1.00  0.00    -0.241 A  
HETATM    8  C   UNL     1      -7.704  14.242  67.466  1.00  0.00    -0.208 A  
HETATM    9  C   UNL     1      -8.864  13.805  66.807  1.00  0.00    -0.138 A  
BRANCH   9  10
HETATM   10  O   UNL     1      -9.111  12.467  67.017  1.00  0.00    -0.199 OA 
BRANCH  10  11
HETATM   11  C   UNL     1     -10.249  11.887  66.381  1.00  0.00    -0.209 C  
BRANCH  11  12
HETATM   12  C   UNL     1      -9.791  10.954  65.252  1.00  0.00    -0.265 C  
BRANCH  12  13
HETATM   13  N   UNL     1      -9.624   9.541  65.626  1.00  0.00    -0.264 NA 
HETATM   14  H   UNL     1      -9.599   8.959  64.788  1.00  0.00     0.000 HD 
BRANCH  13  15
HETATM   15  C   UNL     1      -8.460   9.242  66.483  1.00  0.00    -0.126 C  
HETATM   16  C   UNL     1      -7.202   9.541  65.653  1.00  0.00    -0.094 C  
BRANCH  15  17
HETATM   17  C   UNL     1      -8.443   7.785  67.026  1.00  0.00    -0.124 C  
BRANCH  17  18
HETATM   18  C   UNL     1      -9.134   7.678  68.367  1.00  0.00    -0.130 A  
HETATM   19  C   UNL     1      -8.395   7.859  69.542  1.00  0.00    -0.131 A  
HETATM   20  C   UNL     1      -8.955   7.538  70.785  1.00  0.00    -0.149 A  
HETATM   21  C   UNL     1     -10.295   7.140  70.883  1.00  0.00    -0.201 A  
HETATM   22  C   UNL     1     -10.474   7.297  68.462  1.00  0.00    -0.215 A  
HETATM   23  C   UNL     1     -11.055   7.051  69.711  1.00  0.00    -0.278 A  
BRANCH  20  24
HETATM   24  S   UNL     1      -7.942   7.506  72.244  1.00  0.00    -0.107 S  
HETATM   25  O   UNL     1      -7.814   6.132  72.670  1.00  0.00    -0.102 OA 
HETATM   26  N   UNL     1      -6.409   7.945  71.713  1.00  0.00    -0.039 N  
HETATM   27  O   UNL     1      -8.352   8.584  73.114  1.00  0.00    -0.369 OA 
HETATM   28  H1  UNL     1      -5.828   7.926  72.550  1.00  0.00     0.000 HD 
HETATM   29  H2  UNL     1      -6.123   8.178  70.762  1.00  0.00     0.000 HD 
ENDBRANCH  20  24
BRANCH  21  30
HETATM   30  O   UNL     1     -10.774   6.860  72.132  1.00  0.00    -0.212 OA 
HETATM   31  C   UNL     1     -11.714   7.759  72.706  1.00  0.00    -0.258 C  
ENDBRANCH  21  30
ENDBRANCH  17  18
ENDBRANCH  15  17
ENDBRANCH  13  15
ENDBRANCH  12  13
ENDBRANCH  11  12
ENDBRANCH  10  11
ENDBRANCH   9  10
ENDBRANCH   3   4
ENDBRANCH   2   3
TORSDOF 11
ENDMDL
MODEL      380
REMARK 921   NORMALIZED FREE ENERGY PREDICTED BY IDOCK:   -2.56 KCAL/MOL
REMARK 922        TOTAL FREE ENERGY PREDICTED BY IDOCK:   -5.46 KCAL/MOL
REMARK 923 INTER-LIGAND FREE ENERGY PREDICTED BY IDOCK:   -6.21 KCAL/MOL
REMARK 924 INTRA-LIGAND FREE ENERGY PREDICTED BY IDOCK:    0.76 KCAL/MOL
REMARK 927      BINDING AFFINITY PREDICTED BY RF-SCORE:    0.00 PKD
ROOT
HETATM    1  C   UNL     1      -9.307  15.780  66.351  1.00  0.00    -0.333 C  
HETATM    2  C   UNL     1      -8.615  14.560  66.939  1.00  0.00    -0.179 C  
ENDROOT
BRANCH   2   3
HETATM    3  O   UNL     1      -9.634  13.584  67.118  1.00  0.00    -0.226 OA 
BRANCH   3   4
HETATM    4  C   UNL     1     -10.218  12.978  66.047  1.00  0.00    -0.287 A  
HETATM    5  C   UNL     1     -11.393  13.448  65.445  1.00  0.00    -0.309 A  
HETATM    6  C   UNL     1     -11.966  12.772  64.364  1.00  0.00    -0.464 A  
HETATM    7  C   UNL     1     -11.367  11.615  63.870  1.00  0.00    -0.457 A  
HETATM    8  C   UNL     1     -10.191  11.145  64.453  1.00  0.00    -0.390 A  
HETATM    9  C   UNL     1      -9.602  11.817  65.535  1.00  0.00    -0.201 A  
BRANCH   9  10
HETATM   10  O   UNL     1      -8.443  11.208  65.960  1.00  0.00    -0.172 OA 
BRANCH  10  11
HETATM   11  C   UNL     1      -7.951  10.101  65.206  1.00  0.00    -0.145 C  
BRANCH  11  12
HETATM   12  C   UNL     1      -6.913   9.332  66.035  1.00  0.00    -0.089 C  
BRANCH  12  13
HETATM   13  N   UNL     1      -7.463   8.389  67.022  1.00  0.00    -0.087 NA 
HETATM   14  H   UNL     1      -8.151   8.860  67.609  1.00  0.00     0.000 HD 
BRANCH  13  15
HETATM   15  C   UNL     1      -8.038   7.149  66.466  1.00  0.00    -0.114 C  
HETATM   16  C   UNL     1      -9.533   7.413  66.229  1.00  0.00    -0.144 C  
BRANCH  15  17
HETATM   17  C   UNL     1      -7.824   5.902  67.370  1.00  0.00    -0.102 C  
BRANCH  17  18
HETATM   18  C   UNL     1      -8.724   5.929  68.586  1.00  0.00    -0.109 A  
HETATM   19  C   UNL     1      -8.778   7.079  69.380  1.00  0.00    -0.133 A  
HETATM   20  C   UNL     1      -9.417   7.048  70.626  1.00  0.00    -0.165 A  
HETATM   21  C   UNL     1     -10.107   5.903  71.046  1.00  0.00    -0.200 A  
HETATM   22  C   UNL     1      -9.423   4.791  68.993  1.00  0.00    -0.213 A  
HETATM   23  C   UNL     1     -10.126   4.786  70.203  1.00  0.00    -0.310 A  
BRANCH  20  24
HETATM   24  S   UNL     1      -9.257   8.414  71.751  1.00  0.00    -0.243 S  
HETATM   25  O   UNL     1      -7.926   8.956  71.610  1.00  0.00    -0.278 OA 
HETATM   26  N   UNL     1     -10.281   9.597  71.138  1.00  0.00    -0.284 N  
HETATM   27  O   UNL     1      -9.845   8.040  73.017  1.00  0.00    -0.272 OA 
HETATM   28  H1  UNL     1     -10.189  10.381  71.784  1.00  0.00     0.000 HD 
HETATM   29  H2  UNL     1     -10.865   9.544  70.304  1.00  0.00     0.000 HD 
ENDBRANCH  20  24
BRANCH  21  30
HETATM   30  O   UNL     1     -10.719   5.954  72.267  1.00  0.00    -0.214 OA 
HETATM   31  C   UNL     1     -11.332   4.770  72.758  1.00  0.00    -0.093 C  
ENDBRANCH  21  30
ENDBRANCH  17  18
ENDBRANCH  15  17
ENDBRANCH  13  15
ENDBRANCH  12  13
ENDBRANCH  11  12
ENDBRANCH  10  11
ENDBRANCH   9  10
ENDBRANCH   3   4
ENDBRANCH   2   3
TORSDOF 11
ENDMDL
MODEL      381
REMARK 921   NORMALIZED FREE ENERGY PREDICTED BY IDOCK:   -2.55 KCAL/MOL
REMARK 922        TOTAL FREE ENERGY PREDICTED BY IDOCK:   -5.43 KCAL/MOL
REMARK 923 INTER-LIGAND FREE ENERGY PREDICTED BY IDOCK:   -5.70 KCAL/MOL
REMARK 924 INTRA-LIGAND FREE ENERGY PREDICTED BY IDOCK:    0.27 KCAL/MOL
REMARK 927      BINDING AFFINITY PREDICTED BY RF-SCORE:    0.00 PKD
ROOT
HETATM    1  C   UNL     1     -10.028  19.475  69.108  1.00  0.00    -0.429 C  
HETATM    2  C   UNL     1      -9.918  19.979  67.677  1.00  0.00    -0.428 C  
ENDROOT
BRANCH   2   3
HETATM    3  O   UNL     1      -9.536  18.852  66.897  1.00  0.00    -0.295 OA 
BRANCH   3   4
HETATM    4  C   UNL     1      -8.243  18.676  66.507  1.00  0.00    -0.286 A  
HETATM    5  C   UNL     1      -7.597  19.514  65.587  1.00  0.00    -0.153 A  
HETATM    6  C   UNL     1      -6.276  19.272  65.201  1.00  0.00    -0.312 A  
HETATM    7  C   UNL     1      -5.582  18.188  65.733  1.00  0.00    -0.234 A  
HETATM    8  C   UNL     1      -6.209  17.355  66.658  1.00  0.00    -0.239 A  
HETATM    9  C   UNL     1      -7.534  17.589  67.060  1.00  0.00    -0.200 A  
BRANCH   9  10
HETATM   10  O   UNL     1      -7.969  16.670  67.987  1.00  0.00    -0.165 OA 
BRANCH  10  11
HETATM   11  C   UNL     1      -7.604  15.303  67.800  1.00  0.00    -0.154 C  
BRANCH  11  12
HETATM   12  C   UNL     1      -8.845  14.484  67.420  1.00  0.00    -0.198 C  
BRANCH  12  13
HETATM   13  N   UNL     1      -8.953  13.163  68.060  1.00  0.00    -0.189 NA 
HETATM   14  H   UNL     1      -9.874  12.763  67.880  1.00  0.00     0.000 HD 
BRANCH  13  15
HETATM   15  C   UNL     1      -7.902  12.193  67.698  1.00  0.00    -0.153 C  
HETATM   16  C   UNL     1      -8.517  11.223  66.676  1.00  0.00    -0.168 C  
BRANCH  15  17
HETATM   17  C   UNL     1      -7.314  11.427  68.917  1.00  0.00    -0.114 C  
BRANCH  17  18
HETATM   18  C   UNL     1      -8.344  10.529  69.566  1.00  0.00    -0.075 A  
HETATM   19  C   UNL     1      -7.932   9.553  70.480  1.00  0.00    -0.188 A  
HETATM   20  C   UNL     1      -8.828   8.568  70.912  1.00  0.00    -0.171 A  
HETATM   21  C   UNL     1     -10.175   8.610  70.528  1.00  0.00    -0.197 A  
HETATM   22  C   UNL     1      -9.688  10.583  69.193  1.00  0.00    -0.226 A  
HETATM   23  C   UNL     1     -10.599   9.644  69.688  1.00  0.00    -0.252 A  
BRANCH  20  24
HETATM   24  S   UNL     1      -8.247   7.176  71.852  1.00  0.00    -0.104 S  
HETATM   25  O   UNL     1      -7.043   7.574  72.543  1.00  0.00    -0.066 OA 
HETATM   26  N   UNL     1      -9.397   6.964  73.060  1.00  0.00    -0.138 N  
HETATM   27  O   UNL     1      -8.352   5.991  71.033  1.00  0.00    -0.121 OA 
HETATM   28  H1  UNL     1      -9.063   6.165  73.599  1.00  0.00     0.000 HD 
HETATM   29  H2  UNL     1     -10.241   7.512  73.219  1.00  0.00     0.000 HD 
ENDBRANCH  20  24
BRANCH  21  30
HETATM   30  O   UNL     1     -10.992   7.622  71.004  1.00  0.00    -0.240 OA 
HETATM   31  C   UNL     1     -11.770   6.889  70.068  1.00  0.00    -0.208 C  
ENDBRANCH  21  30
ENDBRANCH  17  18
ENDBRANCH  15  17
ENDBRANCH  13  15
ENDBRANCH  12  13
ENDBRANCH  11  12
ENDBRANCH  10  11
ENDBRANCH   9  10
ENDBRANCH   3   4
ENDBRANCH   2   3
TORSDOF 11
ENDMDL
MODEL      382
REMARK 921   NORMALIZED FREE ENERGY PREDICTED BY IDOCK:   -2.53 KCAL/MOL
REMARK 922        TOTAL FREE ENERGY PREDICTED BY IDOCK:   -5.41 KCAL/MOL
REMARK 923 INTER-LIGAND FREE ENERGY PREDICTED BY IDOCK:   -5.42 KCAL/MOL
REMARK 924 INTRA-LIGAND FREE ENERGY PREDICTED BY IDOCK:    0.01 KCAL/MOL
REMARK 927      BINDING AFFINITY PREDICTED BY RF-SCORE:    0.00 PKD
ROOT
HETATM    1  C   UNL     1      -6.370   9.543  68.432  1.00  0.00    -0.052 C  
HETATM    2  C   UNL     1      -7.361  10.178  69.395  1.00  0.00    -0.106 C  
ENDROOT
BRANCH   2   3
HETATM    3  O   UNL     1      -7.818   9.123  70.233  1.00  0.00    -0.092 OA 
BRANCH   3   4
HETATM    4  C   UNL     1      -7.038   8.643  71.241  1.00  0.00    -0.085 A  
HETATM    5  C   UNL     1      -6.104   9.428  71.931  1.00  0.00     0.063 A  
HETATM    6  C   UNL     1      -5.308   8.878  72.939  1.00  0.00    -0.074 A  
HETATM    7  C   UNL     1      -5.438   7.532  73.273  1.00  0.00    -0.044 A  
HETATM    8  C   UNL     1      -6.372   6.743  72.603  1.00  0.00    -0.054 A  
HETATM    9  C   UNL     1      -7.182   7.284  71.591  1.00  0.00    -0.075 A  
BRANCH   9  10
HETATM   10  O   UNL     1      -8.046   6.354  71.061  1.00  0.00    -0.117 OA 
BRANCH  10  11
HETATM   11  C   UNL     1      -9.044   6.807  70.148  1.00  0.00    -0.155 C  
BRANCH  11  12
HETATM   12  C   UNL     1     -10.383   6.964  70.881  1.00  0.00    -0.198 C  
BRANCH  12  13
HETATM   13  N   UNL     1     -11.377   7.816  70.209  1.00  0.00    -0.422 NA 
HETATM   14  H   UNL     1     -12.285   7.350  70.198  1.00  0.00     0.000 HD 
BRANCH  13  15
HETATM   15  C   UNL     1     -11.517   9.181  70.752  1.00  0.00    -0.282 C  
HETATM   16  C   UNL     1     -11.494   9.060  72.284  1.00  0.00    -0.222 C  
BRANCH  15  17
HETATM   17  C   UNL     1     -12.796   9.919  70.265  1.00  0.00     0.114 C  
BRANCH  17  18
HETATM   18  C   UNL     1     -12.819  11.362  70.719  1.00  0.00    -0.255 A  
HETATM   19  C   UNL     1     -12.210  12.344  69.930  1.00  0.00    -0.227 A  
HETATM   20  C   UNL     1     -12.015  13.635  70.436  1.00  0.00    -0.302 A  
HETATM   21  C   UNL     1     -12.527  13.995  71.690  1.00  0.00    -0.283 A  
HETATM   22  C   UNL     1     -13.343  11.720  71.962  1.00  0.00    -0.417 A  
HETATM   23  C   UNL     1     -13.217  13.032  72.433  1.00  0.00    -0.487 A  
BRANCH  20  24
HETATM   24  S   UNL     1     -11.008  14.803  69.554  1.00  0.00    -0.253 S  
HETATM   25  O   UNL     1      -9.718  14.858  70.200  1.00  0.00     0.127 OA 
HETATM   26  N   UNL     1     -10.722  14.082  68.062  1.00  0.00    -0.242 N  
HETATM   27  O   UNL     1     -11.809  15.967  69.251  1.00  0.00    -0.371 OA 
HETATM   28  H1  UNL     1     -10.144  14.752  67.556  1.00  0.00     0.000 HD 
HETATM   29  H2  UNL     1     -11.053  13.175  67.735  1.00  0.00     0.000 HD 
ENDBRANCH  20  24
BRANCH  21  30
HETATM   30  O   UNL     1     -12.312  15.279  72.108  1.00  0.00    -0.317 OA 
HETATM   31  C   UNL     1     -13.038  15.745  73.238  1.00  0.00    -0.584 C  
ENDBRANCH  21  30
ENDBRANCH  17  18
ENDBRANCH  15  17
ENDBRANCH  13  15
ENDBRANCH  12  13
ENDBRANCH  11  12
ENDBRANCH  10  11
ENDBRANCH   9  10
ENDBRANCH   3   4
ENDBRANCH   2   3
TORSDOF 11
ENDMDL
MODEL      383
REMARK 921   NORMALIZED FREE ENERGY PREDICTED BY IDOCK:   -2.49 KCAL/MOL
REMARK 922        TOTAL FREE ENERGY PREDICTED BY IDOCK:   -5.34 KCAL/MOL
REMARK 923 INTER-LIGAND FREE ENERGY PREDICTED BY IDOCK:   -4.88 KCAL/MOL
REMARK 924 INTRA-LIGAND FREE ENERGY PREDICTED BY IDOCK:   -0.46 KCAL/MOL
REMARK 927      BINDING AFFINITY PREDICTED BY RF-SCORE:    0.00 PKD
ROOT
HETATM    1  C   UNL     1      -9.133  14.650  66.434  1.00  0.00    -0.242 C  
HETATM    2  C   UNL     1     -10.314  15.133  67.262  1.00  0.00    -0.261 C  
ENDROOT
BRANCH   2   3
HETATM    3  O   UNL     1      -9.763  15.604  68.486  1.00  0.00    -0.195 OA 
BRANCH   3   4
HETATM    4  C   UNL     1      -9.245  16.859  68.583  1.00  0.00    -0.265 A  
HETATM    5  C   UNL     1     -10.037  18.012  68.683  1.00  0.00    -0.401 A  
HETATM    6  C   UNL     1      -9.454  19.280  68.752  1.00  0.00    -0.459 A  
HETATM    7  C   UNL     1      -8.067  19.412  68.723  1.00  0.00    -0.388 A  
HETATM    8  C   UNL     1      -7.269  18.272  68.636  1.00  0.00    -0.293 A  
HETATM    9  C   UNL     1      -7.841  16.992  68.572  1.00  0.00    -0.251 A  
BRANCH   9  10
HETATM   10  O   UNL     1      -6.891  15.998  68.504  1.00  0.00    -0.123 OA 
BRANCH  10  11
HETATM   11  C   UNL     1      -6.099  15.746  69.664  1.00  0.00    -0.159 C  
BRANCH  11  12
HETATM   12  C   UNL     1      -6.408  14.344  70.205  1.00  0.00    -0.158 C  
BRANCH  12  13
HETATM   13  N   UNL     1      -7.076  13.433  69.263  1.00  0.00    -0.296 NA 
HETATM   14  H   UNL     1      -7.606  13.969  68.575  1.00  0.00     0.000 HD 
BRANCH  13  15
HETATM   15  C   UNL     1      -6.196  12.466  68.580  1.00  0.00    -0.062 C  
HETATM   16  C   UNL     1      -6.999  11.872  67.412  1.00  0.00    -0.128 C  
BRANCH  15  17
HETATM   17  C   UNL     1      -5.653  11.347  69.515  1.00  0.00    -0.058 C  
BRANCH  17  18
HETATM   18  C   UNL     1      -6.615  10.184  69.615  1.00  0.00    -0.069 A  
HETATM   19  C   UNL     1      -6.284   8.961  69.022  1.00  0.00    -0.044 A  
HETATM   20  C   UNL     1      -7.247   7.951  68.900  1.00  0.00    -0.076 A  
HETATM   21  C   UNL     1      -8.518   8.105  69.470  1.00  0.00    -0.127 A  
HETATM   22  C   UNL     1      -7.875  10.335  70.196  1.00  0.00     0.046 A  
HETATM   23  C   UNL     1      -8.811   9.296  70.143  1.00  0.00    -0.235 A  
BRANCH  20  24
HETATM   24  S   UNL     1      -6.918   6.510  67.914  1.00  0.00    -0.082 S  
HETATM   25  O   UNL     1      -5.540   6.132  68.122  1.00  0.00    -0.010 OA 
HETATM   26  N   UNL     1      -7.822   5.286  68.628  1.00  0.00    -0.086 N  
HETATM   27  O   UNL     1      -7.516   6.696  66.613  1.00  0.00    -0.076 OA 
HETATM   28  H1  UNL     1      -7.633   4.459  68.063  1.00  0.00     0.000 HD 
HETATM   29  H2  UNL     1      -8.426   5.354  69.447  1.00  0.00     0.000 HD 
ENDBRANCH  20  24
BRANCH  21  30
HETATM   30  O   UNL     1      -9.399   7.070  69.324  1.00  0.00    -0.146 OA 
HETATM   31  C   UNL     1     -10.769   7.310  69.616  1.00  0.00    -0.236 C  
ENDBRANCH  21  30
ENDBRANCH  17  18
ENDBRANCH  15  17
ENDBRANCH  13  15
ENDBRANCH  12  13
ENDBRANCH  11  12
ENDBRANCH  10  11
ENDBRANCH   9  10
ENDBRANCH   3   4
ENDBRANCH   2   3
TORSDOF 11
ENDMDL
MODEL      384
REMARK 921   NORMALIZED FREE ENERGY PREDICTED BY IDOCK:   -2.48 KCAL/MOL
REMARK 922        TOTAL FREE ENERGY PREDICTED BY IDOCK:   -5.32 KCAL/MOL
REMARK 923 INTER-LIGAND FREE ENERGY PREDICTED BY IDOCK:   -5.69 KCAL/MOL
REMARK 924 INTRA-LIGAND FREE ENERGY PREDICTED BY IDOCK:    0.37 KCAL/MOL
REMARK 927      BINDING AFFINITY PREDICTED BY RF-SCORE:    0.00 PKD
ROOT
HETATM    1  C   UNL     1     -10.224   5.438  68.470  1.00  0.00    -0.237 C  
HETATM    2  C   UNL     1      -9.047   4.892  69.264  1.00  0.00    -0.102 C  
ENDROOT
BRANCH   2   3
HETATM    3  O   UNL     1      -9.566   4.554  70.544  1.00  0.00    -0.168 OA 
BRANCH   3   4
HETATM    4  C   UNL     1      -8.769   4.565  71.648  1.00  0.00    -0.116 A  
HETATM    5  C   UNL     1      -7.783   3.599  71.893  1.00  0.00    -0.058 A  
HETATM    6  C   UNL     1      -7.009   3.642  73.056  1.00  0.00    -0.041 A  
HETATM    7  C   UNL     1      -7.211   4.655  73.990  1.00  0.00    -0.077 A  
HETATM    8  C   UNL     1      -8.179   5.629  73.751  1.00  0.00    -0.111 A  
HETATM    9  C   UNL     1      -8.960   5.602  72.585  1.00  0.00    -0.132 A  
BRANCH   9  10
HETATM   10  O   UNL     1      -9.848   6.652  72.525  1.00  0.00    -0.165 OA 
BRANCH  10  11
HETATM   11  C   UNL     1      -9.389   7.943  72.923  1.00  0.00    -0.246 C  
BRANCH  11  12
HETATM   12  C   UNL     1      -9.761   8.976  71.852  1.00  0.00    -0.171 C  
BRANCH  12  13
HETATM   13  N   UNL     1     -10.933   8.642  71.028  1.00  0.00    -0.248 NA 
HETATM   14  H   UNL     1     -10.891   7.663  70.742  1.00  0.00     0.000 HD 
BRANCH  13  15
HETATM   15  C   UNL     1     -12.244   8.933  71.638  1.00  0.00    -0.343 C  
HETATM   16  C   UNL     1     -13.078   7.645  71.550  1.00  0.00    -0.379 C  
BRANCH  15  17
HETATM   17  C   UNL     1     -12.987  10.130  70.978  1.00  0.00    -0.473 C  
BRANCH  17  18
HETATM   18  C   UNL     1     -12.142  10.799  69.917  1.00  0.00    -0.410 A  
HETATM   19  C   UNL     1     -11.528  10.020  68.931  1.00  0.00    -0.057 A  
HETATM   20  C   UNL     1     -10.562  10.583  68.086  1.00  0.00    -0.204 A  
HETATM   21  C   UNL     1     -10.281  11.955  68.139  1.00  0.00    -0.199 A  
HETATM   22  C   UNL     1     -11.875  12.168  69.963  1.00  0.00    -0.383 A  
HETATM   23  C   UNL     1     -10.968  12.745  69.066  1.00  0.00    -0.241 A  
BRANCH  20  24
HETATM   24  S   UNL     1      -9.588   9.548  67.021  1.00  0.00    -0.174 S  
HETATM   25  O   UNL     1     -10.480   8.635  66.346  1.00  0.00    -0.205 OA 
HETATM   26  N   UNL     1      -9.022  10.578  65.820  1.00  0.00    -0.173 N  
HETATM   27  O   UNL     1      -8.403   9.135  67.737  1.00  0.00    -0.116 OA 
HETATM   28  H1  UNL     1      -8.463   9.984  65.208  1.00  0.00     0.000 HD 
HETATM   29  H2  UNL     1      -9.200  11.578  65.722  1.00  0.00     0.000 HD 
ENDBRANCH  20  24
BRANCH  21  30
HETATM   30  O   UNL     1      -9.338  12.433  67.271  1.00  0.00    -0.175 OA 
HETATM   31  C   UNL     1      -9.573  13.694  66.658  1.00  0.00    -0.283 C  
ENDBRANCH  21  30
ENDBRANCH  17  18
ENDBRANCH  15  17
ENDBRANCH  13  15
ENDBRANCH  12  13
ENDBRANCH  11  12
ENDBRANCH  10  11
ENDBRANCH   9  10
ENDBRANCH   3   4
ENDBRANCH   2   3
TORSDOF 11
ENDMDL
MODEL      385
REMARK 921   NORMALIZED FREE ENERGY PREDICTED BY IDOCK:   -2.47 KCAL/MOL
REMARK 922        TOTAL FREE ENERGY PREDICTED BY IDOCK:   -5.30 KCAL/MOL
REMARK 923 INTER-LIGAND FREE ENERGY PREDICTED BY IDOCK:   -4.50 KCAL/MOL
REMARK 924 INTRA-LIGAND FREE ENERGY PREDICTED BY IDOCK:   -0.80 KCAL/MOL
REMARK 927      BINDING AFFINITY PREDICTED BY RF-SCORE:    0.00 PKD
ROOT
HETATM    1  C   UNL     1      -8.177   9.108  71.079  1.00  0.00    -0.186 C  
HETATM    2  C   UNL     1      -8.548   9.682  69.720  1.00  0.00    -0.199 C  
ENDROOT
BRANCH   2   3
HETATM    3  O   UNL     1      -7.330  10.140  69.146  1.00  0.00    -0.074 OA 
BRANCH   3   4
HETATM    4  C   UNL     1      -6.795  11.340  69.505  1.00  0.00    -0.115 A  
HETATM    5  C   UNL     1      -5.884  11.491  70.559  1.00  0.00    -0.129 A  
HETATM    6  C   UNL     1      -5.387  12.750  70.904  1.00  0.00    -0.173 A  
HETATM    7  C   UNL     1      -5.794  13.878  70.194  1.00  0.00    -0.143 A  
HETATM    8  C   UNL     1      -6.690  13.739  69.136  1.00  0.00    -0.112 A  
HETATM    9  C   UNL     1      -7.194  12.479  68.775  1.00  0.00    -0.089 A  
BRANCH   9  10
HETATM   10  O   UNL     1      -8.051  12.547  67.701  1.00  0.00    -0.147 OA 
BRANCH  10  11
HETATM   11  C   UNL     1      -8.751  13.770  67.476  1.00  0.00    -0.194 C  
BRANCH  11  12
HETATM   12  C   UNL     1     -10.158  13.679  68.080  1.00  0.00    -0.250 C  
BRANCH  12  13
HETATM   13  N   UNL     1     -11.236  13.355  67.131  1.00  0.00    -0.293 NA 
HETATM   14  H   UNL     1     -11.015  13.735  66.210  1.00  0.00     0.000 HD 
BRANCH  13  15
HETATM   15  C   UNL     1     -11.576  11.924  67.019  1.00  0.00    -0.291 C  
HETATM   16  C   UNL     1     -11.166  11.259  68.342  1.00  0.00    -0.324 C  
BRANCH  15  17
HETATM   17  C   UNL     1     -10.910  11.218  65.804  1.00  0.00    -0.257 C  
BRANCH  17  18
HETATM   18  C   UNL     1     -10.089  10.021  66.232  1.00  0.00    -0.310 A  
HETATM   19  C   UNL     1      -8.708  10.017  66.011  1.00  0.00    -0.152 A  
HETATM   20  C   UNL     1      -7.969   8.839  66.182  1.00  0.00    -0.103 A  
HETATM   21  C   UNL     1      -8.577   7.682  66.686  1.00  0.00    -0.133 A  
HETATM   22  C   UNL     1     -10.696   8.875  66.747  1.00  0.00    -0.098 A  
HETATM   23  C   UNL     1      -9.942   7.722  66.992  1.00  0.00    -0.314 A  
BRANCH  20  24
HETATM   24  S   UNL     1      -6.277   8.755  65.646  1.00  0.00    -0.052 S  
HETATM   25  O   UNL     1      -5.459   8.442  66.795  1.00  0.00    -0.032 OA 
HETATM   26  N   UNL     1      -6.203   7.389  64.670  1.00  0.00    -0.037 N  
HETATM   27  O   UNL     1      -6.021   9.860  64.752  1.00  0.00    -0.083 OA 
HETATM   28  H1  UNL     1      -5.233   7.340  64.362  1.00  0.00     0.000 HD 
HETATM   29  H2  UNL     1      -6.962   6.749  64.436  1.00  0.00     0.000 HD 
ENDBRANCH  20  24
BRANCH  21  30
HETATM   30  O   UNL     1      -7.787   6.577  66.841  1.00  0.00    -0.104 OA 
HETATM   31  C   UNL     1      -7.893   5.845  68.055  1.00  0.00    -0.104 C  
ENDBRANCH  21  30
ENDBRANCH  17  18
ENDBRANCH  15  17
ENDBRANCH  13  15
ENDBRANCH  12  13
ENDBRANCH  11  12
ENDBRANCH  10  11
ENDBRANCH   9  10
ENDBRANCH   3   4
ENDBRANCH   2   3
TORSDOF 11
ENDMDL
MODEL      386
REMARK 921   NORMALIZED FREE ENERGY PREDICTED BY IDOCK:   -2.45 KCAL/MOL
REMARK 922        TOTAL FREE ENERGY PREDICTED BY IDOCK:   -5.26 KCAL/MOL
REMARK 923 INTER-LIGAND FREE ENERGY PREDICTED BY IDOCK:   -5.41 KCAL/MOL
REMARK 924 INTRA-LIGAND FREE ENERGY PREDICTED BY IDOCK:    0.15 KCAL/MOL
REMARK 927      BINDING AFFINITY PREDICTED BY RF-SCORE:    0.00 PKD
ROOT
HETATM    1  C   UNL     1      -8.093   9.339  70.828  1.00  0.00    -0.194 C  
HETATM    2  C   UNL     1      -8.262  10.069  69.505  1.00  0.00    -0.167 C  
ENDROOT
BRANCH   2   3
HETATM    3  O   UNL     1      -6.970  10.557  69.163  1.00  0.00    -0.064 OA 
BRANCH   3   4
HETATM    4  C   UNL     1      -6.606  11.836  69.453  1.00  0.00    -0.113 A  
HETATM    5  C   UNL     1      -5.724  12.168  70.491  1.00  0.00    -0.160 A  
HETATM    6  C   UNL     1      -5.405  13.501  70.764  1.00  0.00    -0.145 A  
HETATM    7  C   UNL     1      -5.964  14.522  69.998  1.00  0.00    -0.141 A  
HETATM    8  C   UNL     1      -6.832  14.204  68.955  1.00  0.00    -0.106 A  
HETATM    9  C   UNL     1      -7.157  12.869  68.666  1.00  0.00    -0.103 A  
BRANCH   9  10
HETATM   10  O   UNL     1      -8.016  12.761  67.596  1.00  0.00    -0.140 OA 
BRANCH  10  11
HETATM   11  C   UNL     1      -8.802  13.899  67.247  1.00  0.00    -0.221 C  
BRANCH  11  12
HETATM   12  C   UNL     1     -10.212  13.752  67.833  1.00  0.00    -0.245 C  
BRANCH  12  13
HETATM   13  N   UNL     1     -11.150  12.946  67.035  1.00  0.00    -0.266 NA 
HETATM   14  H   UNL     1     -10.810  12.862  66.077  1.00  0.00     0.000 HD 
BRANCH  13  15
HETATM   15  C   UNL     1     -11.463  11.611  67.578  1.00  0.00    -0.289 C  
HETATM   16  C   UNL     1     -11.364  11.712  69.108  1.00  0.00    -0.345 C  
BRANCH  15  17
HETATM   17  C   UNL     1     -10.544  10.482  67.029  1.00  0.00    -0.310 C  
BRANCH  17  18
HETATM   18  C   UNL     1     -10.821   9.156  67.701  1.00  0.00    -0.160 A  
HETATM   19  C   UNL     1     -11.369   9.135  68.988  1.00  0.00     0.309 A  
HETATM   20  C   UNL     1     -11.417   7.939  69.716  1.00  0.00     0.231 A  
HETATM   21  C   UNL     1     -11.024   6.730  69.128  1.00  0.00    -0.244 A  
HETATM   22  C   UNL     1     -10.443   7.951  67.107  1.00  0.00    -0.414 A  
HETATM   23  C   UNL     1     -10.564   6.746  67.807  1.00  0.00    -0.307 A  
BRANCH  20  24
HETATM   24  S   UNL     1     -11.856   7.953  71.438  1.00  0.00    -0.306 S  
HETATM   25  O   UNL     1     -12.947   7.028  71.628  1.00  0.00    -0.376 OA 
HETATM   26  N   UNL     1     -10.544   7.252  72.221  1.00  0.00    -0.216 N  
HETATM   27  O   UNL     1     -11.869   9.322  71.899  1.00  0.00    -0.365 OA 
HETATM   28  H1  UNL     1     -10.796   7.260  73.209  1.00  0.00     0.000 HD 
HETATM   29  H2  UNL     1      -9.685   6.897  71.801  1.00  0.00     0.000 HD 
ENDBRANCH  20  24
BRANCH  21  30
HETATM   30  O   UNL     1     -11.114   5.603  69.896  1.00  0.00    -0.321 OA 
HETATM   31  C   UNL     1     -10.000   4.721  69.924  1.00  0.00    -0.236 C  
ENDBRANCH  21  30
ENDBRANCH  17  18
ENDBRANCH  15  17
ENDBRANCH  13  15
ENDBRANCH  12  13
ENDBRANCH  11  12
ENDBRANCH  10  11
ENDBRANCH   9  10
ENDBRANCH   3   4
ENDBRANCH   2   3
TORSDOF 11
ENDMDL
MODEL      387
REMARK 921   NORMALIZED FREE ENERGY PREDICTED BY IDOCK:   -2.43 KCAL/MOL
REMARK 922        TOTAL FREE ENERGY PREDICTED BY IDOCK:   -5.24 KCAL/MOL
REMARK 923 INTER-LIGAND FREE ENERGY PREDICTED BY IDOCK:   -4.99 KCAL/MOL
REMARK 924 INTRA-LIGAND FREE ENERGY PREDICTED BY IDOCK:   -0.25 KCAL/MOL
REMARK 927      BINDING AFFINITY PREDICTED BY RF-SCORE:    0.00 PKD
ROOT
HETATM    1  C   UNL     1     -11.264   6.623  67.827  1.00  0.00    -0.244 C  
HETATM    2  C   UNL     1     -10.167   6.258  68.816  1.00  0.00    -0.178 C  
ENDROOT
BRANCH   2   3
HETATM    3  O   UNL     1     -10.330   7.140  69.920  1.00  0.00    -0.202 OA 
BRANCH   3   4
HETATM    4  C   UNL     1      -9.883   6.798  71.160  1.00  0.00    -0.177 A  
HETATM    5  C   UNL     1     -10.464   5.783  71.934  1.00  0.00    -0.272 A  
HETATM    6  C   UNL     1      -9.982   5.492  73.213  1.00  0.00    -0.188 A  
HETATM    7  C   UNL     1      -8.910   6.212  73.735  1.00  0.00    -0.125 A  
HETATM    8  C   UNL     1      -8.317   7.215  72.970  1.00  0.00    -0.125 A  
HETATM    9  C   UNL     1      -8.786   7.515  71.682  1.00  0.00    -0.116 A  
BRANCH   9  10
HETATM   10  O   UNL     1      -8.064   8.523  71.084  1.00  0.00    -0.107 OA 
BRANCH  10  11
HETATM   11  C   UNL     1      -6.661   8.332  70.911  1.00  0.00    -0.039 C  
BRANCH  11  12
HETATM   12  C   UNL     1      -6.304   8.442  69.423  1.00  0.00    -0.038 C  
BRANCH  12  13
HETATM   13  N   UNL     1      -5.881   9.776  68.969  1.00  0.00    -0.035 NA 
HETATM   14  H   UNL     1      -5.256   9.690  68.167  1.00  0.00     0.000 HD 
BRANCH  13  15
HETATM   15  C   UNL     1      -6.973  10.719  68.661  1.00  0.00    -0.070 C  
HETATM   16  C   UNL     1      -7.643  10.224  67.369  1.00  0.00    -0.094 C  
BRANCH  15  17
HETATM   17  C   UNL     1      -6.502  12.195  68.520  1.00  0.00    -0.059 C  
BRANCH  17  18
HETATM   18  C   UNL     1      -7.669  13.142  68.351  1.00  0.00    -0.138 A  
HETATM   19  C   UNL     1      -8.576  12.941  67.304  1.00  0.00    -0.205 A  
HETATM   20  C   UNL     1      -9.520  13.927  66.988  1.00  0.00    -0.254 A  
HETATM   21  C   UNL     1      -9.646  15.074  67.782  1.00  0.00    -0.203 A  
HETATM   22  C   UNL     1      -7.802  14.277  69.153  1.00  0.00     0.018 A  
HETATM   23  C   UNL     1      -8.796  15.224  68.883  1.00  0.00    -0.209 A  
BRANCH  20  24
HETATM   24  S   UNL     1     -10.487  13.800  65.503  1.00  0.00    -0.332 S  
HETATM   25  O   UNL     1     -10.310  12.472  64.967  1.00  0.00    -0.288 OA 
HETATM   26  N   UNL     1     -12.084  13.855  66.025  1.00  0.00    -0.411 N  
HETATM   27  O   UNL     1     -10.311  15.010  64.734  1.00  0.00    -0.349 OA 
HETATM   28  H1  UNL     1     -12.639  13.782  65.173  1.00  0.00     0.000 HD 
HETATM   29  H2  UNL     1     -12.423  13.941  66.983  1.00  0.00     0.000 HD 
ENDBRANCH  20  24
BRANCH  21  30
HETATM   30  O   UNL     1     -10.601  15.983  67.420  1.00  0.00    -0.307 OA 
HETATM   31  C   UNL     1     -11.282  16.685  68.452  1.00  0.00    -0.239 C  
ENDBRANCH  21  30
ENDBRANCH  17  18
ENDBRANCH  15  17
ENDBRANCH  13  15
ENDBRANCH  12  13
ENDBRANCH  11  12
ENDBRANCH  10  11
ENDBRANCH   9  10
ENDBRANCH   3   4
ENDBRANCH   2   3
TORSDOF 11
ENDMDL
MODEL      388
REMARK 921   NORMALIZED FREE ENERGY PREDICTED BY IDOCK:   -2.42 KCAL/MOL
REMARK 922        TOTAL FREE ENERGY PREDICTED BY IDOCK:   -5.21 KCAL/MOL
REMARK 923 INTER-LIGAND FREE ENERGY PREDICTED BY IDOCK:   -5.41 KCAL/MOL
REMARK 924 INTRA-LIGAND FREE ENERGY PREDICTED BY IDOCK:    0.20 KCAL/MOL
REMARK 927      BINDING AFFINITY PREDICTED BY RF-SCORE:    0.00 PKD
ROOT
HETATM    1  C   UNL     1      -9.633  11.089  67.467  1.00  0.00    -0.178 C  
HETATM    2  C   UNL     1     -10.467  11.226  66.202  1.00  0.00    -0.254 C  
ENDROOT
BRANCH   2   3
HETATM    3  O   UNL     1     -11.453  12.209  66.491  1.00  0.00    -0.344 OA 
BRANCH   3   4
HETATM    4  C   UNL     1     -11.118  13.525  66.600  1.00  0.00    -0.298 A  
HETATM    5  C   UNL     1     -11.393  14.297  67.737  1.00  0.00    -0.329 A  
HETATM    6  C   UNL     1     -11.052  15.651  67.785  1.00  0.00    -0.311 A  
HETATM    7  C   UNL     1     -10.427  16.251  66.694  1.00  0.00    -0.290 A  
HETATM    8  C   UNL     1     -10.136  15.491  65.563  1.00  0.00    -0.406 A  
HETATM    9  C   UNL     1     -10.468  14.128  65.502  1.00  0.00    -0.339 A  
BRANCH   9  10
HETATM   10  O   UNL     1     -10.088  13.550  64.313  1.00  0.00    -0.336 OA 
BRANCH  10  11
HETATM   11  C   UNL     1     -11.024  12.702  63.649  1.00  0.00    -0.416 C  
BRANCH  11  12
HETATM   12  C   UNL     1     -10.282  11.535  62.983  1.00  0.00    -0.265 C  
BRANCH  12  13
HETATM   13  N   UNL     1      -8.814  11.625  63.000  1.00  0.00    -0.617 NA 
HETATM   14  H   UNL     1      -8.522  12.475  63.483  1.00  0.00     0.000 HD 
BRANCH  13  15
HETATM   15  C   UNL     1      -8.111  10.457  63.566  1.00  0.00    -0.116 C  
HETATM   16  C   UNL     1      -6.612  10.662  63.299  1.00  0.00     0.088 C  
BRANCH  15  17
HETATM   17  C   UNL     1      -8.604   9.097  62.995  1.00  0.00    -0.196 C  
BRANCH  17  18
HETATM   18  C   UNL     1      -7.989   7.925  63.729  1.00  0.00    -0.119 A  
HETATM   19  C   UNL     1      -8.466   7.576  64.997  1.00  0.00    -0.008 A  
HETATM   20  C   UNL     1      -7.765   6.655  65.786  1.00  0.00    -0.092 A  
HETATM   21  C   UNL     1      -6.646   5.984  65.276  1.00  0.00    -0.043 A  
HETATM   22  C   UNL     1      -6.882   7.249  63.212  1.00  0.00    -0.054 A  
HETATM   23  C   UNL     1      -6.230   6.271  63.971  1.00  0.00    -0.029 A  
BRANCH  20  24
HETATM   24  S   UNL     1      -8.208   6.412  67.489  1.00  0.00    -0.117 S  
HETATM   25  O   UNL     1      -8.529   5.016  67.673  1.00  0.00    -0.105 OA 
HETATM   26  N   UNL     1      -6.780   6.651  68.342  1.00  0.00    -0.062 N  
HETATM   27  O   UNL     1      -9.068   7.498  67.901  1.00  0.00    -0.131 OA 
HETATM   28  H1  UNL     1      -7.034   6.512  69.320  1.00  0.00     0.000 HD 
HETATM   29  H2  UNL     1      -5.861   6.884  67.966  1.00  0.00     0.000 HD 
ENDBRANCH  20  24
BRANCH  21  30
HETATM   30  O   UNL     1      -6.025   5.087  66.100  1.00  0.00    -0.021 OA 
HETATM   31  C   UNL     1      -5.947   3.733  65.676  1.00  0.00    -0.023 C  
ENDBRANCH  21  30
ENDBRANCH  17  18
ENDBRANCH  15  17
ENDBRANCH  13  15
ENDBRANCH  12  13
ENDBRANCH  11  12
ENDBRANCH  10  11
ENDBRANCH   9  10
ENDBRANCH   3   4
ENDBRANCH   2   3
TORSDOF 11
ENDMDL
MODEL      389
REMARK 921   NORMALIZED FREE ENERGY PREDICTED BY IDOCK:   -2.27 KCAL/MOL
REMARK 922        TOTAL FREE ENERGY PREDICTED BY IDOCK:   -4.98 KCAL/MOL
REMARK 923 INTER-LIGAND FREE ENERGY PREDICTED BY IDOCK:   -4.39 KCAL/MOL
REMARK 924 INTRA-LIGAND FREE ENERGY PREDICTED BY IDOCK:   -0.59 KCAL/MOL
REMARK 927      BINDING AFFINITY PREDICTED BY RF-SCORE:    0.00 PKD
ROOT
HETATM    1  C   UNL     1      -5.829   7.440  68.679  1.00  0.00    -0.023 C  
HETATM    2  C   UNL     1      -6.862   6.776  69.576  1.00  0.00    -0.054 C  
ENDROOT
BRANCH   2   3
HETATM    3  O   UNL     1      -7.694   7.826  70.053  1.00  0.00    -0.087 OA 
BRANCH   3   4
HETATM    4  C   UNL     1      -8.098   7.862  71.353  1.00  0.00    -0.102 A  
HETATM    5  C   UNL     1      -7.246   7.582  72.431  1.00  0.00    -0.075 A  
HETATM    6  C   UNL     1      -7.719   7.606  73.745  1.00  0.00    -0.172 A  
HETATM    7  C   UNL     1      -9.054   7.914  74.000  1.00  0.00    -0.143 A  
HETATM    8  C   UNL     1      -9.908   8.207  72.938  1.00  0.00    -0.339 A  
HETATM    9  C   UNL     1      -9.445   8.192  71.612  1.00  0.00    -0.177 A  
BRANCH   9  10
HETATM   10  O   UNL     1     -10.431   8.520  70.711  1.00  0.00    -0.192 OA 
BRANCH  10  11
HETATM   11  C   UNL     1     -10.867   9.878  70.656  1.00  0.00    -0.330 C  
BRANCH  11  12
HETATM   12  C   UNL     1     -11.643  10.120  69.355  1.00  0.00    -0.087 C  
BRANCH  12  13
HETATM   13  N   UNL     1     -11.546  11.480  68.803  1.00  0.00    -0.287 NA 
HETATM   14  H   UNL     1     -11.627  12.168  69.552  1.00  0.00     0.000 HD 
BRANCH  13  15
HETATM   15  C   UNL     1     -10.344  11.754  67.993  1.00  0.00    -0.198 C  
HETATM   16  C   UNL     1     -10.724  11.509  66.525  1.00  0.00    -0.318 C  
BRANCH  15  17
HETATM   17  C   UNL     1      -9.108  10.902  68.403  1.00  0.00    -0.164 C  
BRANCH  17  18
HETATM   18  C   UNL     1      -8.692   9.951  67.304  1.00  0.00    -0.131 A  
HETATM   19  C   UNL     1      -7.611  10.279  66.479  1.00  0.00    -0.113 A  
HETATM   20  C   UNL     1      -7.357   9.535  65.319  1.00  0.00    -0.104 A  
HETATM   21  C   UNL     1      -8.105   8.387  65.029  1.00  0.00    -0.147 A  
HETATM   22  C   UNL     1      -9.431   8.799  67.026  1.00  0.00    -0.218 A  
HETATM   23  C   UNL     1      -9.125   8.012  65.910  1.00  0.00    -0.159 A  
BRANCH  20  24
HETATM   24  S   UNL     1      -6.164  10.104  64.131  1.00  0.00    -0.114 S  
HETATM   25  O   UNL     1      -5.286  11.039  64.793  1.00  0.00    -0.216 OA 
HETATM   26  N   UNL     1      -5.209   8.760  63.804  1.00  0.00    -0.060 N  
HETATM   27  O   UNL     1      -6.847  10.380  62.889  1.00  0.00    -0.140 OA 
HETATM   28  H1  UNL     1      -4.525   9.087  63.122  1.00  0.00     0.000 HD 
HETATM   29  H2  UNL     1      -5.294   7.824  64.199  1.00  0.00     0.000 HD 
ENDBRANCH  20  24
BRANCH  21  30
HETATM   30  O   UNL     1      -7.787   7.704  63.889  1.00  0.00    -0.124 OA 
HETATM   31  C   UNL     1      -7.887   6.286  63.908  1.00  0.00    -0.112 C  
ENDBRANCH  21  30
ENDBRANCH  17  18
ENDBRANCH  15  17
ENDBRANCH  13  15
ENDBRANCH  12  13
ENDBRANCH  11  12
ENDBRANCH  10  11
ENDBRANCH   9  10
ENDBRANCH   3   4
ENDBRANCH   2   3
TORSDOF 11
ENDMDL
MODEL      390
REMARK 921   NORMALIZED FREE ENERGY PREDICTED BY IDOCK:   -2.18 KCAL/MOL
REMARK 922        TOTAL FREE ENERGY PREDICTED BY IDOCK:   -4.82 KCAL/MOL
REMARK 923 INTER-LIGAND FREE ENERGY PREDICTED BY IDOCK:   -4.30 KCAL/MOL
REMARK 924 INTRA-LIGAND FREE ENERGY PREDICTED BY IDOCK:   -0.52 KCAL/MOL
REMARK 927      BINDING AFFINITY PREDICTED BY RF-SCORE:    0.00 PKD
ROOT
HETATM    1  C   UNL     1     -12.052  12.819  66.567  1.00  0.00    -0.338 C  
HETATM    2  C   UNL     1     -11.960  14.285  66.171  1.00  0.00    -0.407 C  
ENDROOT
BRANCH   2   3
HETATM    3  O   UNL     1     -11.633  14.989  67.363  1.00  0.00    -0.348 OA 
BRANCH   3   4
HETATM    4  C   UNL     1     -10.392  15.519  67.544  1.00  0.00    -0.271 A  
HETATM    5  C   UNL     1     -10.090  16.868  67.305  1.00  0.00    -0.286 A  
HETATM    6  C   UNL     1      -8.791  17.354  67.481  1.00  0.00    -0.224 A  
HETATM    7  C   UNL     1      -7.776  16.497  67.900  1.00  0.00    -0.162 A  
HETATM    8  C   UNL     1      -8.067  15.157  68.152  1.00  0.00    -0.137 A  
HETATM    9  C   UNL     1      -9.368  14.655  67.985  1.00  0.00    -0.198 A  
BRANCH   9  10
HETATM   10  O   UNL     1      -9.455  13.318  68.296  1.00  0.00    -0.214 OA 
BRANCH  10  11
HETATM   11  C   UNL     1      -8.422  12.451  67.830  1.00  0.00    -0.169 C  
BRANCH  11  12
HETATM   12  C   UNL     1      -8.571  11.071  68.485  1.00  0.00    -0.158 C  
BRANCH  12  13
HETATM   13  N   UNL     1      -9.270  10.058  67.679  1.00  0.00    -0.137 NA 
HETATM   14  H   UNL     1      -9.179  10.278  66.686  1.00  0.00     0.000 HD 
BRANCH  13  15
HETATM   15  C   UNL     1      -8.866   8.660  67.924  1.00  0.00    -0.137 C  
HETATM   16  C   UNL     1     -10.095   7.930  68.489  1.00  0.00    -0.216 C  
BRANCH  15  17
HETATM   17  C   UNL     1      -7.644   8.521  68.876  1.00  0.00    -0.096 C  
BRANCH  17  18
HETATM   18  C   UNL     1      -7.514   7.116  69.421  1.00  0.00    -0.096 A  
HETATM   19  C   UNL     1      -7.315   6.049  68.539  1.00  0.00    -0.085 A  
HETATM   20  C   UNL     1      -7.424   4.728  68.993  1.00  0.00    -0.057 A  
HETATM   21  C   UNL     1      -7.619   4.455  70.354  1.00  0.00    -0.049 A  
HETATM   22  C   UNL     1      -7.693   6.848  70.779  1.00  0.00    -0.092 A  
HETATM   23  C   UNL     1      -7.724   5.529  71.244  1.00  0.00    -0.108 A  
BRANCH  20  24
HETATM   24  S   UNL     1      -7.445   3.380  67.836  1.00  0.00    -0.058 S  
HETATM   25  O   UNL     1      -6.251   2.594  68.044  1.00  0.00    -0.027 OA 
HETATM   26  N   UNL     1      -8.710   2.397  68.344  1.00  0.00    -0.081 N  
HETATM   27  O   UNL     1      -7.864   3.883  66.549  1.00  0.00    -0.088 OA 
HETATM   28  H1  UNL     1      -8.722   1.623  67.680  1.00  0.00     0.000 HD 
HETATM   29  H2  UNL     1      -9.331   2.542  69.140  1.00  0.00     0.000 HD 
ENDBRANCH  20  24
BRANCH  21  30
HETATM   30  O   UNL     1      -7.699   3.141  70.722  1.00  0.00    -0.040 OA 
HETATM   31  C   UNL     1      -6.752   2.651  71.662  1.00  0.00    -0.023 C  
ENDBRANCH  21  30
ENDBRANCH  17  18
ENDBRANCH  15  17
ENDBRANCH  13  15
ENDBRANCH  12  13
ENDBRANCH  11  12
ENDBRANCH  10  11
ENDBRANCH   9  10
ENDBRANCH   3   4
ENDBRANCH   2   3
TORSDOF 11
ENDMDL
MODEL      391
REMARK 921   NORMALIZED FREE ENERGY PREDICTED BY IDOCK:   -2.09 KCAL/MOL
REMARK 922        TOTAL FREE ENERGY PREDICTED BY IDOCK:   -4.67 KCAL/MOL
REMARK 923 INTER-LIGAND FREE ENERGY PREDICTED BY IDOCK:   -3.98 KCAL/MOL
REMARK 924 INTRA-LIGAND FREE ENERGY PREDICTED BY IDOCK:   -0.69 KCAL/MOL
REMARK 927      BINDING AFFINITY PREDICTED BY RF-SCORE:    0.00 PKD
ROOT
HETATM    1  C   UNL     1      -6.403   9.991  70.153  1.00  0.00    -0.093 C  
HETATM    2  C   UNL     1      -7.203  10.282  68.893  1.00  0.00    -0.086 C  
ENDROOT
BRANCH   2   3
HETATM    3  O   UNL     1      -6.645  11.470  68.344  1.00  0.00    -0.056 OA 
BRANCH   3   4
HETATM    4  C   UNL     1      -7.257  12.674  68.516  1.00  0.00    -0.113 A  
HETATM    5  C   UNL     1      -6.702  13.716  69.273  1.00  0.00    -0.094 A  
HETATM    6  C   UNL     1      -7.386  14.924  69.440  1.00  0.00    -0.181 A  
HETATM    7  C   UNL     1      -8.635  15.105  68.850  1.00  0.00    -0.200 A  
HETATM    8  C   UNL     1      -9.190  14.081  68.085  1.00  0.00    -0.196 A  
HETATM    9  C   UNL     1      -8.513  12.865  67.904  1.00  0.00    -0.181 A  
BRANCH   9  10
HETATM   10  O   UNL     1      -9.216  11.989  67.109  1.00  0.00    -0.180 OA 
BRANCH  10  11
HETATM   11  C   UNL     1     -10.597  11.779  67.398  1.00  0.00    -0.224 C  
BRANCH  11  12
HETATM   12  C   UNL     1     -10.743  11.107  68.769  1.00  0.00    -0.199 C  
BRANCH  12  13
HETATM   13  N   UNL     1     -11.129   9.688  68.742  1.00  0.00    -0.450 NA 
HETATM   14  H   UNL     1     -10.563   9.185  68.058  1.00  0.00     0.000 HD 
BRANCH  13  15
HETATM   15  C   UNL     1     -11.084   8.991  70.042  1.00  0.00    -0.182 C  
HETATM   16  C   UNL     1     -10.195   9.831  70.973  1.00  0.00    -0.113 C  
BRANCH  15  17
HETATM   17  C   UNL     1     -10.573   7.525  69.948  1.00  0.00    -0.243 C  
BRANCH  17  18
HETATM   18  C   UNL     1      -9.307   7.424  69.126  1.00  0.00    -0.146 A  
HETATM   19  C   UNL     1      -9.288   7.931  67.822  1.00  0.00    -0.153 A  
HETATM   20  C   UNL     1      -8.215   7.644  66.968  1.00  0.00    -0.117 A  
HETATM   21  C   UNL     1      -7.096   6.945  67.439  1.00  0.00    -0.084 A  
HETATM   22  C   UNL     1      -8.188   6.741  69.603  1.00  0.00    -0.131 A  
HETATM   23  C   UNL     1      -7.083   6.522  68.772  1.00  0.00    -0.082 A  
BRANCH  20  24
HETATM   24  S   UNL     1      -8.309   8.050  65.241  1.00  0.00    -0.119 S  
HETATM   25  O   UNL     1      -9.380   9.002  65.063  1.00  0.00    -0.141 OA 
HETATM   26  N   UNL     1      -6.900   8.911  64.925  1.00  0.00    -0.073 N  
HETATM   27  O   UNL     1      -8.175   6.834  64.474  1.00  0.00    -0.103 OA 
HETATM   28  H1  UNL     1      -6.954   9.144  63.934  1.00  0.00     0.000 HD 
HETATM   29  H2  UNL     1      -6.155   9.148  65.580  1.00  0.00     0.000 HD 
ENDBRANCH  20  24
BRANCH  21  30
HETATM   30  O   UNL     1      -6.082   6.718  66.551  1.00  0.00    -0.034 OA 
HETATM   31  C   UNL     1      -5.314   5.531  66.702  1.00  0.00    -0.008 C  
ENDBRANCH  21  30
ENDBRANCH  17  18
ENDBRANCH  15  17
ENDBRANCH  13  15
ENDBRANCH  12  13
ENDBRANCH  11  12
ENDBRANCH  10  11
ENDBRANCH   9  10
ENDBRANCH   3   4
ENDBRANCH   2   3
TORSDOF 11
ENDMDL
MODEL      392
REMARK 921   NORMALIZED FREE ENERGY PREDICTED BY IDOCK:   -2.02 KCAL/MOL
REMARK 922        TOTAL FREE ENERGY PREDICTED BY IDOCK:   -4.56 KCAL/MOL
REMARK 923 INTER-LIGAND FREE ENERGY PREDICTED BY IDOCK:   -4.59 KCAL/MOL
REMARK 924 INTRA-LIGAND FREE ENERGY PREDICTED BY IDOCK:    0.03 KCAL/MOL
REMARK 927      BINDING AFFINITY PREDICTED BY RF-SCORE:    0.00 PKD
ROOT
HETATM    1  C   UNL     1     -12.347  15.778  63.885  1.00  0.00     0.522 C  
HETATM    2  C   UNL     1     -12.365  14.859  65.097  1.00  0.00    -0.062 C  
ENDROOT
BRANCH   2   3
HETATM    3  O   UNL     1     -11.003  14.558  65.376  1.00  0.00    -0.309 OA 
BRANCH   3   4
HETATM    4  C   UNL     1     -10.262  15.362  66.188  1.00  0.00    -0.308 A  
HETATM    5  C   UNL     1     -10.533  16.724  66.377  1.00  0.00    -0.269 A  
HETATM    6  C   UNL     1      -9.723  17.510  67.201  1.00  0.00    -0.279 A  
HETATM    7  C   UNL     1      -8.630  16.941  67.851  1.00  0.00    -0.208 A  
HETATM    8  C   UNL     1      -8.358  15.584  67.682  1.00  0.00    -0.167 A  
HETATM    9  C   UNL     1      -9.166  14.782  66.861  1.00  0.00    -0.245 A  
BRANCH   9  10
HETATM   10  O   UNL     1      -8.744  13.472  66.833  1.00  0.00    -0.213 OA 
BRANCH  10  11
HETATM   11  C   UNL     1      -9.251  12.582  67.826  1.00  0.00    -0.198 C  
BRANCH  11  12
HETATM   12  C   UNL     1     -10.572  11.968  67.344  1.00  0.00    -0.223 C  
BRANCH  12  13
HETATM   13  N   UNL     1     -10.471  10.619  66.766  1.00  0.00    -0.245 NA 
HETATM   14  H   UNL     1     -11.378  10.327  66.402  1.00  0.00     0.000 HD 
BRANCH  13  15
HETATM   15  C   UNL     1      -9.433  10.446  65.732  1.00  0.00    -0.198 C  
HETATM   16  C   UNL     1      -9.874  11.267  64.510  1.00  0.00    -0.317 C  
BRANCH  15  17
HETATM   17  C   UNL     1      -9.176   8.961  65.348  1.00  0.00    -0.202 C  
BRANCH  17  18
HETATM   18  C   UNL     1      -9.247   8.049  66.553  1.00  0.00    -0.236 A  
HETATM   19  C   UNL     1      -8.068   7.520  67.090  1.00  0.00    -0.118 A  
HETATM   20  C   UNL     1      -8.125   6.500  68.048  1.00  0.00    -0.113 A  
HETATM   21  C   UNL     1      -9.355   6.075  68.567  1.00  0.00    -0.117 A  
HETATM   22  C   UNL     1     -10.474   7.639  67.077  1.00  0.00    -0.419 A  
HETATM   23  C   UNL     1     -10.525   6.676  68.091  1.00  0.00    -0.257 A  
BRANCH  20  24
HETATM   24  S   UNL     1      -6.647   5.640  68.531  1.00  0.00    -0.053 S  
HETATM   25  O   UNL     1      -6.856   4.230  68.303  1.00  0.00    -0.046 OA 
HETATM   26  N   UNL     1      -5.492   6.101  67.400  1.00  0.00    -0.005 N  
HETATM   27  O   UNL     1      -6.179   6.194  69.780  1.00  0.00    -0.025 OA 
HETATM   28  H1  UNL     1      -4.645   5.607  67.677  1.00  0.00     0.000 HD 
HETATM   29  H2  UNL     1      -5.612   6.735  66.611  1.00  0.00     0.000 HD 
ENDBRANCH  20  24
BRANCH  21  30
HETATM   30  O   UNL     1      -9.328   5.087  69.511  1.00  0.00    -0.111 OA 
HETATM   31  C   UNL     1      -9.473   5.461  70.875  1.00  0.00    -0.167 C  
ENDBRANCH  21  30
ENDBRANCH  17  18
ENDBRANCH  15  17
ENDBRANCH  13  15
ENDBRANCH  12  13
ENDBRANCH  11  12
ENDBRANCH  10  11
ENDBRANCH   9  10
ENDBRANCH   3   4
ENDBRANCH   2   3
TORSDOF 11
ENDMDL
MODEL      393
REMARK 921   NORMALIZED FREE ENERGY PREDICTED BY IDOCK:   -1.95 KCAL/MOL
REMARK 922        TOTAL FREE ENERGY PREDICTED BY IDOCK:   -4.44 KCAL/MOL
REMARK 923 INTER-LIGAND FREE ENERGY PREDICTED BY IDOCK:   -5.47 KCAL/MOL
REMARK 924 INTRA-LIGAND FREE ENERGY PREDICTED BY IDOCK:    1.03 KCAL/MOL
REMARK 927      BINDING AFFINITY PREDICTED BY RF-SCORE:    0.00 PKD
ROOT
HETATM    1  C   UNL     1      -7.778   9.496  70.177  1.00  0.00    -0.161 C  
HETATM    2  C   UNL     1      -8.829   8.488  69.739  1.00  0.00    -0.137 C  
ENDROOT
BRANCH   2   3
HETATM    3  O   UNL     1      -9.921   9.255  69.248  1.00  0.00    -0.169 OA 
BRANCH   3   4
HETATM    4  C   UNL     1     -10.986   9.546  70.045  1.00  0.00    -0.251 A  
HETATM    5  C   UNL     1     -11.227   8.906  71.270  1.00  0.00    -0.368 A  
HETATM    6  C   UNL     1     -12.351   9.225  72.037  1.00  0.00    -0.433 A  
HETATM    7  C   UNL     1     -13.249  10.190  71.589  1.00  0.00    -0.518 A  
HETATM    8  C   UNL     1     -13.014  10.842  70.380  1.00  0.00    -0.172 A  
HETATM    9  C   UNL     1     -11.887  10.537  69.601  1.00  0.00    -0.234 A  
BRANCH   9  10
HETATM   10  O   UNL     1     -11.823  11.294  68.454  1.00  0.00    -0.482 OA 
BRANCH  10  11
HETATM   11  C   UNL     1     -10.975  12.441  68.451  1.00  0.00    -0.241 C  
BRANCH  11  12
HETATM   12  C   UNL     1     -11.062  13.145  67.091  1.00  0.00    -0.279 C  
BRANCH  12  13
HETATM   13  N   UNL     1      -9.779  13.351  66.400  1.00  0.00    -0.277 NA 
HETATM   14  H   UNL     1      -9.025  13.433  67.083  1.00  0.00     0.000 HD 
BRANCH  13  15
HETATM   15  C   UNL     1      -9.434  12.338  65.385  1.00  0.00     0.028 C  
HETATM   16  C   UNL     1     -10.757  11.778  64.840  1.00  0.00    -0.347 C  
BRANCH  15  17
HETATM   17  C   UNL     1      -8.521  11.200  65.924  1.00  0.00    -0.105 C  
BRANCH  17  18
HETATM   18  C   UNL     1      -8.552   9.984  65.026  1.00  0.00    -0.173 A  
HETATM   19  C   UNL     1      -8.382   8.711  65.581  1.00  0.00    -0.151 A  
HETATM   20  C   UNL     1      -8.175   7.600  64.753  1.00  0.00    -0.078 A  
HETATM   21  C   UNL     1      -8.248   7.726  63.359  1.00  0.00     0.016 A  
HETATM   22  C   UNL     1      -8.640  10.110  63.638  1.00  0.00    -0.199 A  
HETATM   23  C   UNL     1      -8.511   8.987  62.814  1.00  0.00    -0.206 A  
BRANCH  20  24
HETATM   24  S   UNL     1      -7.691   6.039  65.449  1.00  0.00    -0.097 S  
HETATM   25  O   UNL     1      -8.019   6.055  66.855  1.00  0.00    -0.101 OA 
HETATM   26  N   UNL     1      -8.743   4.920  64.766  1.00  0.00    -0.152 N  
HETATM   27  O   UNL     1      -6.391   5.685  64.928  1.00  0.00    -0.035 OA 
HETATM   28  H1  UNL     1      -8.466   4.024  65.165  1.00  0.00     0.000 HD 
HETATM   29  H2  UNL     1      -9.494   5.097  64.099  1.00  0.00     0.000 HD 
ENDBRANCH  20  24
BRANCH  21  30
HETATM   30  O   UNL     1      -8.051   6.595  62.618  1.00  0.00    -0.106 OA 
HETATM   31  C   UNL     1      -6.727   6.090  62.507  1.00  0.00    -0.040 C  
ENDBRANCH  21  30
ENDBRANCH  17  18
ENDBRANCH  15  17
ENDBRANCH  13  15
ENDBRANCH  12  13
ENDBRANCH  11  12
ENDBRANCH  10  11
ENDBRANCH   9  10
ENDBRANCH   3   4
ENDBRANCH   2   3
TORSDOF 11
ENDMDL
MODEL      394
REMARK 921   NORMALIZED FREE ENERGY PREDICTED BY IDOCK:   -1.83 KCAL/MOL
REMARK 922        TOTAL FREE ENERGY PREDICTED BY IDOCK:   -4.26 KCAL/MOL
REMARK 923 INTER-LIGAND FREE ENERGY PREDICTED BY IDOCK:   -3.79 KCAL/MOL
REMARK 924 INTRA-LIGAND FREE ENERGY PREDICTED BY IDOCK:   -0.46 KCAL/MOL
REMARK 927      BINDING AFFINITY PREDICTED BY RF-SCORE:    0.00 PKD
ROOT
HETATM    1  C   UNL     1     -11.352   3.070  73.467  1.00  0.00    -0.249 C  
HETATM    2  C   UNL     1     -10.599   3.768  72.345  1.00  0.00     0.020 C  
ENDROOT
BRANCH   2   3
HETATM    3  O   UNL     1      -9.328   4.111  72.885  1.00  0.00    -0.113 OA 
BRANCH   3   4
HETATM    4  C   UNL     1      -8.943   5.413  72.994  1.00  0.00    -0.119 A  
HETATM    5  C   UNL     1      -9.173   6.189  74.138  1.00  0.00    -0.146 A  
HETATM    6  C   UNL     1      -8.780   7.530  74.187  1.00  0.00    -0.282 A  
HETATM    7  C   UNL     1      -8.150   8.112  73.089  1.00  0.00    -0.237 A  
HETATM    8  C   UNL     1      -7.905   7.346  71.950  1.00  0.00    -0.091 A  
HETATM    9  C   UNL     1      -8.288   5.997  71.889  1.00  0.00    -0.115 A  
BRANCH   9  10
HETATM   10  O   UNL     1      -7.948   5.411  70.691  1.00  0.00    -0.100 OA 
BRANCH  10  11
HETATM   11  C   UNL     1      -7.171   4.215  70.725  1.00  0.00    -0.037 C  
BRANCH  11  12
HETATM   12  C   UNL     1      -5.731   4.522  70.294  1.00  0.00    -0.013 C  
BRANCH  12  13
HETATM   13  N   UNL     1      -5.483   5.903  69.850  1.00  0.00    -0.011 NA 
HETATM   14  H   UNL     1      -4.517   6.166  70.051  1.00  0.00     0.000 HD 
BRANCH  13  15
HETATM   15  C   UNL     1      -5.798   6.183  68.437  1.00  0.00    -0.013 C  
HETATM   16  C   UNL     1      -5.203   5.035  67.606  1.00  0.00    -0.007 C  
BRANCH  15  17
HETATM   17  C   UNL     1      -5.278   7.563  67.942  1.00  0.00    -0.026 C  
BRANCH  17  18
HETATM   18  C   UNL     1      -6.350   8.337  67.208  1.00  0.00    -0.057 A  
HETATM   19  C   UNL     1      -7.549   8.645  67.861  1.00  0.00    -0.098 A  
HETATM   20  C   UNL     1      -8.637   9.150  67.138  1.00  0.00    -0.120 A  
HETATM   21  C   UNL     1      -8.507   9.462  65.778  1.00  0.00    -0.132 A  
HETATM   22  C   UNL     1      -6.212   8.661  65.858  1.00  0.00    -0.056 A  
HETATM   23  C   UNL     1      -7.275   9.238  65.154  1.00  0.00    -0.094 A  
BRANCH  20  24
HETATM   24  S   UNL     1     -10.236   9.286  67.900  1.00  0.00    -0.226 S  
HETATM   25  O   UNL     1     -10.947  10.367  67.258  1.00  0.00    -0.288 OA 
HETATM   26  N   UNL     1     -11.051   7.890  67.439  1.00  0.00    -0.448 N  
HETATM   27  O   UNL     1     -10.077   9.162  69.330  1.00  0.00    -0.185 OA 
HETATM   28  H1  UNL     1     -11.969   7.968  67.876  1.00  0.00     0.000 HD 
HETATM   29  H2  UNL     1     -10.705   7.132  66.851  1.00  0.00     0.000 HD 
ENDBRANCH  20  24
BRANCH  21  30
HETATM   30  O   UNL     1      -9.608   9.967  65.144  1.00  0.00    -0.250 OA 
HETATM   31  C   UNL     1      -9.502  10.273  63.760  1.00  0.00    -0.300 C  
ENDBRANCH  21  30
ENDBRANCH  17  18
ENDBRANCH  15  17
ENDBRANCH  13  15
ENDBRANCH  12  13
ENDBRANCH  11  12
ENDBRANCH  10  11
ENDBRANCH   9  10
ENDBRANCH   3   4
ENDBRANCH   2   3
TORSDOF 11
ENDMDL
MODEL      395
REMARK 921   NORMALIZED FREE ENERGY PREDICTED BY IDOCK:   -1.65 KCAL/MOL
REMARK 922        TOTAL FREE ENERGY PREDICTED BY IDOCK:   -3.96 KCAL/MOL
REMARK 923 INTER-LIGAND FREE ENERGY PREDICTED BY IDOCK:   -3.76 KCAL/MOL
REMARK 924 INTRA-LIGAND FREE ENERGY PREDICTED BY IDOCK:   -0.20 KCAL/MOL
REMARK 927      BINDING AFFINITY PREDICTED BY RF-SCORE:    0.00 PKD
ROOT
HETATM    1  C   UNL     1      -9.068   7.618  68.207  1.00  0.00    -0.136 C  
HETATM    2  C   UNL     1     -10.219   7.068  67.380  1.00  0.00    -0.215 C  
ENDROOT
BRANCH   2   3
HETATM    3  O   UNL     1      -9.620   6.288  66.352  1.00  0.00    -0.162 OA 
BRANCH   3   4
HETATM    4  C   UNL     1      -8.965   5.130  66.644  1.00  0.00    -0.115 A  
HETATM    5  C   UNL     1      -9.576   3.869  66.599  1.00  0.00    -0.215 A  
HETATM    6  C   UNL     1      -8.865   2.714  66.935  1.00  0.00    -0.148 A  
HETATM    7  C   UNL     1      -7.529   2.806  67.320  1.00  0.00    -0.065 A  
HETATM    8  C   UNL     1      -6.907   4.053  67.356  1.00  0.00    -0.051 A  
HETATM    9  C   UNL     1      -7.608   5.221  67.016  1.00  0.00    -0.092 A  
BRANCH   9  10
HETATM   10  O   UNL     1      -6.820   6.346  67.101  1.00  0.00    -0.061 OA 
BRANCH  10  11
HETATM   11  C   UNL     1      -5.865   6.577  66.067  1.00  0.00    -0.022 C  
BRANCH  11  12
HETATM   12  C   UNL     1      -6.555   6.499  64.699  1.00  0.00    -0.038 C  
BRANCH  12  13
HETATM   13  N   UNL     1      -7.675   7.433  64.499  1.00  0.00    -0.120 NA 
HETATM   14  H   UNL     1      -7.713   8.101  65.270  1.00  0.00     0.000 HD 
BRANCH  13  15
HETATM   15  C   UNL     1      -7.684   8.150  63.210  1.00  0.00    -0.143 C  
HETATM   16  C   UNL     1      -6.578   7.528  62.342  1.00  0.00    -0.071 C  
BRANCH  15  17
HETATM   17  C   UNL     1      -7.493   9.687  63.348  1.00  0.00    -0.118 C  
BRANCH  17  18
HETATM   18  C   UNL     1      -8.128  10.220  64.613  1.00  0.00    -0.154 A  
HETATM   19  C   UNL     1      -7.324  10.507  65.722  1.00  0.00    -0.137 A  
HETATM   20  C   UNL     1      -7.908  10.776  66.966  1.00  0.00    -0.121 A  
HETATM   21  C   UNL     1      -9.300  10.875  67.095  1.00  0.00    -0.159 A  
HETATM   22  C   UNL     1      -9.514  10.333  64.734  1.00  0.00    -0.341 A  
HETATM   23  C   UNL     1     -10.093  10.679  65.960  1.00  0.00    -0.308 A  
BRANCH  20  24
HETATM   24  S   UNL     1      -6.903  10.871  68.428  1.00  0.00    -0.071 S  
HETATM   25  O   UNL     1      -6.876  12.247  68.864  1.00  0.00    -0.088 OA 
HETATM   26  N   UNL     1      -7.779  10.054  69.606  1.00  0.00    -0.139 N  
HETATM   27  O   UNL     1      -5.720  10.066  68.227  1.00  0.00    -0.042 OA 
HETATM   28  H1  UNL     1      -7.203  10.108  70.445  1.00  0.00     0.000 HD 
HETATM   29  H2  UNL     1      -8.688   9.603  69.506  1.00  0.00     0.000 HD 
ENDBRANCH  20  24
BRANCH  21  30
HETATM   30  O   UNL     1      -9.794  11.157  68.338  1.00  0.00    -0.172 OA 
HETATM   31  C   UNL     1     -11.130  10.768  68.631  1.00  0.00    -0.259 C  
ENDBRANCH  21  30
ENDBRANCH  17  18
ENDBRANCH  15  17
ENDBRANCH  13  15
ENDBRANCH  12  13
ENDBRANCH  11  12
ENDBRANCH  10  11
ENDBRANCH   9  10
ENDBRANCH   3   4
ENDBRANCH   2   3
TORSDOF 11
ENDMDL
MODEL      396
REMARK 921   NORMALIZED FREE ENERGY PREDICTED BY IDOCK:   -1.56 KCAL/MOL
REMARK 922        TOTAL FREE ENERGY PREDICTED BY IDOCK:   -3.81 KCAL/MOL
REMARK 923 INTER-LIGAND FREE ENERGY PREDICTED BY IDOCK:   -4.48 KCAL/MOL
REMARK 924 INTRA-LIGAND FREE ENERGY PREDICTED BY IDOCK:    0.68 KCAL/MOL
REMARK 927      BINDING AFFINITY PREDICTED BY RF-SCORE:    0.00 PKD
ROOT
HETATM    1  C   UNL     1     -12.134  13.605  70.391  1.00  0.00    -0.421 C  
HETATM    2  C   UNL     1     -12.044  12.103  70.169  1.00  0.00    -0.290 C  
ENDROOT
BRANCH   2   3
HETATM    3  O   UNL     1     -13.067  11.531  70.975  1.00  0.00    -0.219 OA 
BRANCH   3   4
HETATM    4  C   UNL     1     -12.997  10.231  71.375  1.00  0.00    -0.440 A  
HETATM    5  C   UNL     1     -14.125   9.465  71.699  1.00  0.00    -0.163 A  
HETATM    6  C   UNL     1     -13.995   8.142  72.131  1.00  0.00    -0.345 A  
HETATM    7  C   UNL     1     -12.731   7.566  72.241  1.00  0.00    -0.070 A  
HETATM    8  C   UNL     1     -11.602   8.314  71.909  1.00  0.00    -0.377 A  
HETATM    9  C   UNL     1     -11.718   9.642  71.469  1.00  0.00    -0.400 A  
BRANCH   9  10
HETATM   10  O   UNL     1     -10.497  10.204  71.178  1.00  0.00     0.080 OA 
BRANCH  10  11
HETATM   11  C   UNL     1      -9.469   9.354  70.672  1.00  0.00    -0.262 C  
BRANCH  11  12
HETATM   12  C   UNL     1      -9.501   9.361  69.138  1.00  0.00    -0.163 C  
BRANCH  12  13
HETATM   13  N   UNL     1     -10.490   8.463  68.521  1.00  0.00    -0.311 NA 
HETATM   14  H   UNL     1     -11.245   9.009  68.104  1.00  0.00     0.000 HD 
BRANCH  13  15
HETATM   15  C   UNL     1      -9.953   7.508  67.532  1.00  0.00    -0.174 C  
HETATM   16  C   UNL     1      -9.838   6.147  68.236  1.00  0.00    -0.138 C  
BRANCH  15  17
HETATM   17  C   UNL     1      -8.590   7.943  66.922  1.00  0.00    -0.130 C  
BRANCH  17  18
HETATM   18  C   UNL     1      -8.138   7.000  65.829  1.00  0.00    -0.123 A  
HETATM   19  C   UNL     1      -8.752   5.750  65.698  1.00  0.00    -0.151 A  
HETATM   20  C   UNL     1      -8.201   4.777  64.853  1.00  0.00    -0.120 A  
HETATM   21  C   UNL     1      -7.098   5.078  64.043  1.00  0.00    -0.049 A  
HETATM   22  C   UNL     1      -7.049   7.308  65.012  1.00  0.00    -0.064 A  
HETATM   23  C   UNL     1      -6.547   6.361  64.112  1.00  0.00    -0.033 A  
BRANCH  20  24
HETATM   24  S   UNL     1      -8.812   3.109  64.887  1.00  0.00    -0.126 S  
HETATM   25  O   UNL     1     -10.062   3.105  65.608  1.00  0.00     0.214 OA 
HETATM   26  N   UNL     1      -9.223   2.770  63.293  1.00  0.00    -0.094 N  
HETATM   27  O   UNL     1      -7.710   2.221  65.178  1.00  0.00    -0.074 OA 
HETATM   28  H1  UNL     1      -9.573   1.812  63.312  1.00  0.00     0.000 HD 
HETATM   29  H2  UNL     1      -9.141   3.385  62.484  1.00  0.00     0.000 HD 
ENDBRANCH  20  24
BRANCH  21  30
HETATM   30  O   UNL     1      -6.628   4.082  63.233  1.00  0.00    -0.032 OA 
HETATM   31  C   UNL     1      -5.294   3.632  63.432  1.00  0.00    -0.009 C  
ENDBRANCH  21  30
ENDBRANCH  17  18
ENDBRANCH  15  17
ENDBRANCH  13  15
ENDBRANCH  12  13
ENDBRANCH  11  12
ENDBRANCH  10  11
ENDBRANCH   9  10
ENDBRANCH   3   4
ENDBRANCH   2   3
TORSDOF 11
ENDMDL
MODEL      397
REMARK 921   NORMALIZED FREE ENERGY PREDICTED BY IDOCK:   -1.20 KCAL/MOL
REMARK 922        TOTAL FREE ENERGY PREDICTED BY IDOCK:   -3.21 KCAL/MOL
REMARK 923 INTER-LIGAND FREE ENERGY PREDICTED BY IDOCK:   -3.42 KCAL/MOL
REMARK 924 INTRA-LIGAND FREE ENERGY PREDICTED BY IDOCK:    0.21 KCAL/MOL
REMARK 927      BINDING AFFINITY PREDICTED BY RF-SCORE:    0.00 PKD
ROOT
HETATM    1  C   UNL     1     -10.757   5.135  69.578  1.00  0.00     0.021 C  
HETATM    2  C   UNL     1      -9.404   5.703  69.978  1.00  0.00    -0.149 C  
ENDROOT
BRANCH   2   3
HETATM    3  O   UNL     1      -9.146   5.209  71.287  1.00  0.00    -0.139 OA 
BRANCH   3   4
HETATM    4  C   UNL     1      -8.864   6.059  72.312  1.00  0.00    -0.138 A  
HETATM    5  C   UNL     1      -8.134   5.679  73.447  1.00  0.00    -0.113 A  
HETATM    6  C   UNL     1      -7.895   6.585  74.484  1.00  0.00    -0.114 A  
HETATM    7  C   UNL     1      -8.384   7.886  74.398  1.00  0.00    -0.271 A  
HETATM    8  C   UNL     1      -9.100   8.280  73.269  1.00  0.00    -0.278 A  
HETATM    9  C   UNL     1      -9.343   7.383  72.217  1.00  0.00    -0.142 A  
BRANCH   9  10
HETATM   10  O   UNL     1     -10.052   7.961  71.190  1.00  0.00    -0.184 OA 
BRANCH  10  11
HETATM   11  C   UNL     1      -9.742   9.308  70.834  1.00  0.00    -0.276 C  
BRANCH  11  12
HETATM   12  C   UNL     1      -8.421   9.344  70.053  1.00  0.00    -0.190 C  
BRANCH  12  13
HETATM   13  N   UNL     1      -8.339   8.429  68.904  1.00  0.00    -0.119 NA 
HETATM   14  H   UNL     1      -9.042   7.695  68.990  1.00  0.00     0.000 HD 
BRANCH  13  15
HETATM   15  C   UNL     1      -8.435   9.066  67.576  1.00  0.00    -0.116 C  
HETATM   16  C   UNL     1      -9.857   8.804  67.054  1.00  0.00    -0.279 C  
BRANCH  15  17
HETATM   17  C   UNL     1      -7.364   8.566  66.565  1.00  0.00    -0.084 C  
BRANCH  17  18
HETATM   18  C   UNL     1      -7.646   7.155  66.100  1.00  0.00    -0.092 A  
HETATM   19  C   UNL     1      -7.306   6.076  66.922  1.00  0.00    -0.076 A  
HETATM   20  C   UNL     1      -7.342   4.768  66.421  1.00  0.00    -0.082 A  
HETATM   21  C   UNL     1      -7.826   4.510  65.132  1.00  0.00    -0.090 A  
HETATM   22  C   UNL     1      -8.143   6.901  64.820  1.00  0.00    -0.095 A  
HETATM   23  C   UNL     1      -8.253   5.588  64.349  1.00  0.00    -0.127 A  
BRANCH  20  24
HETATM   24  S   UNL     1      -6.657   3.426  67.364  1.00  0.00    -0.038 S  
HETATM   25  O   UNL     1      -7.001   3.633  68.751  1.00  0.00    -0.045 OA 
HETATM   26  N   UNL     1      -7.536   2.075  66.890  1.00  0.00    -0.064 N  
HETATM   27  O   UNL     1      -5.314   3.173  66.896  1.00  0.00    -0.011 OA 
HETATM   28  H1  UNL     1      -7.143   1.305  67.431  1.00  0.00     0.000 HD 
HETATM   29  H2  UNL     1      -8.296   2.033  66.211  1.00  0.00     0.000 HD 
ENDBRANCH  20  24
BRANCH  21  30
HETATM   30  O   UNL     1      -7.846   3.207  64.720  1.00  0.00    -0.077 OA 
HETATM   31  C   UNL     1      -7.267   2.894  63.460  1.00  0.00    -0.049 C  
ENDBRANCH  21  30
ENDBRANCH  17  18
ENDBRANCH  15  17
ENDBRANCH  13  15
ENDBRANCH  12  13
ENDBRANCH  11  12
ENDBRANCH  10  11
ENDBRANCH   9  10
ENDBRANCH   3   4
ENDBRANCH   2   3
TORSDOF 11
ENDMDL
MODEL      398
REMARK 921   NORMALIZED FREE ENERGY PREDICTED BY IDOCK:   -0.34 KCAL/MOL
REMARK 922        TOTAL FREE ENERGY PREDICTED BY IDOCK:   -1.81 KCAL/MOL
REMARK 923 INTER-LIGAND FREE ENERGY PREDICTED BY IDOCK:   -4.21 KCAL/MOL
REMARK 924 INTRA-LIGAND FREE ENERGY PREDICTED BY IDOCK:    2.40 KCAL/MOL
REMARK 927      BINDING AFFINITY PREDICTED BY RF-SCORE:    0.00 PKD
ROOT
HETATM    1  C   UNL     1      -9.524   9.701  66.209  1.00  0.00    -0.255 C  
HETATM    2  C   UNL     1     -10.307  10.007  64.941  1.00  0.00     0.218 C  
ENDROOT
BRANCH   2   3
HETATM    3  O   UNL     1     -11.371  10.864  65.339  1.00  0.00     0.158 OA 
BRANCH   3   4
HETATM    4  C   UNL     1     -11.145  12.179  65.611  1.00  0.00    -0.316 A  
HETATM    5  C   UNL     1     -11.720  12.848  66.700  1.00  0.00    -0.452 A  
HETATM    6  C   UNL     1     -11.477  14.207  66.918  1.00  0.00    -0.373 A  
HETATM    7  C   UNL     1     -10.652  14.915  66.047  1.00  0.00    -0.321 A  
HETATM    8  C   UNL     1     -10.064  14.258  64.968  1.00  0.00    -0.324 A  
HETATM    9  C   UNL     1     -10.295  12.892  64.740  1.00  0.00    -0.323 A  
BRANCH   9  10
HETATM   10  O   UNL     1      -9.618  12.424  63.637  1.00  0.00    -0.191 OA 
BRANCH  10  11
HETATM   11  C   UNL     1     -10.236  11.407  62.850  1.00  0.00    -0.162 C  
BRANCH  11  12
HETATM   12  C   UNL     1      -9.186  10.373  62.425  1.00  0.00    -0.277 C  
BRANCH  12  13
HETATM   13  N   UNL     1      -7.862  10.520  63.050  1.00  0.00    -0.277 NA 
HETATM   14  H   UNL     1      -7.910  11.194  63.814  1.00  0.00     0.000 HD 
BRANCH  13  15
HETATM   15  C   UNL     1      -7.237   9.268  63.519  1.00  0.00    -0.094 C  
HETATM   16  C   UNL     1      -5.972   9.660  64.298  1.00  0.00    -0.088 C  
BRANCH  15  17
HETATM   17  C   UNL     1      -6.905   8.269  62.374  1.00  0.00    -0.090 C  
BRANCH  17  18
HETATM   18  C   UNL     1      -6.691   6.866  62.898  1.00  0.00    -0.047 A  
HETATM   19  C   UNL     1      -7.687   6.257  63.668  1.00  0.00    -0.109 A  
HETATM   20  C   UNL     1      -7.421   5.064  64.352  1.00  0.00    -0.068 A  
HETATM   21  C   UNL     1      -6.195   4.404  64.186  1.00  0.00    -0.026 A  
HETATM   22  C   UNL     1      -5.475   6.205  62.718  1.00  0.00    -0.022 A  
HETATM   23  C   UNL     1      -5.238   4.974  63.340  1.00  0.00    -0.009 A  
BRANCH  20  24
HETATM   24  S   UNL     1      -8.581   4.431  65.540  1.00  0.00    -0.124 S  
HETATM   25  O   UNL     1      -7.936   4.419  66.832  1.00  0.00    -0.100 OA 
HETATM   26  N   UNL     1      -9.768   5.616  65.653  1.00  0.00    -0.368 N  
HETATM   27  O   UNL     1      -9.254   3.291  64.964  1.00  0.00    -0.138 OA 
HETATM   28  H1  UNL     1     -10.433   5.253  66.335  1.00  0.00     0.000 HD 
HETATM   29  H2  UNL     1      -9.813   6.502  65.151  1.00  0.00     0.000 HD 
ENDBRANCH  20  24
BRANCH  21  30
HETATM   30  O   UNL     1      -6.015   3.237  64.874  1.00  0.00    -0.021 OA 
HETATM   31  C   UNL     1      -5.861   2.037  64.127  1.00  0.00    -0.009 C  
ENDBRANCH  21  30
ENDBRANCH  17  18
ENDBRANCH  15  17
ENDBRANCH  13  15
ENDBRANCH  12  13
ENDBRANCH  11  12
ENDBRANCH  10  11
ENDBRANCH   9  10
ENDBRANCH   3   4
ENDBRANCH   2   3
TORSDOF 11
ENDMDL
MODEL      399
REMARK 921   NORMALIZED FREE ENERGY PREDICTED BY IDOCK:   -0.01 KCAL/MOL
REMARK 922        TOTAL FREE ENERGY PREDICTED BY IDOCK:   -1.26 KCAL/MOL
REMARK 923 INTER-LIGAND FREE ENERGY PREDICTED BY IDOCK:   -2.91 KCAL/MOL
REMARK 924 INTRA-LIGAND FREE ENERGY PREDICTED BY IDOCK:    1.65 KCAL/MOL
REMARK 927      BINDING AFFINITY PREDICTED BY RF-SCORE:    0.00 PKD
ROOT
HETATM    1  C   UNL     1     -10.275  19.493  71.650  1.00  0.00     3.017 C  
HETATM    2  C   UNL     1      -9.818  20.121  70.342  1.00  0.00     1.058 C  
ENDROOT
BRANCH   2   3
HETATM    3  O   UNL     1      -9.742  19.054  69.405  1.00  0.00    -0.203 OA 
BRANCH   3   4
HETATM    4  C   UNL     1      -9.271  19.263  68.144  1.00  0.00    -0.334 A  
HETATM    5  C   UNL     1      -9.535  20.427  67.408  1.00  0.00    -0.561 A  
HETATM    6  C   UNL     1      -9.050  20.578  66.106  1.00  0.00    -0.000 A  
HETATM    7  C   UNL     1      -8.291  19.565  65.523  1.00  0.00     0.450 A  
HETATM    8  C   UNL     1      -8.012  18.409  66.249  1.00  0.00    -0.264 A  
HETATM    9  C   UNL     1      -8.488  18.245  67.560  1.00  0.00    -0.249 A  
BRANCH   9  10
HETATM   10  O   UNL     1      -8.097  17.047  68.112  1.00  0.00    -0.198 OA 
BRANCH  10  11
HETATM   11  C   UNL     1      -9.084  16.031  68.282  1.00  0.00    -0.191 C  
BRANCH  11  12
HETATM   12  C   UNL     1     -10.293  16.331  67.386  1.00  0.00    -0.285 C  
BRANCH  12  13
HETATM   13  N   UNL     1     -10.944  15.156  66.785  1.00  0.00    -0.321 NA 
HETATM   14  H   UNL     1     -11.717  15.452  66.189  1.00  0.00     0.000 HD 
BRANCH  13  15
HETATM   15  C   UNL     1     -10.053  14.246  66.040  1.00  0.00    -0.318 C  
HETATM   16  C   UNL     1     -10.734  13.949  64.695  1.00  0.00    -0.422 C  
BRANCH  15  17
HETATM   17  C   UNL     1      -9.721  12.933  66.805  1.00  0.00    -0.246 C  
BRANCH  17  18
HETATM   18  C   UNL     1     -10.732  12.646  67.892  1.00  0.00    -0.237 A  
HETATM   19  C   UNL     1     -11.260  13.703  68.641  1.00  0.00    -0.308 A  
HETATM   20  C   UNL     1     -12.012  13.444  69.795  1.00  0.00    -0.330 A  
HETATM   21  C   UNL     1     -12.343  12.130  70.151  1.00  0.00    -0.145 A  
HETATM   22  C   UNL     1     -11.073  11.336  68.235  1.00  0.00    -0.297 A  
HETATM   23  C   UNL     1     -11.889  11.083  69.343  1.00  0.00    -0.407 A  
BRANCH  20  24
HETATM   24  S   UNL     1     -12.451  14.768  70.895  1.00  0.00    -0.358 S  
HETATM   25  O   UNL     1     -11.962  16.002  70.328  1.00  0.00    -0.328 OA 
HETATM   26  N   UNL     1     -14.126  14.872  70.794  1.00  0.00    -0.552 N  
HETATM   27  O   UNL     1     -12.192  14.346  72.252  1.00  0.00    -0.246 OA 
HETATM   28  H1  UNL     1     -14.378  15.632  71.425  1.00  0.00     0.000 HD 
HETATM   29  H2  UNL     1     -14.752  14.302  70.226  1.00  0.00     0.000 HD 
ENDBRANCH  20  24
BRANCH  21  30
HETATM   30  O   UNL     1     -13.093  11.959  71.281  1.00  0.00    -0.301 OA 
HETATM   31  C   UNL     1     -13.309  10.633  71.746  1.00  0.00    -0.334 C  
ENDBRANCH  21  30
ENDBRANCH  17  18
ENDBRANCH  15  17
ENDBRANCH  13  15
ENDBRANCH  12  13
ENDBRANCH  11  12
ENDBRANCH  10  11
ENDBRANCH   9  10
ENDBRANCH   3   4
ENDBRANCH   2   3
TORSDOF 11
ENDMDL
MODEL      400
REMARK 921   NORMALIZED FREE ENERGY PREDICTED BY IDOCK:    1.84 KCAL/MOL
REMARK 922        TOTAL FREE ENERGY PREDICTED BY IDOCK:    1.78 KCAL/MOL
REMARK 923 INTER-LIGAND FREE ENERGY PREDICTED BY IDOCK:   -2.60 KCAL/MOL
REMARK 924 INTRA-LIGAND FREE ENERGY PREDICTED BY IDOCK:    4.38 KCAL/MOL
REMARK 927      BINDING AFFINITY PREDICTED BY RF-SCORE:    0.00 PKD
ROOT
HETATM    1  C   UNL     1     -11.112   6.127  67.657  1.00  0.00    -0.311 C  
HETATM    2  C   UNL     1      -9.644   6.305  67.302  1.00  0.00    -0.123 C  
ENDROOT
BRANCH   2   3
HETATM    3  O   UNL     1      -8.914   5.636  68.323  1.00  0.00    -0.115 OA 
BRANCH   3   4
HETATM    4  C   UNL     1      -8.235   6.339  69.272  1.00  0.00    -0.114 A  
HETATM    5  C   UNL     1      -7.170   5.803  70.010  1.00  0.00    -0.069 A  
HETATM    6  C   UNL     1      -6.525   6.559  70.992  1.00  0.00    -0.049 A  
HETATM    7  C   UNL     1      -6.936   7.865  71.248  1.00  0.00    -0.050 A  
HETATM    8  C   UNL     1      -7.985   8.414  70.512  1.00  0.00    -0.098 A  
HETATM    9  C   UNL     1      -8.639   7.667  69.519  1.00  0.00    -0.132 A  
BRANCH   9  10
HETATM   10  O   UNL     1      -9.635   8.385  68.897  1.00  0.00    -0.151 OA 
BRANCH  10  11
HETATM   11  C   UNL     1      -9.511   9.806  68.850  1.00  0.00    -0.161 C  
BRANCH  11  12
HETATM   12  C   UNL     1      -8.061  10.187  68.521  1.00  0.00    -0.106 C  
BRANCH  12  13
HETATM   13  N   UNL     1      -7.557   9.703  67.226  1.00  0.00    -0.091 NA 
HETATM   14  H   UNL     1      -8.146   8.944  66.883  1.00  0.00     0.000 HD 
BRANCH  13  15
HETATM   15  C   UNL     1      -7.401  10.732  66.180  1.00  0.00    -0.127 C  
HETATM   16  C   UNL     1      -8.789  10.960  65.562  1.00  0.00    -0.199 C  
BRANCH  15  17
HETATM   17  C   UNL     1      -6.354  10.361  65.091  1.00  0.00    -0.103 C  
BRANCH  17  18
HETATM   18  C   UNL     1      -6.704   9.064  64.395  1.00  0.00    -0.079 A  
HETATM   19  C   UNL     1      -6.698   7.867  65.119  1.00  0.00    -0.051 A  
HETATM   20  C   UNL     1      -6.789   6.638  64.454  1.00  0.00    -0.046 A  
HETATM   21  C   UNL     1      -7.002   6.590  63.070  1.00  0.00    -0.044 A  
HETATM   22  C   UNL     1      -6.932   9.021  63.018  1.00  0.00    -0.088 A  
HETATM   23  C   UNL     1      -7.101   7.795  62.365  1.00  0.00    -0.082 A  
BRANCH  20  24
HETATM   24  S   UNL     1      -6.509   5.119  65.331  1.00  0.00    -0.037 S  
HETATM   25  O   UNL     1      -7.678   4.287  65.170  1.00  0.00    -0.083 OA 
HETATM   26  N   UNL     1      -5.294   4.342  64.468  1.00  0.00    -0.012 N  
HETATM   27  O   UNL     1      -5.910   5.428  66.609  1.00  0.00    -0.017 OA 
HETATM   28  H1  UNL     1      -5.134   3.470  64.971  1.00  0.00     0.000 HD 
HETATM   29  H2  UNL     1      -4.821   4.669  63.626  1.00  0.00     0.000 HD 
ENDBRANCH  20  24
BRANCH  21  30
HETATM   30  O   UNL     1      -7.097   5.354  62.494  1.00  0.00    -0.041 OA 
HETATM   31  C   UNL     1      -5.946   4.520  62.508  1.00  0.00    -0.017 C  
ENDBRANCH  21  30
ENDBRANCH  17  18
ENDBRANCH  15  17
ENDBRANCH  13  15
ENDBRANCH  12  13
ENDBRANCH  11  12
ENDBRANCH  10  11
ENDBRANCH   9  10
ENDBRANCH   3   4
ENDBRANCH   2   3
TORSDOF 11
ENDMDL
MODEL      401
REMARK 921   NORMALIZED FREE ENERGY PREDICTED BY IDOCK:    7.30 KCAL/MOL
REMARK 922        TOTAL FREE ENERGY PREDICTED BY IDOCK:   10.76 KCAL/MOL
REMARK 923 INTER-LIGAND FREE ENERGY PREDICTED BY IDOCK:    8.10 KCAL/MOL
REMARK 924 INTRA-LIGAND FREE ENERGY PREDICTED BY IDOCK:    2.66 KCAL/MOL
REMARK 927      BINDING AFFINITY PREDICTED BY RF-SCORE:    0.00 PKD
ROOT
HETATM    1  C   UNL     1     -10.436  15.183  72.172  1.00  0.00     1.616 C  
HETATM    2  C   UNL     1     -11.549  15.428  71.165  1.00  0.00    -0.377 C  
ENDROOT
BRANCH   2   3
HETATM    3  O   UNL     1     -11.284  16.705  70.597  1.00  0.00    -0.245 OA 
BRANCH   3   4
HETATM    4  C   UNL     1     -11.354  16.900  69.251  1.00  0.00     0.274 A  
HETATM    5  C   UNL     1     -11.989  18.004  68.666  1.00  0.00     3.570 A  
HETATM    6  C   UNL     1     -12.056  18.141  67.277  1.00  0.00     3.280 A  
HETATM    7  C   UNL     1     -11.485  17.174  66.453  1.00  0.00     1.240 A  
HETATM    8  C   UNL     1     -10.839  16.078  67.023  1.00  0.00    -0.227 A  
HETATM    9  C   UNL     1     -10.759  15.930  68.417  1.00  0.00    -0.281 A  
BRANCH   9  10
HETATM   10  O   UNL     1     -10.073  14.795  68.783  1.00  0.00    -0.225 OA 
BRANCH  10  11
HETATM   11  C   UNL     1      -9.272  14.845  69.963  1.00  0.00     0.475 C  
BRANCH  11  12
HETATM   12  C   UNL     1      -8.001  15.661  69.690  1.00  0.00    -0.080 C  
BRANCH  12  13
HETATM   13  N   UNL     1      -7.513  15.631  68.302  1.00  0.00    -0.113 NA 
HETATM   14  H   UNL     1      -7.179  16.556  68.030  1.00  0.00     0.000 HD 
BRANCH  13  15
HETATM   15  C   UNL     1      -6.483  14.616  68.012  1.00  0.00    -0.152 C  
HETATM   16  C   UNL     1      -5.175  15.371  67.726  1.00  0.00    -0.095 C  
BRANCH  15  17
HETATM   17  C   UNL     1      -6.854  13.668  66.835  1.00  0.00     1.036 C  
BRANCH  17  18
HETATM   18  C   UNL     1      -7.692  12.499  67.300  1.00  0.00    -0.146 A  
HETATM   19  C   UNL     1      -7.063  11.343  67.775  1.00  0.00    -0.081 A  
HETATM   20  C   UNL     1      -7.803  10.173  67.988  1.00  0.00    -0.096 A  
HETATM   21  C   UNL     1      -9.197  10.173  67.841  1.00  0.00    -0.138 A  
HETATM   22  C   UNL     1      -9.082  12.507  67.166  1.00  0.00    -0.205 A  
HETATM   23  C   UNL     1      -9.829  11.359  67.455  1.00  0.00    -0.194 A  
BRANCH  20  24
HETATM   24  S   UNL     1      -6.976   8.637  68.327  1.00  0.00    -0.074 S  
HETATM   25  O   UNL     1      -6.932   7.874  67.102  1.00  0.00    -0.071 OA 
HETATM   26  N   UNL     1      -5.381   9.067  68.634  1.00  0.00    -0.034 N  
HETATM   27  O   UNL     1      -7.465   8.118  69.583  1.00  0.00    -0.081 OA 
HETATM   28  H1  UNL     1      -4.906   8.186  68.828  1.00  0.00     0.000 HD 
HETATM   29  H2  UNL     1      -4.976  10.003  68.628  1.00  0.00     0.000 HD 
ENDBRANCH  20  24
BRANCH  21  30
HETATM   30  O   UNL     1      -9.851   8.997  68.083  1.00  0.00    -0.156 OA 
HETATM   31  C   UNL     1     -10.345   8.265  66.969  1.00  0.00    -0.323 C  
ENDBRANCH  21  30
ENDBRANCH  17  18
ENDBRANCH  15  17
ENDBRANCH  13  15
ENDBRANCH  12  13
ENDBRANCH  11  12
ENDBRANCH  10  11
ENDBRANCH   9  10
ENDBRANCH   3   4
ENDBRANCH   2   3
TORSDOF 11
ENDMDL
MODEL      402
REMARK 921   NORMALIZED FREE ENERGY PREDICTED BY IDOCK:   11.40 KCAL/MOL
REMARK 922        TOTAL FREE ENERGY PREDICTED BY IDOCK:   17.49 KCAL/MOL
REMARK 923 INTER-LIGAND FREE ENERGY PREDICTED BY IDOCK:    9.26 KCAL/MOL
REMARK 924 INTRA-LIGAND FREE ENERGY PREDICTED BY IDOCK:    8.23 KCAL/MOL
REMARK 927      BINDING AFFINITY PREDICTED BY RF-SCORE:    0.00 PKD
ROOT
HETATM    1  C   UNL     1      -9.895  15.627  72.466  1.00  0.00     5.420 C  
HETATM    2  C   UNL     1     -10.781  16.047  71.303  1.00  0.00     0.532 C  
ENDROOT
BRANCH   2   3
HETATM    3  O   UNL     1     -10.207  17.243  70.790  1.00  0.00     1.436 OA 
BRANCH   3   4
HETATM    4  C   UNL     1      -9.991  17.398  69.455  1.00  0.00    -0.019 A  
HETATM    5  C   UNL     1     -10.014  18.644  68.812  1.00  0.00    -0.427 A  
HETATM    6  C   UNL     1      -9.812  18.744  67.433  1.00  0.00    -0.357 A  
HETATM    7  C   UNL     1      -9.582  17.596  66.677  1.00  0.00    -0.301 A  
HETATM    8  C   UNL     1      -9.544  16.353  67.307  1.00  0.00    -0.235 A  
HETATM    9  C   UNL     1      -9.740  16.238  68.693  1.00  0.00    -0.235 A  
BRANCH   9  10
HETATM   10  O   UNL     1      -9.652  14.935  69.126  1.00  0.00    -0.210 OA 
BRANCH  10  11
HETATM   11  C   UNL     1      -9.368  14.703  70.505  1.00  0.00     1.727 C  
BRANCH  11  12
HETATM   12  C   UNL     1      -7.893  15.015  70.789  1.00  0.00     1.676 C  
BRANCH  12  13
HETATM   13  N   UNL     1      -7.019  15.077  69.607  1.00  0.00    -0.182 NA 
HETATM   14  H   UNL     1      -6.207  15.663  69.804  1.00  0.00     0.000 HD 
BRANCH  13  15
HETATM   15  C   UNL     1      -6.583  13.775  69.068  1.00  0.00    -0.108 C  
HETATM   16  C   UNL     1      -5.223  13.455  69.708  1.00  0.00    -0.088 C  
BRANCH  15  17
HETATM   17  C   UNL     1      -6.496  13.739  67.515  1.00  0.00    -0.089 C  
BRANCH  17  18
HETATM   18  C   UNL     1      -7.863  13.615  66.879  1.00  0.00     0.274 A  
HETATM   19  C   UNL     1      -8.692  12.543  67.228  1.00  0.00    -0.193 A  
HETATM   20  C   UNL     1      -9.853  12.279  66.489  1.00  0.00    -0.229 A  
HETATM   21  C   UNL     1     -10.261  13.147  65.467  1.00  0.00    -0.287 A  
HETATM   22  C   UNL     1      -8.274  14.490  65.872  1.00  0.00     2.008 A  
HETATM   23  C   UNL     1      -9.474  14.269  65.187  1.00  0.00     0.492 A  
BRANCH  20  24
HETATM   24  S   UNL     1     -10.760  10.774  66.749  1.00  0.00    -0.196 S  
HETATM   25  O   UNL     1     -10.383   9.840  65.714  1.00  0.00    -0.209 OA 
HETATM   26  N   UNL     1     -10.129  10.133  68.170  1.00  0.00    -0.148 N  
HETATM   27  O   UNL     1     -12.127  11.109  67.073  1.00  0.00    -0.027 OA 
HETATM   28  H1  UNL     1     -10.649   9.269  68.319  1.00  0.00     0.000 HD 
HETATM   29  H2  UNL     1      -9.389  10.522  68.754  1.00  0.00     0.000 HD 
ENDBRANCH  20  24
BRANCH  21  30
HETATM   30  O   UNL     1     -11.413  12.831  64.802  1.00  0.00    -0.298 OA 
HETATM   31  C   UNL     1     -11.303  12.298  63.489  1.00  0.00    -0.470 C  
ENDBRANCH  21  30
ENDBRANCH  17  18
ENDBRANCH  15  17
ENDBRANCH  13  15
ENDBRANCH  12  13
ENDBRANCH  11  12
ENDBRANCH  10  11
ENDBRANCH   9  10
ENDBRANCH   3   4
ENDBRANCH   2   3
TORSDOF 11
ENDMDL
MODEL      403
REMARK 921   NORMALIZED FREE ENERGY PREDICTED BY IDOCK:   19.49 KCAL/MOL
REMARK 922        TOTAL FREE ENERGY PREDICTED BY IDOCK:   30.77 KCAL/MOL
REMARK 923 INTER-LIGAND FREE ENERGY PREDICTED BY IDOCK:   17.88 KCAL/MOL
REMARK 924 INTRA-LIGAND FREE ENERGY PREDICTED BY IDOCK:   12.89 KCAL/MOL
REMARK 927      BINDING AFFINITY PREDICTED BY RF-SCORE:    0.00 PKD
ROOT
HETATM    1  C   UNL     1      -9.836  15.663  72.622  1.00  0.00     5.809 C  
HETATM    2  C   UNL     1     -11.080  15.920  71.785  1.00  0.00     0.098 C  
ENDROOT
BRANCH   2   3
HETATM    3  O   UNL     1     -10.843  17.145  71.102  1.00  0.00     0.686 OA 
BRANCH   3   4
HETATM    4  C   UNL     1     -11.025  17.242  69.756  1.00  0.00     0.536 A  
HETATM    5  C   UNL     1     -11.348  18.443  69.109  1.00  0.00     2.476 A  
HETATM    6  C   UNL     1     -11.551  18.482  67.727  1.00  0.00     1.297 A  
HETATM    7  C   UNL     1     -11.434  17.317  66.973  1.00  0.00     0.956 A  
HETATM    8  C   UNL     1     -11.101  16.119  67.603  1.00  0.00    -0.212 A  
HETATM    9  C   UNL     1     -10.888  16.066  68.989  1.00  0.00    -0.283 A  
BRANCH   9  10
HETATM   10  O   UNL     1     -10.557  14.801  69.419  1.00  0.00    -0.237 OA 
BRANCH  10  11
HETATM   11  C   UNL     1     -10.126  14.642  70.770  1.00  0.00     1.301 C  
BRANCH  11  12
HETATM   12  C   UNL     1      -8.794  15.374  70.977  1.00  0.00     2.816 C  
BRANCH  12  13
HETATM   13  N   UNL     1      -8.188  15.943  69.763  1.00  0.00     0.070 NA 
HETATM   14  H   UNL     1      -7.451  16.602  70.017  1.00  0.00     0.000 HD 
BRANCH  13  15
HETATM   15  C   UNL     1      -7.673  14.962  68.789  1.00  0.00    -0.139 C  
HETATM   16  C   UNL     1      -6.156  14.862  69.009  1.00  0.00    -0.096 C  
BRANCH  15  17
HETATM   17  C   UNL     1      -8.005  15.317  67.311  1.00  0.00    -0.231 C  
BRANCH  17  18
HETATM   18  C   UNL     1      -7.116  16.423  66.787  1.00  0.00    -0.233 A  
HETATM   19  C   UNL     1      -7.091  17.658  67.443  1.00  0.00    -0.187 A  
HETATM   20  C   UNL     1      -6.464  18.761  66.849  1.00  0.00    -0.184 A  
HETATM   21  C   UNL     1      -5.755  18.618  65.649  1.00  0.00    -0.187 A  
HETATM   22  C   UNL     1      -6.399  16.273  65.599  1.00  0.00     3.583 A  
HETATM   23  C   UNL     1      -5.707  17.356  65.046  1.00  0.00     1.336 A  
BRANCH  20  24
HETATM   24  S   UNL     1      -6.660  20.386  67.541  1.00  0.00    -0.272 S  
HETATM   25  O   UNL     1      -7.677  21.075  66.781  1.00  0.00    -0.093 OA 
HETATM   26  N   UNL     1      -7.343  20.129  69.055  1.00  0.00    -0.109 N  
HETATM   27  O   UNL     1      -5.351  20.931  67.816  1.00  0.00    -0.215 OA 
HETATM   28  H1  UNL     1      -7.456  21.061  69.451  1.00  0.00     0.000 HD 
HETATM   29  H2  UNL     1      -7.590  19.237  69.483  1.00  0.00     0.000 HD 
ENDBRANCH  20  24
BRANCH  21  30
HETATM   30  O   UNL     1      -5.155  19.736  65.140  1.00  0.00    -0.154 OA 
HETATM   31  C   UNL     1      -5.764  20.372  64.024  1.00  0.00    -0.248 C  
ENDBRANCH  21  30
ENDBRANCH  17  18
ENDBRANCH  15  17
ENDBRANCH  13  15
ENDBRANCH  12  13
ENDBRANCH  11  12
ENDBRANCH  10  11
ENDBRANCH   9  10
ENDBRANCH   3   4
ENDBRANCH   2   3
TORSDOF 11
ENDMDL
MODEL      404
REMARK 921   NORMALIZED FREE ENERGY PREDICTED BY IDOCK:   33.07 KCAL/MOL
REMARK 922        TOTAL FREE ENERGY PREDICTED BY IDOCK:   53.09 KCAL/MOL
REMARK 923 INTER-LIGAND FREE ENERGY PREDICTED BY IDOCK:   50.78 KCAL/MOL
REMARK 924 INTRA-LIGAND FREE ENERGY PREDICTED BY IDOCK:    2.31 KCAL/MOL
REMARK 927      BINDING AFFINITY PREDICTED BY RF-SCORE:    0.00 PKD
ROOT
HETATM    1  C   UNL     1     -11.946  19.506  68.271  1.00  0.00     3.266 C  
HETATM    2  C   UNL     1     -10.631  19.803  68.976  1.00  0.00     0.273 C  
ENDROOT
BRANCH   2   3
HETATM    3  O   UNL     1     -10.983  20.264  70.275  1.00  0.00     1.187 OA 
BRANCH   3   4
HETATM    4  C   UNL     1     -10.287  19.859  71.373  1.00  0.00     2.874 A  
HETATM    5  C   UNL     1      -9.868  20.735  72.384  1.00  0.00     3.666 A  
HETATM    6  C   UNL     1      -9.132  20.271  73.477  1.00  0.00     5.547 A  
HETATM    7  C   UNL     1      -8.806  18.920  73.574  1.00  0.00     7.441 A  
HETATM    8  C   UNL     1      -9.227  18.036  72.582  1.00  0.00    12.965 A  
HETATM    9  C   UNL     1      -9.972  18.488  71.480  1.00  0.00     4.665 A  
BRANCH   9  10
HETATM   10  O   UNL     1     -10.304  17.467  70.620  1.00  0.00     1.027 OA 
BRANCH  10  11
HETATM   11  C   UNL     1      -9.901  16.142  70.964  1.00  0.00     2.226 C  
BRANCH  11  12
HETATM   12  C   UNL     1     -10.884  15.551  71.983  1.00  0.00     0.427 C  
BRANCH  12  13
HETATM   13  N   UNL     1     -11.846  14.576  71.445  1.00  0.00    -0.448 NA 
HETATM   14  H   UNL     1     -11.903  13.764  72.061  1.00  0.00     0.000 HD 
BRANCH  13  15
HETATM   15  C   UNL     1     -13.199  15.099  71.174  1.00  0.00    -0.469 C  
HETATM   16  C   UNL     1     -13.938  15.154  72.521  1.00  0.00    -0.585 C  
BRANCH  15  17
HETATM   17  C   UNL     1     -13.994  14.264  70.130  1.00  0.00     1.926 C  
BRANCH  17  18
HETATM   18  C   UNL     1     -13.169  13.124  69.578  1.00  0.00     1.886 A  
HETATM   19  C   UNL     1     -11.968  13.398  68.913  1.00  0.00    -0.362 A  
HETATM   20  C   UNL     1     -11.311  12.390  68.196  1.00  0.00    -0.291 A  
HETATM   21  C   UNL     1     -11.781  11.070  68.228  1.00  0.00    -0.229 A  
HETATM   22  C   UNL     1     -13.631  11.808  69.624  1.00  0.00     3.444 A  
HETATM   23  C   UNL     1     -12.931  10.786  68.972  1.00  0.00     1.671 A  
BRANCH  20  24
HETATM   24  S   UNL     1      -9.945  12.789  67.133  1.00  0.00    -0.221 S  
HETATM   25  O   UNL     1     -10.284  13.985  66.399  1.00  0.00    -0.277 OA 
HETATM   26  N   UNL     1      -8.709  13.249  68.176  1.00  0.00    -0.175 N  
HETATM   27  O   UNL     1      -9.470  11.572  66.516  1.00  0.00    -0.193 OA 
HETATM   28  H1  UNL     1      -7.925  13.478  67.566  1.00  0.00     0.000 HD 
HETATM   29  H2  UNL     1      -8.737  13.290  69.194  1.00  0.00     0.000 HD 
ENDBRANCH  20  24
BRANCH  21  30
HETATM   30  O   UNL     1     -11.077  10.139  67.517  1.00  0.00    -0.298 OA 
HETATM   31  C   UNL     1      -9.932   9.558  68.127  1.00  0.00    -0.165 C  
ENDBRANCH  21  30
ENDBRANCH  17  18
ENDBRANCH  15  17
ENDBRANCH  13  15
ENDBRANCH  12  13
ENDBRANCH  11  12
ENDBRANCH  10  11
ENDBRANCH   9  10
ENDBRANCH   3   4
ENDBRANCH   2   3
TORSDOF 11
ENDMDL
MODEL      405
REMARK 921   NORMALIZED FREE ENERGY PREDICTED BY IDOCK:   38.91 KCAL/MOL
REMARK 922        TOTAL FREE ENERGY PREDICTED BY IDOCK:   62.69 KCAL/MOL
REMARK 923 INTER-LIGAND FREE ENERGY PREDICTED BY IDOCK:   25.75 KCAL/MOL
REMARK 924 INTRA-LIGAND FREE ENERGY PREDICTED BY IDOCK:   36.94 KCAL/MOL
REMARK 927      BINDING AFFINITY PREDICTED BY RF-SCORE:    0.00 PKD
ROOT
HETATM    1  C   UNL     1      -9.679  15.672  72.825  1.00  0.00     6.870 C  
HETATM    2  C   UNL     1     -11.064  15.734  72.199  1.00  0.00     0.209 C  
ENDROOT
BRANCH   2   3
HETATM    3  O   UNL     1     -10.945  16.604  71.079  1.00  0.00     0.019 OA 
BRANCH   3   4
HETATM    4  C   UNL     1     -11.297  16.189  69.831  1.00  0.00    -0.317 A  
HETATM    5  C   UNL     1     -11.394  17.054  68.732  1.00  0.00     0.201 A  
HETATM    6  C   UNL     1     -11.787  16.580  67.477  1.00  0.00     0.833 A  
HETATM    7  C   UNL     1     -12.085  15.230  67.305  1.00  0.00     0.349 A  
HETATM    8  C   UNL     1     -11.979  14.357  68.387  1.00  0.00    -0.328 A  
HETATM    9  C   UNL     1     -11.581  14.819  69.651  1.00  0.00    -0.304 A  
BRANCH   9  10
HETATM   10  O   UNL     1     -11.524  13.807  70.582  1.00  0.00    -0.055 OA 
BRANCH  10  11
HETATM   11  C   UNL     1     -11.475  14.165  71.962  1.00  0.00     1.303 C  
BRANCH  11  12
HETATM   12  C   UNL     1     -10.354  15.187  72.192  1.00  0.00     2.130 C  
BRANCH  12  13
HETATM   13  N   UNL     1      -9.411  15.356  71.075  1.00  0.00     0.996 NA 
HETATM   14  H   UNL     1      -8.720  16.070  71.306  1.00  0.00     0.000 HD 
BRANCH  13  15
HETATM   15  C   UNL     1      -8.733  14.125  70.623  1.00  0.00     3.503 C  
HETATM   16  C   UNL     1      -7.278  14.208  71.111  1.00  0.00     2.143 C  
BRANCH  15  17
HETATM   17  C   UNL     1      -8.800  13.905  69.085  1.00  0.00     0.363 C  
BRANCH  17  18
HETATM   18  C   UNL     1      -7.777  14.746  68.353  1.00  0.00    -0.122 A  
HETATM   19  C   UNL     1      -8.171  15.951  67.761  1.00  0.00    -0.157 A  
HETATM   20  C   UNL     1      -7.306  16.625  66.889  1.00  0.00    -0.225 A  
HETATM   21  C   UNL     1      -5.998  16.166  66.685  1.00  0.00     0.613 A  
HETATM   22  C   UNL     1      -6.470  14.294  68.165  1.00  0.00    -0.135 A  
HETATM   23  C   UNL     1      -5.582  15.011  67.355  1.00  0.00     0.250 A  
BRANCH  20  24
HETATM   24  S   UNL     1      -7.892  17.999  65.928  1.00  0.00     0.046 S  
HETATM   25  O   UNL     1      -6.856  18.364  64.990  1.00  0.00    -0.457 OA 
HETATM   26  N   UNL     1      -9.133  17.367  64.986  1.00  0.00     2.389 N  
HETATM   27  O   UNL     1      -8.545  18.936  66.813  1.00  0.00    -0.279 OA 
HETATM   28  H1  UNL     1      -9.469  18.156  64.435  1.00  0.00     0.000 HD 
HETATM   29  H2  UNL     1      -9.475  16.407  64.970  1.00  0.00     0.000 HD 
ENDBRANCH  20  24
BRANCH  21  30
HETATM   30  O   UNL     1      -5.209  16.886  65.832  1.00  0.00    -0.181 OA 
HETATM   31  C   UNL     1      -5.302  16.610  64.441  1.00  0.00     6.091 C  
ENDBRANCH  21  30
ENDBRANCH  17  18
ENDBRANCH  15  17
ENDBRANCH  13  15
ENDBRANCH  12  13
ENDBRANCH  11  12
ENDBRANCH  10  11
ENDBRANCH   9  10
ENDBRANCH   3   4
ENDBRANCH   2   3
TORSDOF 11
ENDMDL
