MODEL        1
REMARK 921   NORMALIZED FREE ENERGY PREDICTED BY IDOCK:   -5.64 KCAL/MOL
REMARK 922        TOTAL FREE ENERGY PREDICTED BY IDOCK:   -6.10 KCAL/MOL
REMARK 923 INTER-LIGAND FREE ENERGY PREDICTED BY IDOCK:   -5.97 KCAL/MOL
REMARK 924 INTRA-LIGAND FREE ENERGY PREDICTED BY IDOCK:   -0.14 KCAL/MOL
REMARK 927      BINDING AFFINITY PREDICTED BY RF-SCORE:    0.00 PKD
ROOT
HETATM    1  C   UNL     1     -10.614  15.743  70.061  1.00  0.00    -0.333 C  
HETATM    2  C   UNL     1      -9.337  15.383  69.308  1.00  0.00    -0.254 C  
HETATM    3  C   UNL     1      -9.185  15.987  67.880  1.00  0.00    -0.196 C  
HETATM    4  C   UNL     1     -10.192  15.444  66.839  1.00  0.00    -0.273 A  
HETATM    5  C   UNL     1      -9.069  17.557  67.879  1.00  0.00    -0.261 C  
HETATM    6  C   UNL     1     -10.401  18.283  68.157  1.00  0.00    -0.393 C  
HETATM    7  C   UNL     1      -7.974  18.139  68.811  1.00  0.00    -0.245 C  
HETATM    8  C   UNL     1     -10.439  16.139  65.638  1.00  0.00    -0.402 A  
HETATM    9  C   UNL     1     -11.410  15.705  64.737  1.00  0.00    -0.343 A  
HETATM   10  C   UNL     1     -10.882  14.233  67.023  1.00  0.00    -0.297 A  
HETATM   11  C   UNL     1     -12.116  14.537  64.963  1.00  0.00    -0.390 A  
HETATM   12  O   UNL     1     -11.707  16.429  63.619  1.00  0.00    -1.520 OA 
HETATM   13  C   UNL     1     -11.838  13.787  66.100  1.00  0.00    -0.424 A  
HETATM   14  H   UNL     1     -12.369  16.133  63.005  1.00  0.00     0.000 HD 
ENDROOT
BRANCH   7  15
HETATM   15  N   UNL     1      -6.595  17.686  68.540  1.00  0.00    -0.196 NA 
HETATM   16  C   UNL     1      -5.786  18.731  67.903  1.00  0.00    -0.197 C  
HETATM   17  C   UNL     1      -5.959  17.287  69.805  1.00  0.00    -0.243 C  
ENDBRANCH   7  15
TORSDOF 1
ENDMDL
MODEL        2
REMARK 921   NORMALIZED FREE ENERGY PREDICTED BY IDOCK:   -5.64 KCAL/MOL
REMARK 922        TOTAL FREE ENERGY PREDICTED BY IDOCK:   -6.10 KCAL/MOL
REMARK 923 INTER-LIGAND FREE ENERGY PREDICTED BY IDOCK:   -5.98 KCAL/MOL
REMARK 924 INTRA-LIGAND FREE ENERGY PREDICTED BY IDOCK:   -0.12 KCAL/MOL
REMARK 927      BINDING AFFINITY PREDICTED BY RF-SCORE:    0.00 PKD
ROOT
HETATM    1  C   UNL     1      -8.742  14.848  69.038  1.00  0.00    -0.177 C  
HETATM    2  C   UNL     1      -9.957  15.770  69.035  1.00  0.00    -0.234 C  
HETATM    3  C   UNL     1     -11.298  15.142  68.551  1.00  0.00    -0.321 C  
HETATM    4  C   UNL     1     -11.329  14.762  67.052  1.00  0.00    -0.358 A  
HETATM    5  C   UNL     1     -11.825  14.000  69.497  1.00  0.00    -0.378 C  
HETATM    6  C   UNL     1     -11.042  12.677  69.378  1.00  0.00    -0.130 C  
HETATM    7  C   UNL     1     -11.940  14.384  70.995  1.00  0.00    -0.323 C  
HETATM    8  C   UNL     1     -12.290  13.861  66.552  1.00  0.00    -0.447 A  
HETATM    9  C   UNL     1     -12.269  13.444  65.221  1.00  0.00    -0.440 A  
HETATM   10  C   UNL     1     -10.430  15.310  66.119  1.00  0.00    -0.318 A  
HETATM   11  C   UNL     1     -11.341  13.957  64.332  1.00  0.00    -0.352 A  
HETATM   12  O   UNL     1     -13.146  12.505  64.764  1.00  0.00    -0.853 OA 
HETATM   13  C   UNL     1     -10.430  14.908  64.777  1.00  0.00    -0.296 A  
HETATM   14  H   UNL     1     -13.131  12.221  63.857  1.00  0.00     0.000 HD 
ENDROOT
BRANCH   7  15
HETATM   15  N   UNL     1     -12.825  15.526  71.298  1.00  0.00    -0.448 NA 
HETATM   16  C   UNL     1     -14.241  15.139  71.311  1.00  0.00    -0.429 C  
HETATM   17  C   UNL     1     -12.465  16.082  72.612  1.00  0.00    -0.481 C  
ENDBRANCH   7  15
TORSDOF 1
ENDMDL
MODEL        3
REMARK 921   NORMALIZED FREE ENERGY PREDICTED BY IDOCK:   -5.59 KCAL/MOL
REMARK 922        TOTAL FREE ENERGY PREDICTED BY IDOCK:   -6.05 KCAL/MOL
REMARK 923 INTER-LIGAND FREE ENERGY PREDICTED BY IDOCK:   -5.96 KCAL/MOL
REMARK 924 INTRA-LIGAND FREE ENERGY PREDICTED BY IDOCK:   -0.09 KCAL/MOL
REMARK 927      BINDING AFFINITY PREDICTED BY RF-SCORE:    0.00 PKD
ROOT
HETATM    1  C   UNL     1     -10.446  14.565  68.580  1.00  0.00    -0.247 C  
HETATM    2  C   UNL     1     -11.715  13.724  68.687  1.00  0.00    -0.391 C  
HETATM    3  C   UNL     1     -11.798  12.481  67.752  1.00  0.00    -0.375 C  
HETATM    4  C   UNL     1     -11.903  12.813  66.245  1.00  0.00    -0.485 A  
HETATM    5  C   UNL     1     -10.717  11.385  68.077  1.00  0.00    -0.240 C  
HETATM    6  C   UNL     1      -9.291  11.759  67.624  1.00  0.00    -0.180 C  
HETATM    7  C   UNL     1     -10.670  10.922  69.557  1.00  0.00    -0.206 C  
HETATM    8  C   UNL     1     -11.609  11.843  65.266  1.00  0.00    -0.278 A  
HETATM    9  C   UNL     1     -11.614  12.160  63.908  1.00  0.00    -0.448 A  
HETATM   10  C   UNL     1     -12.318  14.075  65.781  1.00  0.00    -0.506 A  
HETATM   11  C   UNL     1     -11.974  13.423  63.475  1.00  0.00    -0.467 A  
HETATM   12  O   UNL     1     -11.242  11.241  62.970  1.00  0.00    -0.838 OA 
HETATM   13  C   UNL     1     -12.347  14.379  64.414  1.00  0.00    -0.428 A  
HETATM   14  H   UNL     1     -11.245  11.458  62.045  1.00  0.00     0.000 HD 
ENDROOT
BRANCH   7  15
HETATM   15  N   UNL     1     -11.921  10.347  70.088  1.00  0.00    -0.280 NA 
HETATM   16  C   UNL     1     -11.727   8.987  70.606  1.00  0.00    -0.198 C  
HETATM   17  C   UNL     1     -12.429  11.206  71.168  1.00  0.00    -0.393 C  
ENDBRANCH   7  15
TORSDOF 1
ENDMDL
MODEL        4
REMARK 921   NORMALIZED FREE ENERGY PREDICTED BY IDOCK:   -5.54 KCAL/MOL
REMARK 922        TOTAL FREE ENERGY PREDICTED BY IDOCK:   -6.00 KCAL/MOL
REMARK 923 INTER-LIGAND FREE ENERGY PREDICTED BY IDOCK:   -5.87 KCAL/MOL
REMARK 924 INTRA-LIGAND FREE ENERGY PREDICTED BY IDOCK:   -0.14 KCAL/MOL
REMARK 927      BINDING AFFINITY PREDICTED BY RF-SCORE:    0.00 PKD
ROOT
HETATM    1  C   UNL     1     -10.707  12.617  68.659  1.00  0.00    -0.269 C  
HETATM    2  C   UNL     1     -11.685  13.679  68.168  1.00  0.00    -0.392 C  
HETATM    3  C   UNL     1     -11.677  15.033  68.938  1.00  0.00    -0.354 C  
HETATM    4  C   UNL     1     -12.188  14.948  70.396  1.00  0.00    -0.393 A  
HETATM    5  C   UNL     1     -10.323  15.822  68.795  1.00  0.00    -0.220 C  
HETATM    6  C   UNL     1      -9.162  15.228  69.618  1.00  0.00    -0.139 C  
HETATM    7  C   UNL     1      -9.843  16.049  67.338  1.00  0.00    -0.236 C  
HETATM    8  C   UNL     1     -11.897  15.966  71.327  1.00  0.00    -0.502 A  
HETATM    9  C   UNL     1     -12.276  15.854  72.664  1.00  0.00    -0.502 A  
HETATM   10  C   UNL     1     -12.981  13.881  70.854  1.00  0.00    -0.316 A  
HETATM   11  C   UNL     1     -13.011  14.768  73.105  1.00  0.00    -0.623 A  
HETATM   12  O   UNL     1     -11.915  16.799  73.579  1.00  0.00    -0.416 OA 
HETATM   13  C   UNL     1     -13.382  13.787  72.193  1.00  0.00    -0.569 A  
HETATM   14  H   UNL     1     -12.173  16.723  74.491  1.00  0.00     0.000 HD 
ENDROOT
BRANCH   7  15
HETATM   15  N   UNL     1     -10.774  16.791  66.464  1.00  0.00    -0.176 NA 
HETATM   16  C   UNL     1     -10.375  18.193  66.297  1.00  0.00    -0.397 C  
HETATM   17  C   UNL     1     -10.820  16.142  65.145  1.00  0.00    -0.361 C  
ENDBRANCH   7  15
TORSDOF 1
ENDMDL
MODEL        5
REMARK 921   NORMALIZED FREE ENERGY PREDICTED BY IDOCK:   -5.50 KCAL/MOL
REMARK 922        TOTAL FREE ENERGY PREDICTED BY IDOCK:   -5.96 KCAL/MOL
REMARK 923 INTER-LIGAND FREE ENERGY PREDICTED BY IDOCK:   -5.82 KCAL/MOL
REMARK 924 INTRA-LIGAND FREE ENERGY PREDICTED BY IDOCK:   -0.14 KCAL/MOL
REMARK 927      BINDING AFFINITY PREDICTED BY RF-SCORE:    0.00 PKD
ROOT
HETATM    1  C   UNL     1     -10.748  11.504  68.917  1.00  0.00    -0.245 C  
HETATM    2  C   UNL     1     -11.881  12.290  68.264  1.00  0.00    -0.367 C  
HETATM    3  C   UNL     1     -11.930  13.816  68.575  1.00  0.00    -0.402 C  
HETATM    4  C   UNL     1     -12.262  14.165  70.045  1.00  0.00    -0.418 A  
HETATM    5  C   UNL     1     -10.690  14.604  68.010  1.00  0.00    -0.246 C  
HETATM    6  C   UNL     1      -9.389  14.378  68.806  1.00  0.00    -0.150 C  
HETATM    7  C   UNL     1     -10.402  14.388  66.501  1.00  0.00    -0.281 C  
HETATM    8  C   UNL     1     -11.978  15.441  70.569  1.00  0.00    -0.394 A  
HETATM    9  C   UNL     1     -12.191  15.735  71.916  1.00  0.00    -0.459 A  
HETATM   10  C   UNL     1     -12.883  13.248  70.913  1.00  0.00    -0.257 A  
HETATM   11  C   UNL     1     -12.755  14.799  72.766  1.00  0.00    -0.491 A  
HETATM   12  O   UNL     1     -11.831  16.943  72.438  1.00  0.00    -0.506 OA 
HETATM   13  C   UNL     1     -13.120  13.558  72.258  1.00  0.00    -0.488 A  
HETATM   14  H   UNL     1     -11.977  17.142  73.356  1.00  0.00     0.000 HD 
ENDROOT
BRANCH   7  15
HETATM   15  N   UNL     1     -11.497  14.753  65.581  1.00  0.00    -0.346 NA 
HETATM   16  C   UNL     1     -11.147  15.897  64.732  1.00  0.00    -0.384 C  
HETATM   17  C   UNL     1     -11.816  13.598  64.727  1.00  0.00    -0.387 C  
ENDBRANCH   7  15
TORSDOF 1
ENDMDL
MODEL        6
REMARK 921   NORMALIZED FREE ENERGY PREDICTED BY IDOCK:   -5.48 KCAL/MOL
REMARK 922        TOTAL FREE ENERGY PREDICTED BY IDOCK:   -5.94 KCAL/MOL
REMARK 923 INTER-LIGAND FREE ENERGY PREDICTED BY IDOCK:   -5.81 KCAL/MOL
REMARK 924 INTRA-LIGAND FREE ENERGY PREDICTED BY IDOCK:   -0.12 KCAL/MOL
REMARK 927      BINDING AFFINITY PREDICTED BY RF-SCORE:    0.00 PKD
ROOT
HETATM    1  C   UNL     1     -10.685  14.304  68.502  1.00  0.00    -0.262 C  
HETATM    2  C   UNL     1     -11.807  13.272  68.553  1.00  0.00    -0.384 C  
HETATM    3  C   UNL     1     -11.656  12.043  67.608  1.00  0.00    -0.392 C  
HETATM    4  C   UNL     1     -11.754  12.372  66.100  1.00  0.00    -0.460 A  
HETATM    5  C   UNL     1     -10.428  11.128  67.970  1.00  0.00    -0.217 C  
HETATM    6  C   UNL     1      -9.063  11.728  67.577  1.00  0.00    -0.175 C  
HETATM    7  C   UNL     1     -10.365  10.661  69.448  1.00  0.00    -0.208 C  
HETATM    8  C   UNL     1     -11.272  11.472  65.128  1.00  0.00    -0.214 A  
HETATM    9  C   UNL     1     -11.273  11.800  63.773  1.00  0.00    -0.436 A  
HETATM   10  C   UNL     1     -12.345  13.557  65.626  1.00  0.00    -0.522 A  
HETATM   11  C   UNL     1     -11.813  12.996  63.333  1.00  0.00    -0.543 A  
HETATM   12  O   UNL     1     -10.725  10.963  62.846  1.00  0.00    -0.779 OA 
HETATM   13  C   UNL     1     -12.369  13.869  64.261  1.00  0.00    -0.390 A  
HETATM   14  H   UNL     1     -10.726  11.187  61.922  1.00  0.00     0.000 HD 
ENDROOT
BRANCH   7  15
HETATM   15  N   UNL     1     -11.529   9.889  69.925  1.00  0.00    -0.215 NA 
HETATM   16  C   UNL     1     -11.158   8.532  70.343  1.00  0.00    -0.231 C  
HETATM   17  C   UNL     1     -12.144  10.592  71.062  1.00  0.00    -0.387 C  
ENDBRANCH   7  15
TORSDOF 1
ENDMDL
MODEL        7
REMARK 921   NORMALIZED FREE ENERGY PREDICTED BY IDOCK:   -5.44 KCAL/MOL
REMARK 922        TOTAL FREE ENERGY PREDICTED BY IDOCK:   -5.89 KCAL/MOL
REMARK 923 INTER-LIGAND FREE ENERGY PREDICTED BY IDOCK:   -5.76 KCAL/MOL
REMARK 924 INTRA-LIGAND FREE ENERGY PREDICTED BY IDOCK:   -0.14 KCAL/MOL
REMARK 927      BINDING AFFINITY PREDICTED BY RF-SCORE:    0.00 PKD
ROOT
HETATM    1  C   UNL     1      -9.807  15.403  69.151  1.00  0.00    -0.247 C  
HETATM    2  C   UNL     1      -8.704  15.018  68.170  1.00  0.00    -0.165 C  
HETATM    3  C   UNL     1      -9.010  15.255  66.661  1.00  0.00    -0.324 C  
HETATM    4  C   UNL     1     -10.123  14.352  66.079  1.00  0.00    -0.338 A  
HETATM    5  C   UNL     1      -9.184  16.776  66.294  1.00  0.00    -0.313 C  
HETATM    6  C   UNL     1     -10.519  17.386  66.768  1.00  0.00    -0.257 C  
HETATM    7  C   UNL     1      -8.021  17.700  66.742  1.00  0.00    -0.239 C  
HETATM    8  C   UNL     1     -10.772  14.686  64.873  1.00  0.00    -0.447 A  
HETATM    9  C   UNL     1     -11.836  13.927  64.389  1.00  0.00    -0.429 A  
HETATM   10  C   UNL     1     -10.519  13.153  66.699  1.00  0.00    -0.280 A  
HETATM   11  C   UNL     1     -12.245  12.778  65.044  1.00  0.00    -0.527 A  
HETATM   12  O   UNL     1     -12.519  14.304  63.269  1.00  0.00    -1.133 OA 
HETATM   13  C   UNL     1     -11.571  12.379  66.192  1.00  0.00    -0.452 A  
HETATM   14  H   UNL     1     -13.244  13.786  62.940  1.00  0.00     0.000 HD 
ENDROOT
BRANCH   7  15
HETATM   15  N   UNL     1      -6.689  17.360  66.203  1.00  0.00    -0.249 NA 
HETATM   16  C   UNL     1      -6.220  18.348  65.225  1.00  0.00    -0.215 C  
HETATM   17  C   UNL     1      -5.725  17.282  67.311  1.00  0.00    -0.142 C  
ENDBRANCH   7  15
TORSDOF 1
ENDMDL
MODEL        8
REMARK 921   NORMALIZED FREE ENERGY PREDICTED BY IDOCK:   -5.44 KCAL/MOL
REMARK 922        TOTAL FREE ENERGY PREDICTED BY IDOCK:   -5.89 KCAL/MOL
REMARK 923 INTER-LIGAND FREE ENERGY PREDICTED BY IDOCK:   -5.76 KCAL/MOL
REMARK 924 INTRA-LIGAND FREE ENERGY PREDICTED BY IDOCK:   -0.13 KCAL/MOL
REMARK 927      BINDING AFFINITY PREDICTED BY RF-SCORE:    0.00 PKD
ROOT
HETATM    1  C   UNL     1     -10.533  17.184  69.139  1.00  0.00    -0.296 C  
HETATM    2  C   UNL     1      -9.352  16.420  68.549  1.00  0.00    -0.225 C  
HETATM    3  C   UNL     1      -9.355  16.232  67.003  1.00  0.00    -0.235 C  
HETATM    4  C   UNL     1     -10.478  15.312  66.468  1.00  0.00    -0.299 A  
HETATM    5  C   UNL     1      -9.227  17.586  66.212  1.00  0.00    -0.228 C  
HETATM    6  C   UNL     1     -10.512  18.438  66.215  1.00  0.00    -0.421 C  
HETATM    7  C   UNL     1      -8.029  18.481  66.625  1.00  0.00    -0.261 C  
HETATM    8  C   UNL     1     -10.852  15.339  65.109  1.00  0.00    -0.441 A  
HETATM    9  C   UNL     1     -11.922  14.579  64.638  1.00  0.00    -0.468 A  
HETATM   10  C   UNL     1     -11.154  14.394  67.292  1.00  0.00    -0.318 A  
HETATM   11  C   UNL     1     -12.609  13.721  65.479  1.00  0.00    -0.551 A  
HETATM   12  O   UNL     1     -12.337  14.676  63.342  1.00  0.00    -1.032 OA 
HETATM   13  C   UNL     1     -12.211  13.613  66.806  1.00  0.00    -0.416 A  
HETATM   14  H   UNL     1     -13.066  14.158  63.020  1.00  0.00     0.000 HD 
ENDROOT
BRANCH   7  15
HETATM   15  N   UNL     1      -6.694  17.867  66.487  1.00  0.00    -0.196 NA 
HETATM   16  C   UNL     1      -5.860  18.573  65.507  1.00  0.00    -0.221 C  
HETATM   17  C   UNL     1      -6.018  17.881  67.794  1.00  0.00    -0.154 C  
ENDBRANCH   7  15
TORSDOF 1
ENDMDL
MODEL        9
REMARK 921   NORMALIZED FREE ENERGY PREDICTED BY IDOCK:   -5.40 KCAL/MOL
REMARK 922        TOTAL FREE ENERGY PREDICTED BY IDOCK:   -5.85 KCAL/MOL
REMARK 923 INTER-LIGAND FREE ENERGY PREDICTED BY IDOCK:   -5.71 KCAL/MOL
REMARK 924 INTRA-LIGAND FREE ENERGY PREDICTED BY IDOCK:   -0.14 KCAL/MOL
REMARK 927      BINDING AFFINITY PREDICTED BY RF-SCORE:    0.00 PKD
ROOT
HETATM    1  C   UNL     1      -8.468  15.632  69.327  1.00  0.00    -0.265 C  
HETATM    2  C   UNL     1      -9.979  15.599  69.116  1.00  0.00    -0.244 C  
HETATM    3  C   UNL     1     -10.506  16.256  67.806  1.00  0.00    -0.295 C  
HETATM    4  C   UNL     1     -10.326  17.791  67.736  1.00  0.00    -0.382 A  
HETATM    5  C   UNL     1     -10.032  15.511  66.503  1.00  0.00    -0.283 C  
HETATM    6  C   UNL     1      -8.550  15.749  66.149  1.00  0.00    -0.212 C  
HETATM    7  C   UNL     1     -10.318  13.986  66.473  1.00  0.00    -0.285 C  
HETATM    8  C   UNL     1     -10.393  18.474  66.505  1.00  0.00    -0.447 A  
HETATM    9  C   UNL     1     -10.143  19.843  66.421  1.00  0.00    -0.499 A  
HETATM   10  C   UNL     1     -10.117  18.576  68.884  1.00  0.00    -0.348 A  
HETATM   11  C   UNL     1      -9.886  20.588  67.559  1.00  0.00    -0.534 A  
HETATM   12  O   UNL     1     -10.121  20.483  65.217  1.00  0.00    -0.372 OA 
HETATM   13  C   UNL     1      -9.893  19.956  68.797  1.00  0.00    -0.417 A  
HETATM   14  H   UNL     1      -9.950  21.416  65.160  1.00  0.00     0.000 HD 
ENDROOT
BRANCH   7  15
HETATM   15  N   UNL     1     -11.736  13.598  66.602  1.00  0.00    -0.366 NA 
HETATM   16  C   UNL     1     -12.356  13.331  65.299  1.00  0.00    -0.476 C  
HETATM   17  C   UNL     1     -11.834  12.392  67.439  1.00  0.00    -0.289 C  
ENDBRANCH   7  15
TORSDOF 1
ENDMDL
MODEL       10
REMARK 921   NORMALIZED FREE ENERGY PREDICTED BY IDOCK:   -5.32 KCAL/MOL
REMARK 922        TOTAL FREE ENERGY PREDICTED BY IDOCK:   -5.76 KCAL/MOL
REMARK 923 INTER-LIGAND FREE ENERGY PREDICTED BY IDOCK:   -5.64 KCAL/MOL
REMARK 924 INTRA-LIGAND FREE ENERGY PREDICTED BY IDOCK:   -0.12 KCAL/MOL
REMARK 927      BINDING AFFINITY PREDICTED BY RF-SCORE:    0.00 PKD
ROOT
HETATM    1  C   UNL     1     -10.207  15.687  69.559  1.00  0.00    -0.277 C  
HETATM    2  C   UNL     1     -11.129  15.818  68.351  1.00  0.00    -0.341 C  
HETATM    3  C   UNL     1     -10.485  16.386  67.051  1.00  0.00    -0.291 C  
HETATM    4  C   UNL     1     -10.056  17.869  67.139  1.00  0.00    -0.340 A  
HETATM    5  C   UNL     1      -9.375  15.448  66.447  1.00  0.00    -0.331 C  
HETATM    6  C   UNL     1      -8.048  15.461  67.234  1.00  0.00    -0.228 C  
HETATM    7  C   UNL     1      -9.807  13.977  66.214  1.00  0.00    -0.305 C  
HETATM    8  C   UNL     1      -9.139  18.415  66.218  1.00  0.00    -0.213 A  
HETATM    9  C   UNL     1      -8.678  19.725  66.344  1.00  0.00    -0.368 A  
HETATM   10  C   UNL     1     -10.573  18.745  68.111  1.00  0.00    -0.292 A  
HETATM   11  C   UNL     1      -9.161  20.554  67.342  1.00  0.00    -0.481 A  
HETATM   12  O   UNL     1      -7.724  20.220  65.504  1.00  0.00    -0.501 OA 
HETATM   13  C   UNL     1     -10.127  20.069  68.216  1.00  0.00    -0.531 A  
HETATM   14  H   UNL     1      -7.410  21.113  65.591  1.00  0.00     0.000 HD 
ENDROOT
BRANCH   7  15
HETATM   15  N   UNL     1     -10.958  13.783  65.310  1.00  0.00    -0.310 NA 
HETATM   16  C   UNL     1     -10.602  12.998  64.123  1.00  0.00    -0.397 C  
HETATM   17  C   UNL     1     -12.035  13.095  66.039  1.00  0.00    -0.433 C  
ENDBRANCH   7  15
TORSDOF 1
ENDMDL
MODEL       11
REMARK 921   NORMALIZED FREE ENERGY PREDICTED BY IDOCK:   -5.27 KCAL/MOL
REMARK 922        TOTAL FREE ENERGY PREDICTED BY IDOCK:   -5.71 KCAL/MOL
REMARK 923 INTER-LIGAND FREE ENERGY PREDICTED BY IDOCK:   -5.57 KCAL/MOL
REMARK 924 INTRA-LIGAND FREE ENERGY PREDICTED BY IDOCK:   -0.14 KCAL/MOL
REMARK 927      BINDING AFFINITY PREDICTED BY RF-SCORE:    0.00 PKD
ROOT
HETATM    1  C   UNL     1     -10.150   8.461  67.896  1.00  0.00    -0.254 C  
HETATM    2  C   UNL     1      -9.254   8.651  69.116  1.00  0.00    -0.152 C  
HETATM    3  C   UNL     1      -9.866   8.247  70.490  1.00  0.00    -0.197 C  
HETATM    4  C   UNL     1     -11.039   9.139  70.961  1.00  0.00    -0.374 A  
HETATM    5  C   UNL     1     -10.165   6.707  70.609  1.00  0.00    -0.215 C  
HETATM    6  C   UNL     1     -11.399   6.245  69.807  1.00  0.00    -0.506 C  
HETATM    7  C   UNL     1      -8.970   5.775  70.277  1.00  0.00    -0.141 C  
HETATM    8  C   UNL     1     -11.929   8.698  71.961  1.00  0.00    -0.442 A  
HETATM    9  C   UNL     1     -13.041   9.457  72.327  1.00  0.00    -0.428 A  
HETATM   10  C   UNL     1     -11.258  10.428  70.443  1.00  0.00    -0.399 A  
HETATM   11  C   UNL     1     -13.267  10.701  71.765  1.00  0.00    -0.526 A  
HETATM   12  O   UNL     1     -13.948   8.987  73.231  1.00  0.00    -1.205 OA 
HETATM   13  C   UNL     1     -12.362  11.198  70.834  1.00  0.00    -0.500 A  
HETATM   14  H   UNL     1     -14.705   9.504  73.480  1.00  0.00     0.000 HD 
ENDROOT
BRANCH   7  15
HETATM   15  N   UNL     1      -7.763   5.962  71.104  1.00  0.00    -0.107 NA 
HETATM   16  C   UNL     1      -7.519   4.818  71.991  1.00  0.00    -0.082 C  
HETATM   17  C   UNL     1      -6.598   6.148  70.226  1.00  0.00    -0.045 C  
ENDBRANCH   7  15
TORSDOF 1
ENDMDL
MODEL       12
REMARK 921   NORMALIZED FREE ENERGY PREDICTED BY IDOCK:   -5.26 KCAL/MOL
REMARK 922        TOTAL FREE ENERGY PREDICTED BY IDOCK:   -5.71 KCAL/MOL
REMARK 923 INTER-LIGAND FREE ENERGY PREDICTED BY IDOCK:   -5.57 KCAL/MOL
REMARK 924 INTRA-LIGAND FREE ENERGY PREDICTED BY IDOCK:   -0.14 KCAL/MOL
REMARK 927      BINDING AFFINITY PREDICTED BY RF-SCORE:    0.00 PKD
ROOT
HETATM    1  C   UNL     1     -10.071  11.894  68.705  1.00  0.00    -0.186 C  
HETATM    2  C   UNL     1      -9.004  12.679  67.948  1.00  0.00    -0.189 C  
HETATM    3  C   UNL     1      -9.519  13.688  66.879  1.00  0.00    -0.263 C  
HETATM    4  C   UNL     1     -10.199  13.036  65.651  1.00  0.00    -0.296 A  
HETATM    5  C   UNL     1     -10.347  14.876  67.495  1.00  0.00    -0.239 C  
HETATM    6  C   UNL     1     -11.765  14.480  67.954  1.00  0.00    -0.381 C  
HETATM    7  C   UNL     1      -9.643  15.647  68.642  1.00  0.00    -0.202 C  
HETATM    8  C   UNL     1     -11.036  13.788  64.802  1.00  0.00    -0.396 A  
HETATM    9  C   UNL     1     -11.723  13.188  63.748  1.00  0.00    -0.461 A  
HETATM   10  C   UNL     1      -9.996  11.687  65.309  1.00  0.00    -0.292 A  
HETATM   11  C   UNL     1     -11.550  11.845  63.460  1.00  0.00    -0.537 A  
HETATM   12  O   UNL     1     -12.601  13.900  62.984  1.00  0.00    -1.030 OA 
HETATM   13  C   UNL     1     -10.668  11.096  64.231  1.00  0.00    -0.403 A  
HETATM   14  H   UNL     1     -13.069  13.491  62.265  1.00  0.00     0.000 HD 
ENDROOT
BRANCH   7  15
HETATM   15  N   UNL     1      -8.348  16.265  68.298  1.00  0.00    -0.179 NA 
HETATM   16  C   UNL     1      -8.408  17.731  68.332  1.00  0.00    -0.295 C  
HETATM   17  C   UNL     1      -7.323  15.802  69.247  1.00  0.00    -0.216 C  
ENDBRANCH   7  15
TORSDOF 1
ENDMDL
MODEL       13
REMARK 921   NORMALIZED FREE ENERGY PREDICTED BY IDOCK:   -5.24 KCAL/MOL
REMARK 922        TOTAL FREE ENERGY PREDICTED BY IDOCK:   -5.68 KCAL/MOL
REMARK 923 INTER-LIGAND FREE ENERGY PREDICTED BY IDOCK:   -5.57 KCAL/MOL
REMARK 924 INTRA-LIGAND FREE ENERGY PREDICTED BY IDOCK:   -0.12 KCAL/MOL
REMARK 927      BINDING AFFINITY PREDICTED BY RF-SCORE:    0.00 PKD
ROOT
HETATM    1  C   UNL     1     -10.425  10.830  68.983  1.00  0.00    -0.239 C  
HETATM    2  C   UNL     1     -11.659  11.387  68.281  1.00  0.00    -0.376 C  
HETATM    3  C   UNL     1     -11.807  12.937  68.270  1.00  0.00    -0.372 C  
HETATM    4  C   UNL     1     -12.063  13.570  69.659  1.00  0.00    -0.365 A  
HETATM    5  C   UNL     1     -10.676  13.663  67.451  1.00  0.00    -0.272 C  
HETATM    6  C   UNL     1      -9.308  13.694  68.163  1.00  0.00    -0.212 C  
HETATM    7  C   UNL     1     -10.478  13.149  66.001  1.00  0.00    -0.284 C  
HETATM    8  C   UNL     1     -11.844  14.945  69.881  1.00  0.00    -0.355 A  
HETATM    9  C   UNL     1     -11.985  15.505  71.150  1.00  0.00    -0.382 A  
HETATM   10  C   UNL     1     -12.546  12.823  70.748  1.00  0.00    -0.308 A  
HETATM   11  C   UNL     1     -12.412  14.739  72.221  1.00  0.00    -0.408 A  
HETATM   12  O   UNL     1     -11.687  16.816  71.378  1.00  0.00    -0.555 OA 
HETATM   13  C   UNL     1     -12.713  13.397  72.015  1.00  0.00    -0.238 A  
HETATM   14  H   UNL     1     -11.783  17.198  72.243  1.00  0.00     0.000 HD 
ENDROOT
BRANCH   7  15
HETATM   15  N   UNL     1     -11.660  13.240  65.122  1.00  0.00    -0.301 NA 
HETATM   16  C   UNL     1     -11.926  14.618  64.695  1.00  0.00    -0.462 C  
HETATM   17  C   UNL     1     -11.445  12.400  63.934  1.00  0.00    -0.436 C  
ENDBRANCH   7  15
TORSDOF 1
ENDMDL
MODEL       14
REMARK 921   NORMALIZED FREE ENERGY PREDICTED BY IDOCK:   -5.15 KCAL/MOL
REMARK 922        TOTAL FREE ENERGY PREDICTED BY IDOCK:   -5.58 KCAL/MOL
REMARK 923 INTER-LIGAND FREE ENERGY PREDICTED BY IDOCK:   -5.49 KCAL/MOL
REMARK 924 INTRA-LIGAND FREE ENERGY PREDICTED BY IDOCK:   -0.09 KCAL/MOL
REMARK 927      BINDING AFFINITY PREDICTED BY RF-SCORE:    0.00 PKD
ROOT
HETATM    1  C   UNL     1     -11.717  13.289  69.467  1.00  0.00    -0.384 C  
HETATM    2  C   UNL     1     -10.463  12.865  68.709  1.00  0.00    -0.183 C  
HETATM    3  C   UNL     1      -9.949  13.853  67.620  1.00  0.00    -0.237 C  
HETATM    4  C   UNL     1     -10.882  14.006  66.396  1.00  0.00    -0.299 A  
HETATM    5  C   UNL     1      -9.460  15.228  68.209  1.00  0.00    -0.205 C  
HETATM    6  C   UNL     1     -10.605  16.158  68.661  1.00  0.00    -0.283 C  
HETATM    7  C   UNL     1      -8.416  15.124  69.352  1.00  0.00    -0.190 C  
HETATM    8  C   UNL     1     -10.764  15.109  65.527  1.00  0.00    -0.379 A  
HETATM    9  C   UNL     1     -11.659  15.301  64.475  1.00  0.00    -0.312 A  
HETATM   10  C   UNL     1     -11.864  13.050  66.075  1.00  0.00    -0.471 A  
HETATM   11  C   UNL     1     -12.652  14.375  64.209  1.00  0.00    -0.144 A  
HETATM   12  O   UNL     1     -11.596  16.417  63.692  1.00  0.00    -1.514 OA 
HETATM   13  C   UNL     1     -12.743  13.235  65.000  1.00  0.00    -0.438 A  
HETATM   14  H   UNL     1     -12.206  16.547  62.975  1.00  0.00     0.000 HD 
ENDROOT
BRANCH   7  15
HETATM   15  N   UNL     1      -7.162  14.424  69.011  1.00  0.00    -0.125 NA 
HETATM   16  C   UNL     1      -6.502  15.012  67.840  1.00  0.00    -0.159 C  
HETATM   17  C   UNL     1      -6.247  14.483  70.161  1.00  0.00    -0.167 C  
ENDBRANCH   7  15
TORSDOF 1
ENDMDL
MODEL       15
REMARK 921   NORMALIZED FREE ENERGY PREDICTED BY IDOCK:   -5.01 KCAL/MOL
REMARK 922        TOTAL FREE ENERGY PREDICTED BY IDOCK:   -5.44 KCAL/MOL
REMARK 923 INTER-LIGAND FREE ENERGY PREDICTED BY IDOCK:   -5.32 KCAL/MOL
REMARK 924 INTRA-LIGAND FREE ENERGY PREDICTED BY IDOCK:   -0.12 KCAL/MOL
REMARK 927      BINDING AFFINITY PREDICTED BY RF-SCORE:    0.00 PKD
ROOT
HETATM    1  C   UNL     1      -9.586  10.030  68.128  1.00  0.00    -0.152 C  
HETATM    2  C   UNL     1     -10.896  10.368  67.423  1.00  0.00    -0.344 C  
HETATM    3  C   UNL     1     -11.503  11.770  67.729  1.00  0.00    -0.381 C  
HETATM    4  C   UNL     1     -12.003  11.952  69.182  1.00  0.00    -0.336 A  
HETATM    5  C   UNL     1     -10.606  12.959  67.223  1.00  0.00    -0.243 C  
HETATM    6  C   UNL     1      -9.346  13.202  68.078  1.00  0.00    -0.219 C  
HETATM    7  C   UNL     1     -10.193  12.885  65.729  1.00  0.00    -0.288 C  
HETATM    8  C   UNL     1     -12.219  13.238  69.718  1.00  0.00    -0.285 A  
HETATM    9  C   UNL     1     -12.582  13.413  71.053  1.00  0.00    -0.343 A  
HETATM   10  C   UNL     1     -12.290  10.860  70.021  1.00  0.00    -0.385 A  
HETATM   11  C   UNL     1     -12.808  12.325  71.877  1.00  0.00    -0.318 A  
HETATM   12  O   UNL     1     -12.703  14.661  71.591  1.00  0.00    -0.302 OA 
HETATM   13  C   UNL     1     -12.681  11.043  71.354  1.00  0.00    -0.534 A  
HETATM   14  H   UNL     1     -12.950  14.781  72.501  1.00  0.00     0.000 HD 
ENDROOT
BRANCH   7  15
HETATM   15  N   UNL     1     -11.305  12.847  64.759  1.00  0.00    -0.304 NA 
HETATM   16  C   UNL     1     -11.863  14.181  64.506  1.00  0.00    -0.436 C  
HETATM   17  C   UNL     1     -10.822  12.278  63.491  1.00  0.00    -0.454 C  
ENDBRANCH   7  15
TORSDOF 1
ENDMDL
MODEL       16
REMARK 921   NORMALIZED FREE ENERGY PREDICTED BY IDOCK:   -4.98 KCAL/MOL
REMARK 922        TOTAL FREE ENERGY PREDICTED BY IDOCK:   -5.41 KCAL/MOL
REMARK 923 INTER-LIGAND FREE ENERGY PREDICTED BY IDOCK:   -5.29 KCAL/MOL
REMARK 924 INTRA-LIGAND FREE ENERGY PREDICTED BY IDOCK:   -0.12 KCAL/MOL
REMARK 927      BINDING AFFINITY PREDICTED BY RF-SCORE:    0.00 PKD
ROOT
HETATM    1  C   UNL     1      -9.671  15.739  65.905  1.00  0.00    -0.389 C  
HETATM    2  C   UNL     1     -11.042  15.205  66.308  1.00  0.00    -0.309 C  
HETATM    3  C   UNL     1     -11.092  13.724  66.786  1.00  0.00    -0.316 C  
HETATM    4  C   UNL     1     -10.785  12.680  65.686  1.00  0.00    -0.297 A  
HETATM    5  C   UNL     1     -10.299  13.475  68.122  1.00  0.00    -0.247 C  
HETATM    6  C   UNL     1      -8.767  13.476  67.951  1.00  0.00    -0.183 C  
HETATM    7  C   UNL     1     -10.675  14.415  69.298  1.00  0.00    -0.206 C  
HETATM    8  C   UNL     1     -10.421  11.360  66.020  1.00  0.00    -0.305 A  
HETATM    9  C   UNL     1     -10.055  10.440  65.038  1.00  0.00    -0.309 A  
HETATM   10  C   UNL     1     -10.880  12.983  64.316  1.00  0.00    -0.430 A  
HETATM   11  C   UNL     1     -10.105  10.775  63.696  1.00  0.00    -0.375 A  
HETATM   12  O   UNL     1      -9.618   9.191  65.372  1.00  0.00    -0.423 OA 
HETATM   13  C   UNL     1     -10.538  12.045  63.332  1.00  0.00    -0.478 A  
HETATM   14  H   UNL     1      -9.369   8.564  64.703  1.00  0.00     0.000 HD 
ENDROOT
BRANCH   7  15
HETATM   15  N   UNL     1     -12.089  14.380  69.719  1.00  0.00    -0.320 NA 
HETATM   16  C   UNL     1     -12.393  13.201  70.539  1.00  0.00    -0.304 C  
HETATM   17  C   UNL     1     -12.396  15.595  70.489  1.00  0.00    -0.403 C  
ENDBRANCH   7  15
TORSDOF 1
ENDMDL
MODEL       17
REMARK 921   NORMALIZED FREE ENERGY PREDICTED BY IDOCK:   -4.97 KCAL/MOL
REMARK 922        TOTAL FREE ENERGY PREDICTED BY IDOCK:   -5.40 KCAL/MOL
REMARK 923 INTER-LIGAND FREE ENERGY PREDICTED BY IDOCK:   -5.29 KCAL/MOL
REMARK 924 INTRA-LIGAND FREE ENERGY PREDICTED BY IDOCK:   -0.11 KCAL/MOL
REMARK 927      BINDING AFFINITY PREDICTED BY RF-SCORE:    0.00 PKD
ROOT
HETATM    1  C   UNL     1      -8.820  12.146  68.307  1.00  0.00    -0.182 C  
HETATM    2  C   UNL     1     -10.142  11.390  68.409  1.00  0.00    -0.207 C  
HETATM    3  C   UNL     1     -10.846  11.050  67.062  1.00  0.00    -0.334 C  
HETATM    4  C   UNL     1     -11.375  12.277  66.282  1.00  0.00    -0.395 A  
HETATM    5  C   UNL     1     -10.027  10.047  66.168  1.00  0.00    -0.322 C  
HETATM    6  C   UNL     1      -8.797  10.678  65.485  1.00  0.00    -0.202 C  
HETATM    7  C   UNL     1      -9.592   8.736  66.875  1.00  0.00    -0.190 C  
HETATM    8  C   UNL     1     -11.685  12.186  64.910  1.00  0.00    -0.373 A  
HETATM    9  C   UNL     1     -12.075  13.308  64.180  1.00  0.00    -0.432 A  
HETATM   10  C   UNL     1     -11.597  13.521  66.900  1.00  0.00    -0.398 A  
HETATM   11  C   UNL     1     -12.237  14.536  64.798  1.00  0.00    -0.441 A  
HETATM   12  O   UNL     1     -12.288  13.233  62.835  1.00  0.00    -0.784 OA 
HETATM   13  C   UNL     1     -12.016  14.639  66.167  1.00  0.00    -0.250 A  
HETATM   14  H   UNL     1     -12.554  13.998  62.337  1.00  0.00     0.000 HD 
ENDROOT
BRANCH   7  15
HETATM   15  N   UNL     1     -10.687   7.908  67.417  1.00  0.00    -0.255 NA 
HETATM   16  C   UNL     1     -10.702   6.561  66.833  1.00  0.00    -0.333 C  
HETATM   17  C   UNL     1     -10.535   7.799  68.876  1.00  0.00    -0.194 C  
ENDBRANCH   7  15
TORSDOF 1
ENDMDL
MODEL       18
REMARK 921   NORMALIZED FREE ENERGY PREDICTED BY IDOCK:   -4.93 KCAL/MOL
REMARK 922        TOTAL FREE ENERGY PREDICTED BY IDOCK:   -5.36 KCAL/MOL
REMARK 923 INTER-LIGAND FREE ENERGY PREDICTED BY IDOCK:   -5.26 KCAL/MOL
REMARK 924 INTRA-LIGAND FREE ENERGY PREDICTED BY IDOCK:   -0.10 KCAL/MOL
REMARK 927      BINDING AFFINITY PREDICTED BY RF-SCORE:    0.00 PKD
ROOT
HETATM    1  C   UNL     1     -10.790  16.135  65.002  1.00  0.00    -0.380 C  
HETATM    2  C   UNL     1      -9.832  15.064  65.516  1.00  0.00    -0.352 C  
HETATM    3  C   UNL     1     -10.423  14.039  66.530  1.00  0.00    -0.281 C  
HETATM    4  C   UNL     1     -10.810  14.639  67.902  1.00  0.00    -0.261 A  
HETATM    5  C   UNL     1     -11.544  13.127  65.908  1.00  0.00    -0.391 C  
HETATM    6  C   UNL     1     -12.891  13.847  65.692  1.00  0.00    -0.467 C  
HETATM    7  C   UNL     1     -11.149  12.395  64.598  1.00  0.00    -0.307 C  
HETATM    8  C   UNL     1     -11.685  13.956  68.771  1.00  0.00    -0.392 A  
HETATM    9  C   UNL     1     -12.110  14.531  69.969  1.00  0.00    -0.339 A  
HETATM   10  C   UNL     1     -10.294  15.865  68.359  1.00  0.00    -0.240 A  
HETATM   11  C   UNL     1     -11.629  15.763  70.375  1.00  0.00    -0.376 A  
HETATM   12  O   UNL     1     -13.025  13.905  70.764  1.00  0.00    -0.283 OA 
HETATM   13  C   UNL     1     -10.703  16.425  69.576  1.00  0.00    -0.325 A  
HETATM   14  H   UNL     1     -13.314  14.297  71.580  1.00  0.00     0.000 HD 
ENDROOT
BRANCH   7  15
HETATM   15  N   UNL     1      -9.981  11.499  64.692  1.00  0.00    -0.251 NA 
HETATM   16  C   UNL     1     -10.142  10.490  65.745  1.00  0.00    -0.265 C  
HETATM   17  C   UNL     1      -9.785  10.821  63.401  1.00  0.00    -0.351 C  
ENDBRANCH   7  15
TORSDOF 1
ENDMDL
MODEL       19
REMARK 921   NORMALIZED FREE ENERGY PREDICTED BY IDOCK:   -4.90 KCAL/MOL
REMARK 922        TOTAL FREE ENERGY PREDICTED BY IDOCK:   -5.33 KCAL/MOL
REMARK 923 INTER-LIGAND FREE ENERGY PREDICTED BY IDOCK:   -5.22 KCAL/MOL
REMARK 924 INTRA-LIGAND FREE ENERGY PREDICTED BY IDOCK:   -0.11 KCAL/MOL
REMARK 927      BINDING AFFINITY PREDICTED BY RF-SCORE:    0.00 PKD
ROOT
HETATM    1  C   UNL     1      -8.584  10.778  67.978  1.00  0.00    -0.128 C  
HETATM    2  C   UNL     1      -9.884  10.356  67.299  1.00  0.00    -0.214 C  
HETATM    3  C   UNL     1     -11.202  10.844  67.970  1.00  0.00    -0.378 C  
HETATM    4  C   UNL     1     -11.488  10.221  69.357  1.00  0.00    -0.248 A  
HETATM    5  C   UNL     1     -11.374  12.408  67.940  1.00  0.00    -0.344 C  
HETATM    6  C   UNL     1     -10.467  13.157  68.937  1.00  0.00    -0.117 C  
HETATM    7  C   UNL     1     -11.230  13.061  66.540  1.00  0.00    -0.302 C  
HETATM    8  C   UNL     1     -12.407  10.818  70.244  1.00  0.00    -0.423 A  
HETATM    9  C   UNL     1     -12.603  10.314  71.530  1.00  0.00    -0.440 A  
HETATM   10  C   UNL     1     -10.877   9.029  69.786  1.00  0.00    -0.215 A  
HETATM   11  C   UNL     1     -11.950   9.169  71.951  1.00  0.00    -0.443 A  
HETATM   12  O   UNL     1     -13.425  10.947  72.416  1.00  0.00    -0.587 OA 
HETATM   13  C   UNL     1     -11.098   8.513  71.070  1.00  0.00    -0.306 A  
HETATM   14  H   UNL     1     -13.559  10.604  73.292  1.00  0.00     0.000 HD 
ENDROOT
BRANCH   7  15
HETATM   15  N   UNL     1     -12.175  12.585  65.511  1.00  0.00    -0.597 NA 
HETATM   16  C   UNL     1     -12.996  13.674  64.970  1.00  0.00    -0.157 C  
HETATM   17  C   UNL     1     -11.421  11.959  64.414  1.00  0.00    -0.320 C  
ENDBRANCH   7  15
TORSDOF 1
ENDMDL
MODEL       20
REMARK 921   NORMALIZED FREE ENERGY PREDICTED BY IDOCK:   -4.88 KCAL/MOL
REMARK 922        TOTAL FREE ENERGY PREDICTED BY IDOCK:   -5.30 KCAL/MOL
REMARK 923 INTER-LIGAND FREE ENERGY PREDICTED BY IDOCK:   -5.17 KCAL/MOL
REMARK 924 INTRA-LIGAND FREE ENERGY PREDICTED BY IDOCK:   -0.13 KCAL/MOL
REMARK 927      BINDING AFFINITY PREDICTED BY RF-SCORE:    0.00 PKD
ROOT
HETATM    1  C   UNL     1      -9.521   8.003  68.592  1.00  0.00    -0.147 C  
HETATM    2  C   UNL     1      -8.847   8.434  69.891  1.00  0.00    -0.137 C  
HETATM    3  C   UNL     1      -9.627   8.130  71.205  1.00  0.00    -0.203 C  
HETATM    4  C   UNL     1     -10.936   8.937  71.379  1.00  0.00    -0.380 A  
HETATM    5  C   UNL     1      -9.799   6.591  71.484  1.00  0.00    -0.182 C  
HETATM    6  C   UNL     1     -10.845   5.904  70.583  1.00  0.00    -0.363 C  
HETATM    7  C   UNL     1      -8.487   5.764  71.454  1.00  0.00    -0.128 C  
HETATM    8  C   UNL     1     -11.927   8.522  72.291  1.00  0.00    -0.454 A  
HETATM    9  C   UNL     1     -13.146   9.192  72.389  1.00  0.00    -0.423 A  
HETATM   10  C   UNL     1     -11.187  10.124  70.667  1.00  0.00    -0.418 A  
HETATM   11  C   UNL     1     -13.394  10.328  71.640  1.00  0.00    -0.451 A  
HETATM   12  O   UNL     1     -14.136   8.734  73.209  1.00  0.00    -1.180 OA 
HETATM   13  C   UNL     1     -12.404  10.808  70.790  1.00  0.00    -0.480 A  
HETATM   14  H   UNL     1     -14.967   9.191  73.275  1.00  0.00     0.000 HD 
ENDROOT
BRANCH   7  15
HETATM   15  N   UNL     1      -7.446   6.180  72.414  1.00  0.00    -0.093 NA 
HETATM   16  C   UNL     1      -7.550   5.459  73.688  1.00  0.00    -0.095 C  
HETATM   17  C   UNL     1      -6.120   5.932  71.827  1.00  0.00    -0.036 C  
ENDBRANCH   7  15
TORSDOF 1
ENDMDL
MODEL       21
REMARK 921   NORMALIZED FREE ENERGY PREDICTED BY IDOCK:   -4.87 KCAL/MOL
REMARK 922        TOTAL FREE ENERGY PREDICTED BY IDOCK:   -5.29 KCAL/MOL
REMARK 923 INTER-LIGAND FREE ENERGY PREDICTED BY IDOCK:   -5.16 KCAL/MOL
REMARK 924 INTRA-LIGAND FREE ENERGY PREDICTED BY IDOCK:   -0.13 KCAL/MOL
REMARK 927      BINDING AFFINITY PREDICTED BY RF-SCORE:    0.00 PKD
ROOT
HETATM    1  C   UNL     1      -8.641  15.110  69.193  1.00  0.00    -0.218 C  
HETATM    2  C   UNL     1      -8.369  15.667  67.799  1.00  0.00    -0.157 C  
HETATM    3  C   UNL     1      -9.574  15.673  66.812  1.00  0.00    -0.257 C  
HETATM    4  C   UNL     1     -10.058  14.270  66.377  1.00  0.00    -0.295 A  
HETATM    5  C   UNL     1     -10.742  16.626  67.263  1.00  0.00    -0.227 C  
HETATM    6  C   UNL     1     -11.576  16.080  68.440  1.00  0.00    -0.279 C  
HETATM    7  C   UNL     1     -10.320  18.085  67.578  1.00  0.00    -0.385 C  
HETATM    8  C   UNL     1     -11.336  14.087  65.811  1.00  0.00    -0.312 A  
HETATM    9  C   UNL     1     -11.815  12.815  65.500  1.00  0.00    -0.422 A  
HETATM   10  C   UNL     1      -9.249  13.125  66.496  1.00  0.00    -0.185 A  
HETATM   11  C   UNL     1     -11.021  11.695  65.675  1.00  0.00    -0.322 A  
HETATM   12  O   UNL     1     -13.085  12.635  65.036  1.00  0.00    -0.808 OA 
HETATM   13  C   UNL     1      -9.726  11.852  66.156  1.00  0.00    -0.251 A  
HETATM   14  H   UNL     1     -13.411  11.768  64.824  1.00  0.00     0.000 HD 
ENDROOT
BRANCH   7  15
HETATM   15  N   UNL     1      -9.677  18.819  66.471  1.00  0.00    -0.340 NA 
HETATM   16  C   UNL     1     -10.466  19.982  66.048  1.00  0.00    -0.416 C  
HETATM   17  C   UNL     1      -8.344  19.271  66.899  1.00  0.00    -0.283 C  
ENDBRANCH   7  15
TORSDOF 1
ENDMDL
MODEL       22
REMARK 921   NORMALIZED FREE ENERGY PREDICTED BY IDOCK:   -4.85 KCAL/MOL
REMARK 922        TOTAL FREE ENERGY PREDICTED BY IDOCK:   -5.27 KCAL/MOL
REMARK 923 INTER-LIGAND FREE ENERGY PREDICTED BY IDOCK:   -5.15 KCAL/MOL
REMARK 924 INTRA-LIGAND FREE ENERGY PREDICTED BY IDOCK:   -0.12 KCAL/MOL
REMARK 927      BINDING AFFINITY PREDICTED BY RF-SCORE:    0.00 PKD
ROOT
HETATM    1  C   UNL     1      -7.462  10.893  67.313  1.00  0.00    -0.104 C  
HETATM    2  C   UNL     1      -8.337  11.536  68.386  1.00  0.00    -0.154 C  
HETATM    3  C   UNL     1      -9.875  11.481  68.145  1.00  0.00    -0.197 C  
HETATM    4  C   UNL     1     -10.371  12.326  66.947  1.00  0.00    -0.236 A  
HETATM    5  C   UNL     1     -10.455  10.018  68.160  1.00  0.00    -0.250 C  
HETATM    6  C   UNL     1     -10.123   9.199  66.896  1.00  0.00    -0.328 C  
HETATM    7  C   UNL     1     -10.094   9.178  69.413  1.00  0.00    -0.197 C  
HETATM    8  C   UNL     1     -11.636  12.094  66.371  1.00  0.00    -0.429 A  
HETATM    9  C   UNL     1     -12.052  12.789  65.236  1.00  0.00    -0.457 A  
HETATM   10  C   UNL     1      -9.607  13.372  66.399  1.00  0.00    -0.265 A  
HETATM   11  C   UNL     1     -11.262  13.779  64.679  1.00  0.00    -0.383 A  
HETATM   12  O   UNL     1     -13.239  12.499  64.629  1.00  0.00    -0.848 OA 
HETATM   13  C   UNL     1     -10.043  14.086  65.275  1.00  0.00    -0.345 A  
HETATM   14  H   UNL     1     -13.523  12.973  63.855  1.00  0.00     0.000 HD 
ENDROOT
BRANCH   7  15
HETATM   15  N   UNL     1     -10.527   9.740  70.708  1.00  0.00    -0.302 NA 
HETATM   16  C   UNL     1     -11.987   9.728  70.854  1.00  0.00    -0.328 C  
HETATM   17  C   UNL     1      -9.927   8.958  71.800  1.00  0.00    -0.327 C  
ENDBRANCH   7  15
TORSDOF 1
ENDMDL
MODEL       23
REMARK 921   NORMALIZED FREE ENERGY PREDICTED BY IDOCK:   -4.83 KCAL/MOL
REMARK 922        TOTAL FREE ENERGY PREDICTED BY IDOCK:   -5.25 KCAL/MOL
REMARK 923 INTER-LIGAND FREE ENERGY PREDICTED BY IDOCK:   -5.12 KCAL/MOL
REMARK 924 INTRA-LIGAND FREE ENERGY PREDICTED BY IDOCK:   -0.14 KCAL/MOL
REMARK 927      BINDING AFFINITY PREDICTED BY RF-SCORE:    0.00 PKD
ROOT
HETATM    1  C   UNL     1     -10.847  19.713  67.042  1.00  0.00    -0.518 C  
HETATM    2  C   UNL     1      -9.932  18.818  66.210  1.00  0.00    -0.418 C  
HETATM    3  C   UNL     1      -8.909  17.952  67.003  1.00  0.00    -0.256 C  
HETATM    4  C   UNL     1      -7.802  18.758  67.724  1.00  0.00    -0.262 A  
HETATM    5  C   UNL     1      -9.590  16.869  67.919  1.00  0.00    -0.244 C  
HETATM    6  C   UNL     1     -10.244  17.446  69.191  1.00  0.00    -0.273 C  
HETATM    7  C   UNL     1     -10.610  15.945  67.203  1.00  0.00    -0.316 C  
HETATM    8  C   UNL     1      -7.047  18.183  68.765  1.00  0.00    -0.287 A  
HETATM    9  C   UNL     1      -6.111  18.930  69.479  1.00  0.00    -0.270 A  
HETATM   10  C   UNL     1      -7.478  20.078  67.362  1.00  0.00    -0.314 A  
HETATM   11  C   UNL     1      -5.846  20.245  69.141  1.00  0.00    -0.352 A  
HETATM   12  O   UNL     1      -5.448  18.395  70.544  1.00  0.00    -0.242 OA 
HETATM   13  C   UNL     1      -6.517  20.816  68.065  1.00  0.00    -0.362 A  
HETATM   14  H   UNL     1      -4.810  18.904  71.031  1.00  0.00     0.000 HD 
ENDROOT
BRANCH   7  15
HETATM   15  N   UNL     1     -10.080  15.162  66.070  1.00  0.00    -0.281 NA 
HETATM   16  C   UNL     1     -10.094  13.720  66.342  1.00  0.00    -0.295 C  
HETATM   17  C   UNL     1     -10.888  15.435  64.872  1.00  0.00    -0.425 C  
ENDBRANCH   7  15
TORSDOF 1
ENDMDL
MODEL       24
REMARK 921   NORMALIZED FREE ENERGY PREDICTED BY IDOCK:   -4.81 KCAL/MOL
REMARK 922        TOTAL FREE ENERGY PREDICTED BY IDOCK:   -5.23 KCAL/MOL
REMARK 923 INTER-LIGAND FREE ENERGY PREDICTED BY IDOCK:   -5.13 KCAL/MOL
REMARK 924 INTRA-LIGAND FREE ENERGY PREDICTED BY IDOCK:   -0.11 KCAL/MOL
REMARK 927      BINDING AFFINITY PREDICTED BY RF-SCORE:    0.00 PKD
ROOT
HETATM    1  C   UNL     1      -9.861  15.474  65.864  1.00  0.00    -0.385 C  
HETATM    2  C   UNL     1      -9.318  14.298  66.671  1.00  0.00    -0.302 C  
HETATM    3  C   UNL     1     -10.355  13.513  67.528  1.00  0.00    -0.237 C  
HETATM    4  C   UNL     1     -10.951  14.312  68.711  1.00  0.00    -0.271 A  
HETATM    5  C   UNL     1     -11.441  12.772  66.664  1.00  0.00    -0.404 C  
HETATM    6  C   UNL     1     -12.502  13.710  66.052  1.00  0.00    -0.477 C  
HETATM    7  C   UNL     1     -10.882  11.850  65.549  1.00  0.00    -0.295 C  
HETATM    8  C   UNL     1     -12.145  13.900  69.336  1.00  0.00    -0.384 A  
HETATM    9  C   UNL     1     -12.736  14.664  70.342  1.00  0.00    -0.316 A  
HETATM   10  C   UNL     1     -10.325  15.458  69.235  1.00  0.00    -0.253 A  
HETATM   11  C   UNL     1     -12.130  15.818  70.807  1.00  0.00    -0.448 A  
HETATM   12  O   UNL     1     -13.938  14.308  70.882  1.00  0.00    -0.306 OA 
HETATM   13  C   UNL     1     -10.910  16.206  70.265  1.00  0.00    -0.300 A  
HETATM   14  H   UNL     1     -14.340  14.829  71.567  1.00  0.00     0.000 HD 
ENDROOT
BRANCH   7  15
HETATM   15  N   UNL     1      -9.994  10.762  66.003  1.00  0.00    -0.233 NA 
HETATM   16  C   UNL     1     -10.654   9.879  66.972  1.00  0.00    -0.203 C  
HETATM   17  C   UNL     1      -9.567   9.968  64.841  1.00  0.00    -0.310 C  
ENDBRANCH   7  15
TORSDOF 1
ENDMDL
MODEL       25
REMARK 921   NORMALIZED FREE ENERGY PREDICTED BY IDOCK:   -4.81 KCAL/MOL
REMARK 922        TOTAL FREE ENERGY PREDICTED BY IDOCK:   -5.23 KCAL/MOL
REMARK 923 INTER-LIGAND FREE ENERGY PREDICTED BY IDOCK:   -5.13 KCAL/MOL
REMARK 924 INTRA-LIGAND FREE ENERGY PREDICTED BY IDOCK:   -0.10 KCAL/MOL
REMARK 927      BINDING AFFINITY PREDICTED BY RF-SCORE:    0.00 PKD
ROOT
HETATM    1  C   UNL     1      -9.801  14.418  67.080  1.00  0.00    -0.254 C  
HETATM    2  C   UNL     1     -10.887  15.489  67.070  1.00  0.00    -0.314 C  
HETATM    3  C   UNL     1     -11.068  16.300  68.387  1.00  0.00    -0.362 C  
HETATM    4  C   UNL     1     -11.608  15.478  69.582  1.00  0.00    -0.359 A  
HETATM    5  C   UNL     1      -9.818  17.183  68.750  1.00  0.00    -0.293 C  
HETATM    6  C   UNL     1      -8.617  16.379  69.288  1.00  0.00    -0.106 C  
HETATM    7  C   UNL     1      -9.326  18.127  67.621  1.00  0.00    -0.260 C  
HETATM    8  C   UNL     1     -11.471  15.946  70.904  1.00  0.00    -0.444 A  
HETATM    9  C   UNL     1     -11.873  15.170  71.991  1.00  0.00    -0.416 A  
HETATM   10  C   UNL     1     -12.277  14.253  69.409  1.00  0.00    -0.319 A  
HETATM   11  C   UNL     1     -12.482  13.942  71.801  1.00  0.00    -0.291 A  
HETATM   12  O   UNL     1     -11.658  15.588  73.272  1.00  0.00    -0.380 OA 
HETATM   13  C   UNL     1     -12.703  13.490  70.505  1.00  0.00    -0.227 A  
HETATM   14  H   UNL     1     -11.931  15.059  74.013  1.00  0.00     0.000 HD 
ENDROOT
BRANCH   7  15
HETATM   15  N   UNL     1     -10.314  19.106  67.128  1.00  0.00    -0.391 NA 
HETATM   16  C   UNL     1      -9.841  20.488  67.271  1.00  0.00    -0.441 C  
HETATM   17  C   UNL     1     -10.596  18.836  65.710  1.00  0.00    -0.271 C  
ENDBRANCH   7  15
TORSDOF 1
ENDMDL
MODEL       26
REMARK 921   NORMALIZED FREE ENERGY PREDICTED BY IDOCK:   -4.80 KCAL/MOL
REMARK 922        TOTAL FREE ENERGY PREDICTED BY IDOCK:   -5.22 KCAL/MOL
REMARK 923 INTER-LIGAND FREE ENERGY PREDICTED BY IDOCK:   -5.10 KCAL/MOL
REMARK 924 INTRA-LIGAND FREE ENERGY PREDICTED BY IDOCK:   -0.12 KCAL/MOL
REMARK 927      BINDING AFFINITY PREDICTED BY RF-SCORE:    0.00 PKD
ROOT
HETATM    1  C   UNL     1     -11.154   7.879  72.939  1.00  0.00    -0.442 C  
HETATM    2  C   UNL     1     -11.998   7.664  71.686  1.00  0.00    -0.329 C  
HETATM    3  C   UNL     1     -11.741   8.647  70.505  1.00  0.00    -0.097 C  
HETATM    4  C   UNL     1     -12.160  10.111  70.781  1.00  0.00    -0.438 A  
HETATM    5  C   UNL     1     -10.300   8.515  69.889  1.00  0.00    -0.210 C  
HETATM    6  C   UNL     1      -9.185   9.117  70.768  1.00  0.00    -0.321 C  
HETATM    7  C   UNL     1      -9.890   7.079  69.469  1.00  0.00    -0.160 C  
HETATM    8  C   UNL     1     -11.662  11.169  69.994  1.00  0.00    -0.438 A  
HETATM    9  C   UNL     1     -11.963  12.497  70.293  1.00  0.00    -0.283 A  
HETATM   10  C   UNL     1     -13.068  10.453  71.800  1.00  0.00    -0.567 A  
HETATM   11  C   UNL     1     -12.817  12.815  71.334  1.00  0.00    -0.371 A  
HETATM   12  O   UNL     1     -11.407  13.521  69.583  1.00  0.00    -0.400 OA 
HETATM   13  C   UNL     1     -13.387  11.789  72.078  1.00  0.00    -0.417 A  
HETATM   14  H   UNL     1     -11.612  14.426  69.787  1.00  0.00     0.000 HD 
ENDROOT
BRANCH   7  15
HETATM   15  N   UNL     1     -10.759   6.432  68.468  1.00  0.00    -0.257 NA 
HETATM   16  C   UNL     1     -10.701   7.108  67.167  1.00  0.00    -0.352 C  
HETATM   17  C   UNL     1     -10.346   5.030  68.301  1.00  0.00    -0.019 C  
ENDBRANCH   7  15
TORSDOF 1
ENDMDL
MODEL       27
REMARK 921   NORMALIZED FREE ENERGY PREDICTED BY IDOCK:   -4.77 KCAL/MOL
REMARK 922        TOTAL FREE ENERGY PREDICTED BY IDOCK:   -5.18 KCAL/MOL
REMARK 923 INTER-LIGAND FREE ENERGY PREDICTED BY IDOCK:   -5.06 KCAL/MOL
REMARK 924 INTRA-LIGAND FREE ENERGY PREDICTED BY IDOCK:   -0.12 KCAL/MOL
REMARK 927      BINDING AFFINITY PREDICTED BY RF-SCORE:    0.00 PKD
ROOT
HETATM    1  C   UNL     1     -12.142  14.676  64.547  1.00  0.00    -0.490 C  
HETATM    2  C   UNL     1     -10.628  14.581  64.706  1.00  0.00    -0.401 C  
HETATM    3  C   UNL     1     -10.056  14.961  66.104  1.00  0.00    -0.316 C  
HETATM    4  C   UNL     1     -10.204  16.455  66.477  1.00  0.00    -0.310 A  
HETATM    5  C   UNL     1     -10.512  13.983  67.249  1.00  0.00    -0.268 C  
HETATM    6  C   UNL     1     -11.980  14.169  67.684  1.00  0.00    -0.405 C  
HETATM    7  C   UNL     1     -10.256  12.478  66.973  1.00  0.00    -0.221 C  
HETATM    8  C   UNL     1     -10.093  16.883  67.815  1.00  0.00    -0.292 A  
HETATM    9  C   UNL     1     -10.314  18.213  68.170  1.00  0.00    -0.379 A  
HETATM   10  C   UNL     1     -10.425  17.453  65.510  1.00  0.00    -0.112 A  
HETATM   11  C   UNL     1     -10.583  19.170  67.208  1.00  0.00    -0.573 A  
HETATM   12  O   UNL     1     -10.294  18.605  69.477  1.00  0.00    -0.350 OA 
HETATM   13  C   UNL     1     -10.619  18.792  65.870  1.00  0.00    -0.405 A  
HETATM   14  H   UNL     1     -10.445  19.512  69.719  1.00  0.00     0.000 HD 
ENDROOT
BRANCH   7  15
HETATM   15  N   UNL     1      -8.849  12.102  66.731  1.00  0.00    -0.201 NA 
HETATM   16  C   UNL     1      -8.103  11.923  67.982  1.00  0.00    -0.151 C  
HETATM   17  C   UNL     1      -8.809  10.848  65.963  1.00  0.00    -0.188 C  
ENDBRANCH   7  15
TORSDOF 1
ENDMDL
MODEL       28
REMARK 921   NORMALIZED FREE ENERGY PREDICTED BY IDOCK:   -4.75 KCAL/MOL
REMARK 922        TOTAL FREE ENERGY PREDICTED BY IDOCK:   -5.16 KCAL/MOL
REMARK 923 INTER-LIGAND FREE ENERGY PREDICTED BY IDOCK:   -5.03 KCAL/MOL
REMARK 924 INTRA-LIGAND FREE ENERGY PREDICTED BY IDOCK:   -0.13 KCAL/MOL
REMARK 927      BINDING AFFINITY PREDICTED BY RF-SCORE:    0.00 PKD
ROOT
HETATM    1  C   UNL     1     -12.005  14.196  66.890  1.00  0.00    -0.479 C  
HETATM    2  C   UNL     1     -10.829  14.423  67.835  1.00  0.00    -0.256 C  
HETATM    3  C   UNL     1     -10.821  13.577  69.143  1.00  0.00    -0.173 C  
HETATM    4  C   UNL     1     -11.952  13.922  70.141  1.00  0.00    -0.402 A  
HETATM    5  C   UNL     1     -10.667  12.033  68.882  1.00  0.00    -0.222 C  
HETATM    6  C   UNL     1     -11.941  11.360  68.331  1.00  0.00    -0.270 C  
HETATM    7  C   UNL     1      -9.461  11.630  67.994  1.00  0.00    -0.185 C  
HETATM    8  C   UNL     1     -12.313  13.025  71.166  1.00  0.00    -0.270 A  
HETATM    9  C   UNL     1     -13.389  13.289  72.013  1.00  0.00    -0.489 A  
HETATM   10  C   UNL     1     -12.647  15.144  70.095  1.00  0.00    -0.319 A  
HETATM   11  C   UNL     1     -14.095  14.475  71.916  1.00  0.00    -0.595 A  
HETATM   12  O   UNL     1     -13.791  12.377  72.945  1.00  0.00    -0.527 OA 
HETATM   13  C   UNL     1     -13.710  15.415  70.967  1.00  0.00    -0.420 A  
HETATM   14  H   UNL     1     -14.525  12.557  73.522  1.00  0.00     0.000 HD 
ENDROOT
BRANCH   7  15
HETATM   15  N   UNL     1      -8.133  12.034  68.496  1.00  0.00    -0.146 NA 
HETATM   16  C   UNL     1      -7.448  10.938  69.190  1.00  0.00    -0.130 C  
HETATM   17  C   UNL     1      -7.304  12.482  67.366  1.00  0.00    -0.147 C  
ENDBRANCH   7  15
TORSDOF 1
ENDMDL
MODEL       29
REMARK 921   NORMALIZED FREE ENERGY PREDICTED BY IDOCK:   -4.73 KCAL/MOL
REMARK 922        TOTAL FREE ENERGY PREDICTED BY IDOCK:   -5.14 KCAL/MOL
REMARK 923 INTER-LIGAND FREE ENERGY PREDICTED BY IDOCK:   -5.14 KCAL/MOL
REMARK 924 INTRA-LIGAND FREE ENERGY PREDICTED BY IDOCK:   -0.00 KCAL/MOL
REMARK 927      BINDING AFFINITY PREDICTED BY RF-SCORE:    0.00 PKD
ROOT
HETATM    1  C   UNL     1     -10.152  19.519  69.011  1.00  0.00    -0.444 C  
HETATM    2  C   UNL     1      -8.846  18.802  68.684  1.00  0.00    -0.360 C  
HETATM    3  C   UNL     1      -8.772  18.104  67.293  1.00  0.00    -0.244 C  
HETATM    4  C   UNL     1      -9.716  16.889  67.130  1.00  0.00    -0.253 A  
HETATM    5  C   UNL     1      -8.838  19.113  66.088  1.00  0.00    -0.224 C  
HETATM    6  C   UNL     1     -10.243  19.697  65.836  1.00  0.00    -0.536 C  
HETATM    7  C   UNL     1      -7.812  20.275  66.142  1.00  0.00    -0.164 C  
HETATM    8  C   UNL     1     -10.047  16.395  65.853  1.00  0.00    -0.370 A  
HETATM    9  C   UNL     1     -10.967  15.358  65.694  1.00  0.00    -0.326 A  
HETATM   10  C   UNL     1     -10.260  16.208  68.234  1.00  0.00    -0.248 A  
HETATM   11  C   UNL     1     -11.532  14.736  66.793  1.00  0.00    -0.343 A  
HETATM   12  O   UNL     1     -11.352  14.943  64.453  1.00  0.00    -0.604 OA 
HETATM   13  C   UNL     1     -11.163  15.149  68.068  1.00  0.00    -0.329 A  
HETATM   14  H   UNL     1     -11.978  14.237  64.345  1.00  0.00     0.000 HD 
ENDROOT
BRANCH   7  15
HETATM   15  N   UNL     1      -6.392  19.875  66.186  1.00  0.00    -0.184 NA 
HETATM   16  C   UNL     1      -6.096  18.787  65.247  1.00  0.00    -0.278 C  
HETATM   17  C   UNL     1      -5.551  21.037  65.859  1.00  0.00    -0.233 C  
ENDBRANCH   7  15
TORSDOF 1
ENDMDL
MODEL       30
REMARK 921   NORMALIZED FREE ENERGY PREDICTED BY IDOCK:   -4.71 KCAL/MOL
REMARK 922        TOTAL FREE ENERGY PREDICTED BY IDOCK:   -5.12 KCAL/MOL
REMARK 923 INTER-LIGAND FREE ENERGY PREDICTED BY IDOCK:   -5.00 KCAL/MOL
REMARK 924 INTRA-LIGAND FREE ENERGY PREDICTED BY IDOCK:   -0.12 KCAL/MOL
REMARK 927      BINDING AFFINITY PREDICTED BY RF-SCORE:    0.00 PKD
ROOT
HETATM    1  C   UNL     1     -11.574  12.611  68.912  1.00  0.00    -0.363 C  
HETATM    2  C   UNL     1     -10.259  13.267  68.503  1.00  0.00    -0.222 C  
HETATM    3  C   UNL     1     -10.053  13.506  66.978  1.00  0.00    -0.244 C  
HETATM    4  C   UNL     1      -9.906  12.216  66.136  1.00  0.00    -0.254 A  
HETATM    5  C   UNL     1     -11.072  14.538  66.368  1.00  0.00    -0.331 C  
HETATM    6  C   UNL     1     -12.499  13.979  66.193  1.00  0.00    -0.467 C  
HETATM    7  C   UNL     1     -11.152  15.901  67.103  1.00  0.00    -0.148 C  
HETATM    8  C   UNL     1     -10.092  12.236  64.740  1.00  0.00    -0.271 A  
HETATM    9  C   UNL     1     -10.051  11.063  63.987  1.00  0.00    -0.350 A  
HETATM   10  C   UNL     1      -9.556  10.980  66.710  1.00  0.00    -0.216 A  
HETATM   11  C   UNL     1      -9.757   9.848  64.580  1.00  0.00    -0.265 A  
HETATM   12  O   UNL     1     -10.320  11.075  62.649  1.00  0.00    -0.713 OA 
HETATM   13  C   UNL     1      -9.489   9.809  65.944  1.00  0.00    -0.285 A  
HETATM   14  H   UNL     1     -10.292  10.276  62.136  1.00  0.00     0.000 HD 
ENDROOT
BRANCH   7  15
HETATM   15  N   UNL     1      -9.889  16.661  67.181  1.00  0.00    -0.251 NA 
HETATM   16  C   UNL     1      -9.985  17.961  66.506  1.00  0.00    -0.357 C  
HETATM   17  C   UNL     1      -9.539  16.876  68.593  1.00  0.00    -0.265 C  
ENDBRANCH   7  15
TORSDOF 1
ENDMDL
MODEL       31
REMARK 921   NORMALIZED FREE ENERGY PREDICTED BY IDOCK:   -4.62 KCAL/MOL
REMARK 922        TOTAL FREE ENERGY PREDICTED BY IDOCK:   -5.02 KCAL/MOL
REMARK 923 INTER-LIGAND FREE ENERGY PREDICTED BY IDOCK:   -4.91 KCAL/MOL
REMARK 924 INTRA-LIGAND FREE ENERGY PREDICTED BY IDOCK:   -0.11 KCAL/MOL
REMARK 927      BINDING AFFINITY PREDICTED BY RF-SCORE:    0.00 PKD
ROOT
HETATM    1  C   UNL     1     -10.454   5.138  72.412  1.00  0.00    -0.272 C  
HETATM    2  C   UNL     1     -10.472   5.642  70.972  1.00  0.00    -0.316 C  
HETATM    3  C   UNL     1     -10.593   7.184  70.782  1.00  0.00    -0.240 C  
HETATM    4  C   UNL     1     -11.950   7.783  71.222  1.00  0.00    -0.324 A  
HETATM    5  C   UNL     1      -9.351   7.977  71.334  1.00  0.00    -0.182 C  
HETATM    6  C   UNL     1      -9.298   8.066  72.872  1.00  0.00    -0.338 C  
HETATM    7  C   UNL     1      -7.973   7.495  70.809  1.00  0.00    -0.103 C  
HETATM    8  C   UNL     1     -12.087   9.163  71.471  1.00  0.00    -0.422 A  
HETATM    9  C   UNL     1     -13.281   9.697  71.954  1.00  0.00    -0.446 A  
HETATM   10  C   UNL     1     -13.107   6.996  71.366  1.00  0.00    -0.375 A  
HETATM   11  C   UNL     1     -14.393   8.895  72.140  1.00  0.00    -0.418 A  
HETATM   12  O   UNL     1     -13.381  11.018  72.278  1.00  0.00    -0.633 OA 
HETATM   13  C   UNL     1     -14.312   7.543  71.826  1.00  0.00    -0.588 A  
HETATM   14  H   UNL     1     -14.195  11.382  72.608  1.00  0.00     0.000 HD 
ENDROOT
BRANCH   7  15
HETATM   15  N   UNL     1      -7.794   7.539  69.345  1.00  0.00    -0.118 NA 
HETATM   16  C   UNL     1      -7.934   8.899  68.812  1.00  0.00    -0.102 C  
HETATM   17  C   UNL     1      -6.460   7.022  69.004  1.00  0.00    -0.036 C  
ENDBRANCH   7  15
TORSDOF 1
ENDMDL
MODEL       32
REMARK 921   NORMALIZED FREE ENERGY PREDICTED BY IDOCK:   -4.56 KCAL/MOL
REMARK 922        TOTAL FREE ENERGY PREDICTED BY IDOCK:   -4.96 KCAL/MOL
REMARK 923 INTER-LIGAND FREE ENERGY PREDICTED BY IDOCK:   -4.88 KCAL/MOL
REMARK 924 INTRA-LIGAND FREE ENERGY PREDICTED BY IDOCK:   -0.08 KCAL/MOL
REMARK 927      BINDING AFFINITY PREDICTED BY RF-SCORE:    0.00 PKD
ROOT
HETATM    1  C   UNL     1     -11.483  16.171  69.554  1.00  0.00    -0.292 C  
HETATM    2  C   UNL     1     -10.104  15.520  69.604  1.00  0.00    -0.297 C  
HETATM    3  C   UNL     1      -9.396  15.300  68.234  1.00  0.00    -0.194 C  
HETATM    4  C   UNL     1     -10.078  14.259  67.315  1.00  0.00    -0.252 A  
HETATM    5  C   UNL     1      -9.036  16.643  67.498  1.00  0.00    -0.204 C  
HETATM    6  C   UNL     1     -10.251  17.359  66.872  1.00  0.00    -0.322 C  
HETATM    7  C   UNL     1      -8.230  17.664  68.343  1.00  0.00    -0.289 C  
HETATM    8  C   UNL     1      -9.801  14.219  65.934  1.00  0.00    -0.322 A  
HETATM    9  C   UNL     1     -10.478  13.344  65.085  1.00  0.00    -0.347 A  
HETATM   10  C   UNL     1     -10.975  13.294  67.809  1.00  0.00    -0.278 A  
HETATM   11  C   UNL     1     -11.396  12.438  65.585  1.00  0.00    -0.387 A  
HETATM   12  O   UNL     1     -10.271  13.371  63.737  1.00  0.00    -0.647 OA 
HETATM   13  C   UNL     1     -11.632  12.399  66.955  1.00  0.00    -0.437 A  
HETATM   14  H   UNL     1     -10.732  12.775  63.158  1.00  0.00     0.000 HD 
ENDROOT
BRANCH   7  15
HETATM   15  N   UNL     1      -6.931  17.188  68.855  1.00  0.00    -0.221 NA 
HETATM   16  C   UNL     1      -6.081  16.648  67.788  1.00  0.00    -0.139 C  
HETATM   17  C   UNL     1      -6.231  18.303  69.512  1.00  0.00    -0.248 C  
ENDBRANCH   7  15
TORSDOF 1
ENDMDL
MODEL       33
REMARK 921   NORMALIZED FREE ENERGY PREDICTED BY IDOCK:   -4.55 KCAL/MOL
REMARK 922        TOTAL FREE ENERGY PREDICTED BY IDOCK:   -4.95 KCAL/MOL
REMARK 923 INTER-LIGAND FREE ENERGY PREDICTED BY IDOCK:   -4.84 KCAL/MOL
REMARK 924 INTRA-LIGAND FREE ENERGY PREDICTED BY IDOCK:   -0.11 KCAL/MOL
REMARK 927      BINDING AFFINITY PREDICTED BY RF-SCORE:    0.00 PKD
ROOT
HETATM    1  C   UNL     1      -8.382  12.198  68.206  1.00  0.00    -0.172 C  
HETATM    2  C   UNL     1      -8.651  12.018  66.715  1.00  0.00    -0.177 C  
HETATM    3  C   UNL     1      -9.824  11.065  66.337  1.00  0.00    -0.252 C  
HETATM    4  C   UNL     1      -9.582   9.576  66.679  1.00  0.00    -0.243 A  
HETATM    5  C   UNL     1     -11.230  11.594  66.806  1.00  0.00    -0.371 C  
HETATM    6  C   UNL     1     -11.475  11.462  68.323  1.00  0.00    -0.369 C  
HETATM    7  C   UNL     1     -11.572  13.042  66.366  1.00  0.00    -0.363 C  
HETATM    8  C   UNL     1     -10.656   8.666  66.756  1.00  0.00    -0.223 A  
HETATM    9  C   UNL     1     -10.457   7.344  67.151  1.00  0.00    -0.333 A  
HETATM   10  C   UNL     1      -8.294   9.056  66.901  1.00  0.00    -0.119 A  
HETATM   11  C   UNL     1      -9.186   6.865  67.417  1.00  0.00    -0.130 A  
HETATM   12  O   UNL     1     -11.510   6.491  67.310  1.00  0.00    -0.754 OA 
HETATM   13  C   UNL     1      -8.098   7.719  67.272  1.00  0.00    -0.119 A  
HETATM   14  H   UNL     1     -11.374   5.590  67.580  1.00  0.00     0.000 HD 
ENDROOT
BRANCH   7  15
HETATM   15  N   UNL     1     -11.575  13.285  64.910  1.00  0.00    -0.314 NA 
HETATM   16  C   UNL     1     -12.536  12.425  64.209  1.00  0.00    -0.437 C  
HETATM   17  C   UNL     1     -11.912  14.694  64.654  1.00  0.00    -0.462 C  
ENDBRANCH   7  15
TORSDOF 1
ENDMDL
MODEL       34
REMARK 921   NORMALIZED FREE ENERGY PREDICTED BY IDOCK:   -4.54 KCAL/MOL
REMARK 922        TOTAL FREE ENERGY PREDICTED BY IDOCK:   -4.95 KCAL/MOL
REMARK 923 INTER-LIGAND FREE ENERGY PREDICTED BY IDOCK:   -4.86 KCAL/MOL
REMARK 924 INTRA-LIGAND FREE ENERGY PREDICTED BY IDOCK:   -0.08 KCAL/MOL
REMARK 927      BINDING AFFINITY PREDICTED BY RF-SCORE:    0.00 PKD
ROOT
HETATM    1  C   UNL     1     -10.510   6.961  73.587  1.00  0.00    -0.400 C  
HETATM    2  C   UNL     1     -11.056   6.523  72.231  1.00  0.00    -0.297 C  
HETATM    3  C   UNL     1     -10.789   7.487  71.037  1.00  0.00    -0.249 C  
HETATM    4  C   UNL     1     -11.530   8.842  71.124  1.00  0.00    -0.364 A  
HETATM    5  C   UNL     1      -9.263   7.630  70.683  1.00  0.00    -0.162 C  
HETATM    6  C   UNL     1      -8.465   8.486  71.687  1.00  0.00    -0.235 C  
HETATM    7  C   UNL     1      -8.510   6.293  70.452  1.00  0.00    -0.134 C  
HETATM    8  C   UNL     1     -11.116   9.945  70.351  1.00  0.00    -0.382 A  
HETATM    9  C   UNL     1     -11.721  11.194  70.490  1.00  0.00    -0.293 A  
HETATM   10  C   UNL     1     -12.656   9.032  71.946  1.00  0.00    -0.452 A  
HETATM   11  C   UNL     1     -12.794  11.373  71.345  1.00  0.00    -0.502 A  
HETATM   12  O   UNL     1     -11.259  12.280  69.805  1.00  0.00    -0.470 OA 
HETATM   13  C   UNL     1     -13.276  10.283  72.062  1.00  0.00    -0.516 A  
HETATM   14  H   UNL     1     -11.671  13.131  69.900  1.00  0.00     0.000 HD 
ENDROOT
BRANCH   7  15
HETATM   15  N   UNL     1      -9.041   5.438  69.372  1.00  0.00    -0.107 NA 
HETATM   16  C   UNL     1      -8.021   5.122  68.366  1.00  0.00    -0.087 C  
HETATM   17  C   UNL     1      -9.550   4.185  69.953  1.00  0.00    -0.211 C  
ENDBRANCH   7  15
TORSDOF 1
ENDMDL
MODEL       35
REMARK 921   NORMALIZED FREE ENERGY PREDICTED BY IDOCK:   -4.47 KCAL/MOL
REMARK 922        TOTAL FREE ENERGY PREDICTED BY IDOCK:   -4.87 KCAL/MOL
REMARK 923 INTER-LIGAND FREE ENERGY PREDICTED BY IDOCK:   -4.84 KCAL/MOL
REMARK 924 INTRA-LIGAND FREE ENERGY PREDICTED BY IDOCK:   -0.03 KCAL/MOL
REMARK 927      BINDING AFFINITY PREDICTED BY RF-SCORE:    0.00 PKD
ROOT
HETATM    1  C   UNL     1      -6.671  15.212  67.827  1.00  0.00    -0.185 C  
HETATM    2  C   UNL     1      -7.619  15.594  68.960  1.00  0.00    -0.187 C  
HETATM    3  C   UNL     1      -8.840  16.479  68.568  1.00  0.00    -0.228 C  
HETATM    4  C   UNL     1      -8.478  17.914  68.116  1.00  0.00    -0.268 A  
HETATM    5  C   UNL     1      -9.847  15.754  67.600  1.00  0.00    -0.232 C  
HETATM    6  C   UNL     1      -9.341  15.628  66.149  1.00  0.00    -0.382 C  
HETATM    7  C   UNL     1     -10.344  14.366  68.083  1.00  0.00    -0.231 C  
HETATM    8  C   UNL     1      -9.394  18.696  67.384  1.00  0.00    -0.298 A  
HETATM    9  C   UNL     1      -9.043  19.954  66.896  1.00  0.00    -0.356 A  
HETATM   10  C   UNL     1      -7.245  18.512  68.432  1.00  0.00    -0.292 A  
HETATM   11  C   UNL     1      -7.803  20.503  67.174  1.00  0.00    -0.363 A  
HETATM   12  O   UNL     1      -9.901  20.670  66.113  1.00  0.00    -0.602 OA 
HETATM   13  C   UNL     1      -6.908  19.788  67.962  1.00  0.00    -0.297 A  
HETATM   14  H   UNL     1      -9.661  21.527  65.781  1.00  0.00     0.000 HD 
ENDROOT
BRANCH   7  15
HETATM   15  N   UNL     1     -11.038  14.351  69.385  1.00  0.00    -0.265 NA 
HETATM   16  C   UNL     1     -12.032  15.425  69.494  1.00  0.00    -0.334 C  
HETATM   17  C   UNL     1     -11.708  13.054  69.562  1.00  0.00    -0.317 C  
ENDBRANCH   7  15
TORSDOF 1
ENDMDL
MODEL       36
REMARK 921   NORMALIZED FREE ENERGY PREDICTED BY IDOCK:   -4.47 KCAL/MOL
REMARK 922        TOTAL FREE ENERGY PREDICTED BY IDOCK:   -4.86 KCAL/MOL
REMARK 923 INTER-LIGAND FREE ENERGY PREDICTED BY IDOCK:   -4.72 KCAL/MOL
REMARK 924 INTRA-LIGAND FREE ENERGY PREDICTED BY IDOCK:   -0.14 KCAL/MOL
REMARK 927      BINDING AFFINITY PREDICTED BY RF-SCORE:    0.00 PKD
ROOT
HETATM    1  C   UNL     1      -9.929  13.639  67.901  1.00  0.00    -0.244 C  
HETATM    2  C   UNL     1     -11.128  12.696  67.901  1.00  0.00    -0.285 C  
HETATM    3  C   UNL     1     -10.867  11.248  67.390  1.00  0.00    -0.311 C  
HETATM    4  C   UNL     1     -10.531  11.147  65.883  1.00  0.00    -0.310 A  
HETATM    5  C   UNL     1      -9.880  10.434  68.306  1.00  0.00    -0.169 C  
HETATM    6  C   UNL     1      -8.404  10.860  68.170  1.00  0.00    -0.123 C  
HETATM    7  C   UNL     1     -10.256  10.396  69.811  1.00  0.00    -0.184 C  
HETATM    8  C   UNL     1      -9.910   9.997  65.354  1.00  0.00    -0.384 A  
HETATM    9  C   UNL     1      -9.523   9.935  64.016  1.00  0.00    -0.167 A  
HETATM   10  C   UNL     1     -10.849  12.170  64.972  1.00  0.00    -0.344 A  
HETATM   11  C   UNL     1      -9.799  10.976  63.147  1.00  0.00    -0.398 A  
HETATM   12  O   UNL     1      -8.843   8.856  63.530  1.00  0.00    -0.429 OA 
HETATM   13  C   UNL     1     -10.482  12.090  63.622  1.00  0.00    -0.494 A  
HETATM   14  H   UNL     1      -8.579   8.814  62.618  1.00  0.00     0.000 HD 
ENDROOT
BRANCH   7  15
HETATM   15  N   UNL     1     -11.578   9.822  70.126  1.00  0.00    -0.220 NA 
HETATM   16  C   UNL     1     -11.471   8.546  70.842  1.00  0.00    -0.267 C  
HETATM   17  C   UNL     1     -12.335  10.776  70.952  1.00  0.00    -0.396 C  
ENDBRANCH   7  15
TORSDOF 1
ENDMDL
MODEL       37
REMARK 921   NORMALIZED FREE ENERGY PREDICTED BY IDOCK:   -4.46 KCAL/MOL
REMARK 922        TOTAL FREE ENERGY PREDICTED BY IDOCK:   -4.85 KCAL/MOL
REMARK 923 INTER-LIGAND FREE ENERGY PREDICTED BY IDOCK:   -4.72 KCAL/MOL
REMARK 924 INTRA-LIGAND FREE ENERGY PREDICTED BY IDOCK:   -0.13 KCAL/MOL
REMARK 927      BINDING AFFINITY PREDICTED BY RF-SCORE:    0.00 PKD
ROOT
HETATM    1  C   UNL     1     -12.657  12.437  64.104  1.00  0.00    -0.498 C  
HETATM    2  C   UNL     1     -11.234  12.524  63.562  1.00  0.00    -0.525 C  
HETATM    3  C   UNL     1     -10.108  12.748  64.615  1.00  0.00    -0.256 C  
HETATM    4  C   UNL     1     -10.143  14.128  65.313  1.00  0.00    -0.364 A  
HETATM    5  C   UNL     1      -9.945  11.545  65.616  1.00  0.00    -0.275 C  
HETATM    6  C   UNL     1     -11.062  11.456  66.676  1.00  0.00    -0.333 C  
HETATM    7  C   UNL     1      -9.770  10.153  64.953  1.00  0.00    -0.324 C  
HETATM    8  C   UNL     1      -9.456  14.345  66.525  1.00  0.00    -0.309 A  
HETATM    9  C   UNL     1      -9.556  15.557  67.207  1.00  0.00    -0.213 A  
HETATM   10  C   UNL     1     -10.828  15.229  64.768  1.00  0.00    -0.379 A  
HETATM   11  C   UNL     1     -10.280  16.612  66.678  1.00  0.00    -0.304 A  
HETATM   12  O   UNL     1      -8.963  15.732  68.423  1.00  0.00    -0.178 OA 
HETATM   13  C   UNL     1     -10.902  16.454  65.444  1.00  0.00    -0.249 A  
HETATM   14  H   UNL     1      -9.031  16.559  68.887  1.00  0.00     0.000 HD 
ENDROOT
BRANCH   7  15
HETATM   15  N   UNL     1      -8.611  10.016  64.049  1.00  0.00    -0.173 NA 
HETATM   16  C   UNL     1      -7.645   9.024  64.537  1.00  0.00    -0.108 C  
HETATM   17  C   UNL     1      -9.082   9.615  62.715  1.00  0.00    -0.235 C  
ENDBRANCH   7  15
TORSDOF 1
ENDMDL
MODEL       38
REMARK 921   NORMALIZED FREE ENERGY PREDICTED BY IDOCK:   -4.42 KCAL/MOL
REMARK 922        TOTAL FREE ENERGY PREDICTED BY IDOCK:   -4.81 KCAL/MOL
REMARK 923 INTER-LIGAND FREE ENERGY PREDICTED BY IDOCK:   -4.67 KCAL/MOL
REMARK 924 INTRA-LIGAND FREE ENERGY PREDICTED BY IDOCK:   -0.14 KCAL/MOL
REMARK 927      BINDING AFFINITY PREDICTED BY RF-SCORE:    0.00 PKD
ROOT
HETATM    1  C   UNL     1     -11.535  11.687  67.366  1.00  0.00    -0.357 C  
HETATM    2  C   UNL     1     -10.365  11.849  68.331  1.00  0.00    -0.216 C  
HETATM    3  C   UNL     1     -10.076  10.643  69.273  1.00  0.00    -0.227 C  
HETATM    4  C   UNL     1     -11.173  10.373  70.330  1.00  0.00    -0.399 A  
HETATM    5  C   UNL     1      -9.617   9.350  68.504  1.00  0.00    -0.154 C  
HETATM    6  C   UNL     1     -10.757   8.627  67.757  1.00  0.00    -0.178 C  
HETATM    7  C   UNL     1      -8.425   9.548  67.531  1.00  0.00    -0.126 C  
HETATM    8  C   UNL     1     -11.254   9.130  70.989  1.00  0.00    -0.380 A  
HETATM    9  C   UNL     1     -12.293   8.847  71.875  1.00  0.00    -0.376 A  
HETATM   10  C   UNL     1     -12.114  11.349  70.703  1.00  0.00    -0.469 A  
HETATM   11  C   UNL     1     -13.241   9.806  72.188  1.00  0.00    -0.530 A  
HETATM   12  O   UNL     1     -12.418   7.612  72.443  1.00  0.00    -0.503 OA 
HETATM   13  C   UNL     1     -13.140  11.068  71.614  1.00  0.00    -0.543 A  
HETATM   14  H   UNL     1     -13.126   7.420  73.046  1.00  0.00     0.000 HD 
ENDROOT
BRANCH   7  15
HETATM   15  N   UNL     1      -7.179  10.053  68.139  1.00  0.00    -0.081 NA 
HETATM   16  C   UNL     1      -6.096   9.065  68.083  1.00  0.00    -0.050 C  
HETATM   17  C   UNL     1      -6.756  11.273  67.434  1.00  0.00    -0.085 C  
ENDBRANCH   7  15
TORSDOF 1
ENDMDL
MODEL       39
REMARK 921   NORMALIZED FREE ENERGY PREDICTED BY IDOCK:   -4.40 KCAL/MOL
REMARK 922        TOTAL FREE ENERGY PREDICTED BY IDOCK:   -4.80 KCAL/MOL
REMARK 923 INTER-LIGAND FREE ENERGY PREDICTED BY IDOCK:   -4.69 KCAL/MOL
REMARK 924 INTRA-LIGAND FREE ENERGY PREDICTED BY IDOCK:   -0.11 KCAL/MOL
REMARK 927      BINDING AFFINITY PREDICTED BY RF-SCORE:    0.00 PKD
ROOT
HETATM    1  C   UNL     1      -9.105  10.759  68.877  1.00  0.00    -0.170 C  
HETATM    2  C   UNL     1     -10.380   9.997  68.529  1.00  0.00    -0.217 C  
HETATM    3  C   UNL     1     -10.754   9.933  67.019  1.00  0.00    -0.237 C  
HETATM    4  C   UNL     1     -11.154  11.291  66.395  1.00  0.00    -0.257 A  
HETATM    5  C   UNL     1      -9.713   9.130  66.154  1.00  0.00    -0.357 C  
HETATM    6  C   UNL     1      -8.393   9.887  65.902  1.00  0.00    -0.126 C  
HETATM    7  C   UNL     1      -9.386   7.705  66.671  1.00  0.00    -0.190 C  
HETATM    8  C   UNL     1     -11.149  11.477  64.997  1.00  0.00    -0.268 A  
HETATM    9  C   UNL     1     -11.420  12.722  64.432  1.00  0.00    -0.354 A  
HETATM   10  C   UNL     1     -11.564  12.386  67.177  1.00  0.00    -0.435 A  
HETATM   11  C   UNL     1     -11.770  13.801  65.224  1.00  0.00    -0.349 A  
HETATM   12  O   UNL     1     -11.327  12.919  63.085  1.00  0.00    -0.738 OA 
HETATM   13  C   UNL     1     -11.861  13.628  66.601  1.00  0.00    -0.447 A  
HETATM   14  H   UNL     1     -11.512  13.767  62.699  1.00  0.00     0.000 HD 
ENDROOT
BRANCH   7  15
HETATM   15  N   UNL     1     -10.534   6.784  66.780  1.00  0.00    -0.246 NA 
HETATM   16  C   UNL     1     -10.358   5.582  65.956  1.00  0.00    -0.006 C  
HETATM   17  C   UNL     1     -10.702   6.384  68.186  1.00  0.00    -0.291 C  
ENDBRANCH   7  15
TORSDOF 1
ENDMDL
MODEL       40
REMARK 921   NORMALIZED FREE ENERGY PREDICTED BY IDOCK:   -4.38 KCAL/MOL
REMARK 922        TOTAL FREE ENERGY PREDICTED BY IDOCK:   -4.77 KCAL/MOL
REMARK 923 INTER-LIGAND FREE ENERGY PREDICTED BY IDOCK:   -4.79 KCAL/MOL
REMARK 924 INTRA-LIGAND FREE ENERGY PREDICTED BY IDOCK:    0.02 KCAL/MOL
REMARK 927      BINDING AFFINITY PREDICTED BY RF-SCORE:    0.00 PKD
ROOT
HETATM    1  C   UNL     1      -8.430  10.039  65.200  1.00  0.00    -0.160 C  
HETATM    2  C   UNL     1      -9.940  10.148  65.009  1.00  0.00    -0.375 C  
HETATM    3  C   UNL     1     -10.745  10.736  66.207  1.00  0.00    -0.205 C  
HETATM    4  C   UNL     1     -10.764   9.844  67.471  1.00  0.00    -0.333 A  
HETATM    5  C   UNL     1     -10.399  12.241  66.508  1.00  0.00    -0.250 C  
HETATM    6  C   UNL     1      -9.032  12.444  67.193  1.00  0.00    -0.195 C  
HETATM    7  C   UNL     1     -10.500  13.198  65.292  1.00  0.00    -0.307 C  
HETATM    8  C   UNL     1     -11.109  10.378  68.729  1.00  0.00    -0.298 A  
HETATM    9  C   UNL     1     -11.042   9.603  69.887  1.00  0.00    -0.235 A  
HETATM   10  C   UNL     1     -10.471   8.469  67.425  1.00  0.00    -0.351 A  
HETATM   11  C   UNL     1     -10.699   8.264  69.826  1.00  0.00    -0.221 A  
HETATM   12  O   UNL     1     -11.290  10.147  71.113  1.00  0.00    -0.346 OA 
HETATM   13  C   UNL     1     -10.432   7.689  68.588  1.00  0.00    -0.203 A  
HETATM   14  H   UNL     1     -11.244   9.619  71.902  1.00  0.00     0.000 HD 
ENDROOT
BRANCH   7  15
HETATM   15  N   UNL     1     -11.822  13.267  64.639  1.00  0.00    -0.360 NA 
HETATM   16  C   UNL     1     -12.270  14.651  64.445  1.00  0.00    -0.452 C  
HETATM   17  C   UNL     1     -11.752  12.595  63.333  1.00  0.00    -0.498 C  
ENDBRANCH   7  15
TORSDOF 1
ENDMDL
MODEL       41
REMARK 921   NORMALIZED FREE ENERGY PREDICTED BY IDOCK:   -4.32 KCAL/MOL
REMARK 922        TOTAL FREE ENERGY PREDICTED BY IDOCK:   -4.71 KCAL/MOL
REMARK 923 INTER-LIGAND FREE ENERGY PREDICTED BY IDOCK:   -4.57 KCAL/MOL
REMARK 924 INTRA-LIGAND FREE ENERGY PREDICTED BY IDOCK:   -0.14 KCAL/MOL
REMARK 927      BINDING AFFINITY PREDICTED BY RF-SCORE:    0.00 PKD
ROOT
HETATM    1  C   UNL     1     -10.217   6.589  72.224  1.00  0.00    -0.203 C  
HETATM    2  C   UNL     1     -10.928   6.524  70.875  1.00  0.00    -0.325 C  
HETATM    3  C   UNL     1     -10.910   7.828  70.024  1.00  0.00    -0.243 C  
HETATM    4  C   UNL     1     -11.722   9.001  70.623  1.00  0.00    -0.237 A  
HETATM    5  C   UNL     1      -9.468   8.243  69.552  1.00  0.00    -0.162 C  
HETATM    6  C   UNL     1      -8.590   8.839  70.672  1.00  0.00    -0.203 C  
HETATM    7  C   UNL     1      -8.667   7.134  68.822  1.00  0.00    -0.124 C  
HETATM    8  C   UNL     1     -11.507  10.326  70.195  1.00  0.00    -0.383 A  
HETATM    9  C   UNL     1     -12.169  11.397  70.793  1.00  0.00    -0.376 A  
HETATM   10  C   UNL     1     -12.723   8.804  71.592  1.00  0.00    -0.394 A  
HETATM   11  C   UNL     1     -13.112  11.185  71.783  1.00  0.00    -0.536 A  
HETATM   12  O   UNL     1     -11.891  12.684  70.436  1.00  0.00    -0.516 OA 
HETATM   13  C   UNL     1     -13.405   9.883  72.171  1.00  0.00    -0.498 A  
HETATM   14  H   UNL     1     -12.343  13.414  70.844  1.00  0.00     0.000 HD 
ENDROOT
BRANCH   7  15
HETATM   15  N   UNL     1      -9.292   6.592  67.600  1.00  0.00    -0.119 NA 
HETATM   16  C   UNL     1      -8.554   6.969  66.389  1.00  0.00    -0.135 C  
HETATM   17  C   UNL     1      -9.347   5.125  67.694  1.00  0.00    -0.122 C  
ENDBRANCH   7  15
TORSDOF 1
ENDMDL
MODEL       42
REMARK 921   NORMALIZED FREE ENERGY PREDICTED BY IDOCK:   -4.32 KCAL/MOL
REMARK 922        TOTAL FREE ENERGY PREDICTED BY IDOCK:   -4.71 KCAL/MOL
REMARK 923 INTER-LIGAND FREE ENERGY PREDICTED BY IDOCK:   -4.59 KCAL/MOL
REMARK 924 INTRA-LIGAND FREE ENERGY PREDICTED BY IDOCK:   -0.12 KCAL/MOL
REMARK 927      BINDING AFFINITY PREDICTED BY RF-SCORE:    0.00 PKD
ROOT
HETATM    1  C   UNL     1     -12.540  12.600  64.832  1.00  0.00    -0.525 C  
HETATM    2  C   UNL     1     -11.030  12.423  64.699  1.00  0.00    -0.344 C  
HETATM    3  C   UNL     1     -10.172  12.894  65.911  1.00  0.00    -0.299 C  
HETATM    4  C   UNL     1     -10.175  14.423  66.149  1.00  0.00    -0.317 A  
HETATM    5  C   UNL     1     -10.430  12.057  67.218  1.00  0.00    -0.241 C  
HETATM    6  C   UNL     1     -11.771  12.376  67.911  1.00  0.00    -0.421 C  
HETATM    7  C   UNL     1     -10.301  10.520  67.055  1.00  0.00    -0.237 C  
HETATM    8  C   UNL     1      -9.778  14.965  67.388  1.00  0.00    -0.217 A  
HETATM    9  C   UNL     1      -9.865  16.333  67.640  1.00  0.00    -0.238 A  
HETATM   10  C   UNL     1     -10.543  15.338  65.146  1.00  0.00    -0.453 A  
HETATM   11  C   UNL     1     -10.280  17.212  66.656  1.00  0.00    -0.319 A  
HETATM   12  O   UNL     1      -9.564  16.843  68.870  1.00  0.00    -0.258 OA 
HETATM   13  C   UNL     1     -10.602  16.716  65.397  1.00  0.00    -0.254 A  
HETATM   14  H   UNL     1      -9.623  17.776  69.042  1.00  0.00     0.000 HD 
ENDROOT
BRANCH   7  15
HETATM   15  N   UNL     1      -8.991  10.034  66.582  1.00  0.00    -0.138 NA 
HETATM   16  C   UNL     1      -8.031   9.877  67.681  1.00  0.00    -0.109 C  
HETATM   17  C   UNL     1      -9.169   8.738  65.908  1.00  0.00    -0.220 C  
ENDBRANCH   7  15
TORSDOF 1
ENDMDL
MODEL       43
REMARK 921   NORMALIZED FREE ENERGY PREDICTED BY IDOCK:   -4.31 KCAL/MOL
REMARK 922        TOTAL FREE ENERGY PREDICTED BY IDOCK:   -4.70 KCAL/MOL
REMARK 923 INTER-LIGAND FREE ENERGY PREDICTED BY IDOCK:   -4.58 KCAL/MOL
REMARK 924 INTRA-LIGAND FREE ENERGY PREDICTED BY IDOCK:   -0.11 KCAL/MOL
REMARK 927      BINDING AFFINITY PREDICTED BY RF-SCORE:    0.00 PKD
ROOT
HETATM    1  C   UNL     1     -10.809  19.111  67.355  1.00  0.00    -0.533 C  
HETATM    2  C   UNL     1     -10.158  18.814  68.703  1.00  0.00    -0.432 C  
HETATM    3  C   UNL     1      -9.271  17.535  68.773  1.00  0.00    -0.227 C  
HETATM    4  C   UNL     1     -10.044  16.204  68.625  1.00  0.00    -0.231 A  
HETATM    5  C   UNL     1      -7.989  17.618  67.864  1.00  0.00    -0.231 C  
HETATM    6  C   UNL     1      -8.278  17.460  66.357  1.00  0.00    -0.306 C  
HETATM    7  C   UNL     1      -7.108  18.877  68.078  1.00  0.00    -0.238 C  
HETATM    8  C   UNL     1      -9.375  15.010  68.290  1.00  0.00    -0.192 A  
HETATM    9  C   UNL     1     -10.076  13.825  68.066  1.00  0.00    -0.245 A  
HETATM   10  C   UNL     1     -11.431  16.113  68.841  1.00  0.00    -0.331 A  
HETATM   11  C   UNL     1     -11.449  13.770  68.233  1.00  0.00    -0.348 A  
HETATM   12  O   UNL     1      -9.433  12.694  67.655  1.00  0.00    -0.179 OA 
HETATM   13  C   UNL     1     -12.127  14.913  68.641  1.00  0.00    -0.205 A  
HETATM   14  H   UNL     1      -9.911  11.887  67.503  1.00  0.00     0.000 HD 
ENDROOT
BRANCH   7  15
HETATM   15  N   UNL     1      -6.581  19.065  69.444  1.00  0.00    -0.302 NA 
HETATM   16  C   UNL     1      -5.713  17.956  69.858  1.00  0.00    -0.247 C  
HETATM   17  C   UNL     1      -5.818  20.322  69.500  1.00  0.00    -0.335 C  
ENDBRANCH   7  15
TORSDOF 1
ENDMDL
MODEL       44
REMARK 921   NORMALIZED FREE ENERGY PREDICTED BY IDOCK:   -4.29 KCAL/MOL
REMARK 922        TOTAL FREE ENERGY PREDICTED BY IDOCK:   -4.68 KCAL/MOL
REMARK 923 INTER-LIGAND FREE ENERGY PREDICTED BY IDOCK:   -4.56 KCAL/MOL
REMARK 924 INTRA-LIGAND FREE ENERGY PREDICTED BY IDOCK:   -0.12 KCAL/MOL
REMARK 927      BINDING AFFINITY PREDICTED BY RF-SCORE:    0.00 PKD
ROOT
HETATM    1  C   UNL     1      -8.967  12.881  66.907  1.00  0.00    -0.210 C  
HETATM    2  C   UNL     1      -9.065  13.537  68.281  1.00  0.00    -0.189 C  
HETATM    3  C   UNL     1      -9.916  14.839  68.363  1.00  0.00    -0.223 C  
HETATM    4  C   UNL     1      -9.320  16.049  67.603  1.00  0.00    -0.214 A  
HETATM    5  C   UNL     1     -11.443  14.603  68.063  1.00  0.00    -0.346 C  
HETATM    6  C   UNL     1     -11.759  14.367  66.572  1.00  0.00    -0.404 C  
HETATM    7  C   UNL     1     -12.116  13.487  68.904  1.00  0.00    -0.279 C  
HETATM    8  C   UNL     1     -10.121  17.157  67.263  1.00  0.00    -0.294 A  
HETATM    9  C   UNL     1      -9.615  18.209  66.500  1.00  0.00    -0.317 A  
HETATM   10  C   UNL     1      -7.962  16.115  67.245  1.00  0.00    -0.203 A  
HETATM   11  C   UNL     1      -8.287  18.229  66.112  1.00  0.00    -0.159 A  
HETATM   12  O   UNL     1     -10.417  19.236  66.097  1.00  0.00    -0.444 OA 
HETATM   13  C   UNL     1      -7.452  17.188  66.502  1.00  0.00    -0.318 A  
HETATM   14  H   UNL     1     -10.071  19.953  65.578  1.00  0.00     0.000 HD 
ENDROOT
BRANCH   7  15
HETATM   15  N   UNL     1     -12.072  13.673  70.367  1.00  0.00    -0.349 NA 
HETATM   16  C   UNL     1     -12.876  14.820  70.803  1.00  0.00    -0.361 C  
HETATM   17  C   UNL     1     -12.572  12.456  71.025  1.00  0.00    -0.254 C  
ENDBRANCH   7  15
TORSDOF 1
ENDMDL
MODEL       45
REMARK 921   NORMALIZED FREE ENERGY PREDICTED BY IDOCK:   -4.29 KCAL/MOL
REMARK 922        TOTAL FREE ENERGY PREDICTED BY IDOCK:   -4.68 KCAL/MOL
REMARK 923 INTER-LIGAND FREE ENERGY PREDICTED BY IDOCK:   -4.61 KCAL/MOL
REMARK 924 INTRA-LIGAND FREE ENERGY PREDICTED BY IDOCK:   -0.07 KCAL/MOL
REMARK 927      BINDING AFFINITY PREDICTED BY RF-SCORE:    0.00 PKD
ROOT
HETATM    1  C   UNL     1     -10.722  18.784  67.701  1.00  0.00    -0.449 C  
HETATM    2  C   UNL     1      -9.547  18.270  68.527  1.00  0.00    -0.358 C  
HETATM    3  C   UNL     1      -9.244  16.746  68.422  1.00  0.00    -0.229 C  
HETATM    4  C   UNL     1     -10.333  15.828  69.028  1.00  0.00    -0.223 A  
HETATM    5  C   UNL     1      -8.782  16.302  66.984  1.00  0.00    -0.220 C  
HETATM    6  C   UNL     1      -9.922  16.253  65.947  1.00  0.00    -0.366 C  
HETATM    7  C   UNL     1      -7.597  17.111  66.393  1.00  0.00    -0.312 C  
HETATM    8  C   UNL     1     -10.402  14.463  68.687  1.00  0.00    -0.245 A  
HETATM    9  C   UNL     1     -11.433  13.650  69.158  1.00  0.00    -0.297 A  
HETATM   10  C   UNL     1     -11.278  16.297  69.958  1.00  0.00    -0.324 A  
HETATM   11  C   UNL     1     -12.385  14.146  70.031  1.00  0.00    -0.403 A  
HETATM   12  O   UNL     1     -11.547  12.352  68.754  1.00  0.00    -0.278 OA 
HETATM   13  C   UNL     1     -12.296  15.470  70.449  1.00  0.00    -0.451 A  
HETATM   14  H   UNL     1     -12.250  11.799  69.075  1.00  0.00     0.000 HD 
ENDROOT
BRANCH   7  15
HETATM   15  N   UNL     1      -6.351  17.091  67.183  1.00  0.00    -0.161 NA 
HETATM   16  C   UNL     1      -5.933  15.726  67.521  1.00  0.00    -0.117 C  
HETATM   17  C   UNL     1      -5.281  17.747  66.416  1.00  0.00    -0.174 C  
ENDBRANCH   7  15
TORSDOF 1
ENDMDL
MODEL       46
REMARK 921   NORMALIZED FREE ENERGY PREDICTED BY IDOCK:   -4.25 KCAL/MOL
REMARK 922        TOTAL FREE ENERGY PREDICTED BY IDOCK:   -4.63 KCAL/MOL
REMARK 923 INTER-LIGAND FREE ENERGY PREDICTED BY IDOCK:   -4.56 KCAL/MOL
REMARK 924 INTRA-LIGAND FREE ENERGY PREDICTED BY IDOCK:   -0.07 KCAL/MOL
REMARK 927      BINDING AFFINITY PREDICTED BY RF-SCORE:    0.00 PKD
ROOT
HETATM    1  C   UNL     1      -8.466  10.200  64.818  1.00  0.00    -0.180 C  
HETATM    2  C   UNL     1      -9.951  10.540  64.892  1.00  0.00    -0.401 C  
HETATM    3  C   UNL     1     -10.513  10.869  66.307  1.00  0.00    -0.304 C  
HETATM    4  C   UNL     1     -10.531   9.672  67.288  1.00  0.00    -0.323 A  
HETATM    5  C   UNL     1      -9.902  12.178  66.930  1.00  0.00    -0.213 C  
HETATM    6  C   UNL     1      -8.452  12.017  67.429  1.00  0.00    -0.170 C  
HETATM    7  C   UNL     1      -9.986  13.439  66.029  1.00  0.00    -0.293 C  
HETATM    8  C   UNL     1     -10.643   9.876  68.678  1.00  0.00    -0.244 A  
HETATM    9  C   UNL     1     -10.569   8.811  69.575  1.00  0.00    -0.219 A  
HETATM   10  C   UNL     1     -10.466   8.338  66.847  1.00  0.00    -0.365 A  
HETATM   11  C   UNL     1     -10.452   7.508  69.121  1.00  0.00    -0.220 A  
HETATM   12  O   UNL     1     -10.589   9.022  70.922  1.00  0.00    -0.213 OA 
HETATM   13  C   UNL     1     -10.420   7.269  67.752  1.00  0.00    -0.292 A  
HETATM   14  H   UNL     1     -10.538   8.295  71.533  1.00  0.00     0.000 HD 
ENDROOT
BRANCH   7  15
HETATM   15  N   UNL     1     -11.346  13.846  65.624  1.00  0.00    -0.305 NA 
HETATM   16  C   UNL     1     -12.255  13.956  66.771  1.00  0.00    -0.399 C  
HETATM   17  C   UNL     1     -11.277  15.145  64.936  1.00  0.00    -0.417 C  
ENDBRANCH   7  15
TORSDOF 1
ENDMDL
MODEL       47
REMARK 921   NORMALIZED FREE ENERGY PREDICTED BY IDOCK:   -4.20 KCAL/MOL
REMARK 922        TOTAL FREE ENERGY PREDICTED BY IDOCK:   -4.58 KCAL/MOL
REMARK 923 INTER-LIGAND FREE ENERGY PREDICTED BY IDOCK:   -4.50 KCAL/MOL
REMARK 924 INTRA-LIGAND FREE ENERGY PREDICTED BY IDOCK:   -0.09 KCAL/MOL
REMARK 927      BINDING AFFINITY PREDICTED BY RF-SCORE:    0.00 PKD
ROOT
HETATM    1  C   UNL     1     -11.665  13.994  65.096  1.00  0.00    -0.353 C  
HETATM    2  C   UNL     1     -12.083  12.666  65.719  1.00  0.00    -0.484 C  
HETATM    3  C   UNL     1     -10.929  11.739  66.204  1.00  0.00    -0.355 C  
HETATM    4  C   UNL     1     -10.047  11.161  65.071  1.00  0.00    -0.338 A  
HETATM    5  C   UNL     1     -10.098  12.349  67.392  1.00  0.00    -0.205 C  
HETATM    6  C   UNL     1      -9.146  13.487  66.972  1.00  0.00    -0.248 C  
HETATM    7  C   UNL     1     -10.936  12.818  68.611  1.00  0.00    -0.260 C  
HETATM    8  C   UNL     1      -8.770  10.632  65.344  1.00  0.00    -0.195 A  
HETATM    9  C   UNL     1      -7.934  10.193  64.319  1.00  0.00    -0.155 A  
HETATM   10  C   UNL     1     -10.481  11.109  63.734  1.00  0.00    -0.444 A  
HETATM   11  C   UNL     1      -8.360  10.199  63.002  1.00  0.00    -0.169 A  
HETATM   12  O   UNL     1      -6.665   9.765  64.580  1.00  0.00    -0.105 OA 
HETATM   13  C   UNL     1      -9.646  10.641  62.710  1.00  0.00    -0.333 A  
HETATM   14  H   UNL     1      -6.095   9.466  63.880  1.00  0.00     0.000 HD 
ENDROOT
BRANCH   7  15
HETATM   15  N   UNL     1     -11.762  11.779  69.258  1.00  0.00    -0.309 NA 
HETATM   16  C   UNL     1     -10.973  10.599  69.631  1.00  0.00    -0.278 C  
HETATM   17  C   UNL     1     -12.389  12.341  70.464  1.00  0.00    -0.264 C  
ENDBRANCH   7  15
TORSDOF 1
ENDMDL
MODEL       48
REMARK 921   NORMALIZED FREE ENERGY PREDICTED BY IDOCK:   -4.20 KCAL/MOL
REMARK 922        TOTAL FREE ENERGY PREDICTED BY IDOCK:   -4.58 KCAL/MOL
REMARK 923 INTER-LIGAND FREE ENERGY PREDICTED BY IDOCK:   -4.47 KCAL/MOL
REMARK 924 INTRA-LIGAND FREE ENERGY PREDICTED BY IDOCK:   -0.11 KCAL/MOL
REMARK 927      BINDING AFFINITY PREDICTED BY RF-SCORE:    0.00 PKD
ROOT
HETATM    1  C   UNL     1     -12.771  13.695  65.462  1.00  0.00    -0.514 C  
HETATM    2  C   UNL     1     -11.376  13.486  64.881  1.00  0.00    -0.347 C  
HETATM    3  C   UNL     1     -10.180  13.816  65.823  1.00  0.00    -0.322 C  
HETATM    4  C   UNL     1     -10.030  15.315  66.174  1.00  0.00    -0.325 A  
HETATM    5  C   UNL     1     -10.098  12.869  67.078  1.00  0.00    -0.245 C  
HETATM    6  C   UNL     1     -11.162  13.163  68.154  1.00  0.00    -0.304 C  
HETATM    7  C   UNL     1     -10.108  11.351  66.761  1.00  0.00    -0.216 C  
HETATM    8  C   UNL     1      -9.263  15.727  67.283  1.00  0.00    -0.217 A  
HETATM    9  C   UNL     1      -9.196  17.068  67.658  1.00  0.00    -0.233 A  
HETATM   10  C   UNL     1     -10.618  16.331  65.399  1.00  0.00    -0.371 A  
HETATM   11  C   UNL     1      -9.828  18.047  66.911  1.00  0.00    -0.330 A  
HETATM   12  O   UNL     1      -8.527  17.452  68.783  1.00  0.00    -0.276 OA 
HETATM   13  C   UNL     1     -10.525  17.680  65.766  1.00  0.00    -0.208 A  
HETATM   14  H   UNL     1      -8.481  18.366  69.039  1.00  0.00     0.000 HD 
ENDROOT
BRANCH   7  15
HETATM   15  N   UNL     1      -9.018  10.871  65.889  1.00  0.00    -0.187 NA 
HETATM   16  C   UNL     1      -7.695  11.110  66.477  1.00  0.00    -0.146 C  
HETATM   17  C   UNL     1      -9.187   9.429  65.650  1.00  0.00    -0.226 C  
ENDBRANCH   7  15
TORSDOF 1
ENDMDL
MODEL       49
REMARK 921   NORMALIZED FREE ENERGY PREDICTED BY IDOCK:   -4.16 KCAL/MOL
REMARK 922        TOTAL FREE ENERGY PREDICTED BY IDOCK:   -4.53 KCAL/MOL
REMARK 923 INTER-LIGAND FREE ENERGY PREDICTED BY IDOCK:   -4.40 KCAL/MOL
REMARK 924 INTRA-LIGAND FREE ENERGY PREDICTED BY IDOCK:   -0.13 KCAL/MOL
REMARK 927      BINDING AFFINITY PREDICTED BY RF-SCORE:    0.00 PKD
ROOT
HETATM    1  C   UNL     1      -8.679   8.160  67.062  1.00  0.00    -0.136 C  
HETATM    2  C   UNL     1     -10.162   8.517  67.006  1.00  0.00    -0.371 C  
HETATM    3  C   UNL     1     -10.804   9.007  68.338  1.00  0.00    -0.062 C  
HETATM    4  C   UNL     1     -10.897   7.929  69.444  1.00  0.00    -0.114 A  
HETATM    5  C   UNL     1     -10.213  10.374  68.846  1.00  0.00    -0.220 C  
HETATM    6  C   UNL     1      -8.798  10.260  69.449  1.00  0.00    -0.177 C  
HETATM    7  C   UNL     1     -10.226  11.526  67.807  1.00  0.00    -0.182 C  
HETATM    8  C   UNL     1     -11.090   8.288  70.792  1.00  0.00    -0.280 A  
HETATM    9  C   UNL     1     -11.085   7.330  71.805  1.00  0.00    -0.235 A  
HETATM   10  C   UNL     1     -10.824   6.553  69.160  1.00  0.00    -0.354 A  
HETATM   11  C   UNL     1     -10.958   5.984  71.508  1.00  0.00    -0.335 A  
HETATM   12  O   UNL     1     -11.183   7.691  73.117  1.00  0.00    -0.524 OA 
HETATM   13  C   UNL     1     -10.847   5.592  70.179  1.00  0.00    -0.356 A  
HETATM   14  H   UNL     1     -11.180   7.037  73.807  1.00  0.00     0.000 HD 
ENDROOT
BRANCH   7  15
HETATM   15  N   UNL     1     -11.553  11.894  67.275  1.00  0.00    -0.506 NA 
HETATM   16  C   UNL     1     -12.106  13.078  67.942  1.00  0.00    -0.186 C  
HETATM   17  C   UNL     1     -11.439  12.162  65.833  1.00  0.00    -0.363 C  
ENDBRANCH   7  15
TORSDOF 1
ENDMDL
MODEL       50
REMARK 921   NORMALIZED FREE ENERGY PREDICTED BY IDOCK:   -4.15 KCAL/MOL
REMARK 922        TOTAL FREE ENERGY PREDICTED BY IDOCK:   -4.53 KCAL/MOL
REMARK 923 INTER-LIGAND FREE ENERGY PREDICTED BY IDOCK:   -4.39 KCAL/MOL
REMARK 924 INTRA-LIGAND FREE ENERGY PREDICTED BY IDOCK:   -0.14 KCAL/MOL
REMARK 927      BINDING AFFINITY PREDICTED BY RF-SCORE:    0.00 PKD
ROOT
HETATM    1  C   UNL     1     -10.133  15.252  65.854  1.00  0.00    -0.359 C  
HETATM    2  C   UNL     1      -8.722  15.687  66.236  1.00  0.00    -0.325 C  
HETATM    3  C   UNL     1      -8.582  16.480  67.570  1.00  0.00    -0.188 C  
HETATM    4  C   UNL     1      -9.230  17.886  67.555  1.00  0.00    -0.249 A  
HETATM    5  C   UNL     1      -8.959  15.632  68.840  1.00  0.00    -0.221 C  
HETATM    6  C   UNL     1     -10.474  15.403  69.014  1.00  0.00    -0.249 C  
HETATM    7  C   UNL     1      -8.227  14.270  68.965  1.00  0.00     0.020 C  
HETATM    8  C   UNL     1      -9.523  18.561  68.756  1.00  0.00    -0.334 A  
HETATM    9  C   UNL     1     -10.188  19.787  68.754  1.00  0.00    -0.367 A  
HETATM   10  C   UNL     1      -9.528  18.563  66.359  1.00  0.00    -0.304 A  
HETATM   11  C   UNL     1     -10.520  20.412  67.564  1.00  0.00    -0.217 A  
HETATM   12  O   UNL     1     -10.549  20.395  69.921  1.00  0.00    -0.624 OA 
HETATM   13  C   UNL     1     -10.172  19.807  66.362  1.00  0.00    -0.614 A  
HETATM   14  H   UNL     1     -11.002  21.230  69.919  1.00  0.00     0.000 HD 
ENDROOT
BRANCH   7  15
HETATM   15  N   UNL     1      -6.754  14.337  69.013  1.00  0.00    -0.100 NA 
HETATM   16  C   UNL     1      -6.239  14.182  70.379  1.00  0.00    -0.149 C  
HETATM   17  C   UNL     1      -6.193  13.275  68.164  1.00  0.00    -0.111 C  
ENDBRANCH   7  15
TORSDOF 1
ENDMDL
MODEL       51
REMARK 921   NORMALIZED FREE ENERGY PREDICTED BY IDOCK:   -4.14 KCAL/MOL
REMARK 922        TOTAL FREE ENERGY PREDICTED BY IDOCK:   -4.52 KCAL/MOL
REMARK 923 INTER-LIGAND FREE ENERGY PREDICTED BY IDOCK:   -4.40 KCAL/MOL
REMARK 924 INTRA-LIGAND FREE ENERGY PREDICTED BY IDOCK:   -0.11 KCAL/MOL
REMARK 927      BINDING AFFINITY PREDICTED BY RF-SCORE:    0.00 PKD
ROOT
HETATM    1  C   UNL     1      -9.992  12.962  65.345  1.00  0.00    -0.208 C  
HETATM    2  C   UNL     1      -9.406  12.700  66.729  1.00  0.00    -0.232 C  
HETATM    3  C   UNL     1      -9.907  13.626  67.877  1.00  0.00    -0.237 C  
HETATM    4  C   UNL     1      -9.470  15.105  67.749  1.00  0.00    -0.194 A  
HETATM    5  C   UNL     1     -11.438  13.452  68.192  1.00  0.00    -0.339 C  
HETATM    6  C   UNL     1     -12.371  14.081  67.137  1.00  0.00    -0.234 C  
HETATM    7  C   UNL     1     -11.895  11.995  68.463  1.00  0.00    -0.311 C  
HETATM    8  C   UNL     1     -10.131  16.121  68.467  1.00  0.00    -0.241 A  
HETATM    9  C   UNL     1      -9.803  17.465  68.289  1.00  0.00    -0.310 A  
HETATM   10  C   UNL     1      -8.387  15.502  66.943  1.00  0.00    -0.290 A  
HETATM   11  C   UNL     1      -8.768  17.838  67.449  1.00  0.00    -0.235 A  
HETATM   12  O   UNL     1     -10.506  18.451  68.918  1.00  0.00    -0.436 OA 
HETATM   13  C   UNL     1      -8.044  16.851  66.789  1.00  0.00    -0.276 A  
HETATM   14  H   UNL     1     -10.282  19.366  68.796  1.00  0.00     0.000 HD 
ENDROOT
BRANCH   7  15
HETATM   15  N   UNL     1     -11.226  11.312  69.587  1.00  0.00    -0.262 NA 
HETATM   16  C   UNL     1     -12.178  10.893  70.623  1.00  0.00    -0.376 C  
HETATM   17  C   UNL     1     -10.513  10.130  69.081  1.00  0.00    -0.222 C  
ENDBRANCH   7  15
TORSDOF 1
ENDMDL
MODEL       52
REMARK 921   NORMALIZED FREE ENERGY PREDICTED BY IDOCK:   -4.10 KCAL/MOL
REMARK 922        TOTAL FREE ENERGY PREDICTED BY IDOCK:   -4.47 KCAL/MOL
REMARK 923 INTER-LIGAND FREE ENERGY PREDICTED BY IDOCK:   -4.34 KCAL/MOL
REMARK 924 INTRA-LIGAND FREE ENERGY PREDICTED BY IDOCK:   -0.13 KCAL/MOL
REMARK 927      BINDING AFFINITY PREDICTED BY RF-SCORE:    0.00 PKD
ROOT
HETATM    1  C   UNL     1      -8.148  10.283  68.301  1.00  0.00    -0.107 C  
HETATM    2  C   UNL     1      -9.222   9.278  67.892  1.00  0.00    -0.140 C  
HETATM    3  C   UNL     1      -9.702   9.347  66.411  1.00  0.00    -0.315 C  
HETATM    4  C   UNL     1     -10.479  10.634  66.044  1.00  0.00    -0.250 A  
HETATM    5  C   UNL     1      -8.575   8.981  65.375  1.00  0.00    -0.200 C  
HETATM    6  C   UNL     1      -7.512  10.082  65.190  1.00  0.00    -0.139 C  
HETATM    7  C   UNL     1      -7.861   7.627  65.628  1.00  0.00    -0.109 C  
HETATM    8  C   UNL     1     -10.645  11.022  64.700  1.00  0.00    -0.369 A  
HETATM    9  C   UNL     1     -11.265  12.226  64.365  1.00  0.00    -0.334 A  
HETATM   10  C   UNL     1     -11.075  11.455  67.019  1.00  0.00    -0.364 A  
HETATM   11  C   UNL     1     -11.798  13.046  65.344  1.00  0.00    -0.428 A  
HETATM   12  O   UNL     1     -11.344  12.639  63.068  1.00  0.00    -0.753 OA 
HETATM   13  C   UNL     1     -11.721  12.650  66.674  1.00  0.00    -0.464 A  
HETATM   14  H   UNL     1     -11.767  13.460  62.840  1.00  0.00     0.000 HD 
ENDROOT
BRANCH   7  15
HETATM   15  N   UNL     1      -8.731   6.435  65.637  1.00  0.00    -0.133 NA 
HETATM   16  C   UNL     1      -8.396   5.500  64.556  1.00  0.00    -0.127 C  
HETATM   17  C   UNL     1      -8.596   5.746  66.929  1.00  0.00    -0.111 C  
ENDBRANCH   7  15
TORSDOF 1
ENDMDL
MODEL       53
REMARK 921   NORMALIZED FREE ENERGY PREDICTED BY IDOCK:   -4.05 KCAL/MOL
REMARK 922        TOTAL FREE ENERGY PREDICTED BY IDOCK:   -4.43 KCAL/MOL
REMARK 923 INTER-LIGAND FREE ENERGY PREDICTED BY IDOCK:   -4.31 KCAL/MOL
REMARK 924 INTRA-LIGAND FREE ENERGY PREDICTED BY IDOCK:   -0.12 KCAL/MOL
REMARK 927      BINDING AFFINITY PREDICTED BY RF-SCORE:    0.00 PKD
ROOT
HETATM    1  C   UNL     1     -11.082   6.388  67.899  1.00  0.00    -0.370 C  
HETATM    2  C   UNL     1      -9.837   6.902  68.616  1.00  0.00    -0.145 C  
HETATM    3  C   UNL     1     -10.082   7.790  69.872  1.00  0.00    -0.203 C  
HETATM    4  C   UNL     1     -10.725   9.166  69.573  1.00  0.00    -0.226 A  
HETATM    5  C   UNL     1     -10.779   7.018  71.053  1.00  0.00    -0.256 C  
HETATM    6  C   UNL     1     -12.279   6.746  70.825  1.00  0.00    -0.353 C  
HETATM    7  C   UNL     1     -10.086   5.696  71.477  1.00  0.00    -0.201 C  
HETATM    8  C   UNL     1     -11.348   9.912  70.594  1.00  0.00    -0.413 A  
HETATM    9  C   UNL     1     -12.007  11.109  70.316  1.00  0.00    -0.373 A  
HETATM   10  C   UNL     1     -10.695   9.747  68.293  1.00  0.00    -0.277 A  
HETATM   11  C   UNL     1     -12.012  11.637  69.037  1.00  0.00    -0.368 A  
HETATM   12  O   UNL     1     -12.685  11.781  71.291  1.00  0.00    -0.387 OA 
HETATM   13  C   UNL     1     -11.337  10.964  68.025  1.00  0.00    -0.382 A  
HETATM   14  H   UNL     1     -13.135  12.597  71.101  1.00  0.00     0.000 HD 
ENDROOT
BRANCH   7  15
HETATM   15  N   UNL     1      -8.684   5.822  71.920  1.00  0.00    -0.135 NA 
HETATM   16  C   UNL     1      -8.580   6.354  73.283  1.00  0.00    -0.121 C  
HETATM   17  C   UNL     1      -8.040   4.500  71.867  1.00  0.00    -0.100 C  
ENDBRANCH   7  15
TORSDOF 1
ENDMDL
MODEL       54
REMARK 921   NORMALIZED FREE ENERGY PREDICTED BY IDOCK:   -4.05 KCAL/MOL
REMARK 922        TOTAL FREE ENERGY PREDICTED BY IDOCK:   -4.43 KCAL/MOL
REMARK 923 INTER-LIGAND FREE ENERGY PREDICTED BY IDOCK:   -4.36 KCAL/MOL
REMARK 924 INTRA-LIGAND FREE ENERGY PREDICTED BY IDOCK:   -0.06 KCAL/MOL
REMARK 927      BINDING AFFINITY PREDICTED BY RF-SCORE:    0.00 PKD
ROOT
HETATM    1  C   UNL     1      -8.912   8.330  68.846  1.00  0.00    -0.144 C  
HETATM    2  C   UNL     1     -10.407   8.066  68.999  1.00  0.00    -0.228 C  
HETATM    3  C   UNL     1     -10.853   7.376  70.323  1.00  0.00    -0.260 C  
HETATM    4  C   UNL     1     -10.372   5.914  70.483  1.00  0.00    -0.297 A  
HETATM    5  C   UNL     1     -10.600   8.260  71.600  1.00  0.00    -0.306 C  
HETATM    6  C   UNL     1      -9.119   8.344  72.021  1.00  0.00    -0.296 C  
HETATM    7  C   UNL     1     -11.187   9.695  71.537  1.00  0.00    -0.307 C  
HETATM    8  C   UNL     1     -10.359   5.289  71.746  1.00  0.00    -0.277 A  
HETATM    9  C   UNL     1      -9.843   4.004  71.912  1.00  0.00    -0.177 A  
HETATM   10  C   UNL     1      -9.957   5.136  69.387  1.00  0.00    -0.292 A  
HETATM   11  C   UNL     1      -9.389   3.275  70.827  1.00  0.00    -0.223 A  
HETATM   12  O   UNL     1      -9.750   3.438  73.150  1.00  0.00    -0.108 OA 
HETATM   13  C   UNL     1      -9.464   3.835  69.557  1.00  0.00    -0.257 A  
HETATM   14  H   UNL     1      -9.399   2.562  73.263  1.00  0.00     0.000 HD 
ENDROOT
BRANCH   7  15
HETATM   15  N   UNL     1     -12.646   9.782  71.334  1.00  0.00    -0.357 NA 
HETATM   16  C   UNL     1     -13.386   8.931  72.275  1.00  0.00    -0.449 C  
HETATM   17  C   UNL     1     -13.077  11.178  71.506  1.00  0.00    -0.385 C  
ENDBRANCH   7  15
TORSDOF 1
ENDMDL
MODEL       55
REMARK 921   NORMALIZED FREE ENERGY PREDICTED BY IDOCK:   -4.03 KCAL/MOL
REMARK 922        TOTAL FREE ENERGY PREDICTED BY IDOCK:   -4.40 KCAL/MOL
REMARK 923 INTER-LIGAND FREE ENERGY PREDICTED BY IDOCK:   -4.28 KCAL/MOL
REMARK 924 INTRA-LIGAND FREE ENERGY PREDICTED BY IDOCK:   -0.12 KCAL/MOL
REMARK 927      BINDING AFFINITY PREDICTED BY RF-SCORE:    0.00 PKD
ROOT
HETATM    1  C   UNL     1      -9.973   8.876  71.339  1.00  0.00    -0.378 C  
HETATM    2  C   UNL     1     -10.904   8.789  70.134  1.00  0.00    -0.241 C  
HETATM    3  C   UNL     1     -11.032  10.078  69.268  1.00  0.00    -0.264 C  
HETATM    4  C   UNL     1     -11.728  11.265  69.976  1.00  0.00    -0.428 A  
HETATM    5  C   UNL     1      -9.691  10.478  68.549  1.00  0.00    -0.170 C  
HETATM    6  C   UNL     1      -8.634  11.091  69.490  1.00  0.00     0.328 C  
HETATM    7  C   UNL     1      -9.028   9.352  67.712  1.00  0.00    -0.122 C  
HETATM    8  C   UNL     1     -11.588  12.581  69.492  1.00  0.00    -0.348 A  
HETATM    9  C   UNL     1     -12.137  13.666  70.175  1.00  0.00    -0.361 A  
HETATM   10  C   UNL     1     -12.548  11.090  71.105  1.00  0.00    -0.522 A  
HETATM   11  C   UNL     1     -12.896  13.476  71.316  1.00  0.00    -0.420 A  
HETATM   12  O   UNL     1     -11.923  14.945  69.752  1.00  0.00    -0.291 OA 
HETATM   13  C   UNL     1     -13.119  12.181  71.772  1.00  0.00    -0.457 A  
HETATM   14  H   UNL     1     -12.297  15.684  70.217  1.00  0.00     0.000 HD 
ENDROOT
BRANCH   7  15
HETATM   15  N   UNL     1      -9.854   8.791  66.626  1.00  0.00    -0.241 NA 
HETATM   16  C   UNL     1      -9.804   9.614  65.412  1.00  0.00    -0.252 C  
HETATM   17  C   UNL     1      -9.380   7.435  66.308  1.00  0.00    -0.111 C  
ENDBRANCH   7  15
TORSDOF 1
ENDMDL
MODEL       56
REMARK 921   NORMALIZED FREE ENERGY PREDICTED BY IDOCK:   -4.01 KCAL/MOL
REMARK 922        TOTAL FREE ENERGY PREDICTED BY IDOCK:   -4.38 KCAL/MOL
REMARK 923 INTER-LIGAND FREE ENERGY PREDICTED BY IDOCK:   -4.24 KCAL/MOL
REMARK 924 INTRA-LIGAND FREE ENERGY PREDICTED BY IDOCK:   -0.14 KCAL/MOL
REMARK 927      BINDING AFFINITY PREDICTED BY RF-SCORE:    0.00 PKD
ROOT
HETATM    1  C   UNL     1     -11.864  15.356  68.780  1.00  0.00    -0.339 C  
HETATM    2  C   UNL     1     -10.372  15.139  69.014  1.00  0.00    -0.244 C  
HETATM    3  C   UNL     1      -9.595  14.409  67.878  1.00  0.00    -0.219 C  
HETATM    4  C   UNL     1      -9.987  12.925  67.679  1.00  0.00    -0.218 A  
HETATM    5  C   UNL     1      -9.544  15.228  66.535  1.00  0.00    -0.294 C  
HETATM    6  C   UNL     1     -10.876  15.240  65.758  1.00  0.00    -0.363 C  
HETATM    7  C   UNL     1      -9.025  16.683  66.669  1.00  0.00    -0.255 C  
HETATM    8  C   UNL     1      -9.671  12.246  66.485  1.00  0.00    -0.242 A  
HETATM    9  C   UNL     1     -10.099  10.938  66.261  1.00  0.00    -0.233 A  
HETATM   10  C   UNL     1     -10.643  12.181  68.676  1.00  0.00    -0.248 A  
HETATM   11  C   UNL     1     -10.791  10.241  67.236  1.00  0.00    -0.312 A  
HETATM   12  O   UNL     1      -9.869  10.316  65.069  1.00  0.00    -0.287 OA 
HETATM   13  C   UNL     1     -11.047  10.858  68.456  1.00  0.00    -0.311 A  
HETATM   14  H   UNL     1     -10.161   9.424  64.917  1.00  0.00     0.000 HD 
ENDROOT
BRANCH   7  15
HETATM   15  N   UNL     1      -7.664  16.830  67.221  1.00  0.00    -0.162 NA 
HETATM   16  C   UNL     1      -6.710  17.312  66.215  1.00  0.00    -0.234 C  
HETATM   17  C   UNL     1      -7.697  17.777  68.346  1.00  0.00    -0.278 C  
ENDBRANCH   7  15
TORSDOF 1
ENDMDL
MODEL       57
REMARK 921   NORMALIZED FREE ENERGY PREDICTED BY IDOCK:   -3.98 KCAL/MOL
REMARK 922        TOTAL FREE ENERGY PREDICTED BY IDOCK:   -4.35 KCAL/MOL
REMARK 923 INTER-LIGAND FREE ENERGY PREDICTED BY IDOCK:   -4.23 KCAL/MOL
REMARK 924 INTRA-LIGAND FREE ENERGY PREDICTED BY IDOCK:   -0.12 KCAL/MOL
REMARK 927      BINDING AFFINITY PREDICTED BY RF-SCORE:    0.00 PKD
ROOT
HETATM    1  C   UNL     1     -10.746  17.375  66.727  1.00  0.00    -0.100 C  
HETATM    2  C   UNL     1      -9.936  16.443  65.831  1.00  0.00    -0.358 C  
HETATM    3  C   UNL     1      -9.374  15.156  66.505  1.00  0.00    -0.308 C  
HETATM    4  C   UNL     1      -8.282  15.410  67.572  1.00  0.00    -0.187 A  
HETATM    5  C   UNL     1     -10.498  14.165  66.985  1.00  0.00    -0.271 C  
HETATM    6  C   UNL     1     -11.243  14.629  68.254  1.00  0.00    -0.301 C  
HETATM    7  C   UNL     1     -11.540  13.774  65.904  1.00  0.00    -0.333 C  
HETATM    8  C   UNL     1      -7.952  14.422  68.521  1.00  0.00    -0.144 A  
HETATM    9  C   UNL     1      -7.035  14.675  69.540  1.00  0.00    -0.165 A  
HETATM   10  C   UNL     1      -7.554  16.612  67.630  1.00  0.00    -0.170 A  
HETATM   11  C   UNL     1      -6.368  15.886  69.611  1.00  0.00    -0.186 A  
HETATM   12  O   UNL     1      -6.784  13.747  70.509  1.00  0.00    -0.387 OA 
HETATM   13  C   UNL     1      -6.614  16.851  68.641  1.00  0.00    -0.173 A  
HETATM   14  H   UNL     1      -6.159  13.920  71.203  1.00  0.00     0.000 HD 
ENDROOT
BRANCH   7  15
HETATM   15  N   UNL     1     -10.996  13.127  64.695  1.00  0.00    -0.336 NA 
HETATM   16  C   UNL     1     -10.651  11.720  64.929  1.00  0.00    -0.294 C  
HETATM   17  C   UNL     1     -11.991  13.207  63.614  1.00  0.00    -0.514 C  
ENDBRANCH   7  15
TORSDOF 1
ENDMDL
MODEL       58
REMARK 921   NORMALIZED FREE ENERGY PREDICTED BY IDOCK:   -3.95 KCAL/MOL
REMARK 922        TOTAL FREE ENERGY PREDICTED BY IDOCK:   -4.32 KCAL/MOL
REMARK 923 INTER-LIGAND FREE ENERGY PREDICTED BY IDOCK:   -4.18 KCAL/MOL
REMARK 924 INTRA-LIGAND FREE ENERGY PREDICTED BY IDOCK:   -0.13 KCAL/MOL
REMARK 927      BINDING AFFINITY PREDICTED BY RF-SCORE:    0.00 PKD
ROOT
HETATM    1  C   UNL     1     -11.796  13.684  68.102  1.00  0.00    -0.407 C  
HETATM    2  C   UNL     1     -11.300  14.209  66.758  1.00  0.00    -0.353 C  
HETATM    3  C   UNL     1      -9.795  13.968  66.436  1.00  0.00    -0.306 C  
HETATM    4  C   UNL     1      -8.810  14.753  67.335  1.00  0.00    -0.203 A  
HETATM    5  C   UNL     1      -9.428  12.445  66.287  1.00  0.00    -0.220 C  
HETATM    6  C   UNL     1      -9.371  11.680  67.624  1.00  0.00    -0.178 C  
HETATM    7  C   UNL     1     -10.308  11.649  65.288  1.00  0.00    -0.269 C  
HETATM    8  C   UNL     1      -7.457  14.371  67.432  1.00  0.00    -0.183 A  
HETATM    9  C   UNL     1      -6.584  15.016  68.308  1.00  0.00    -0.113 A  
HETATM   10  C   UNL     1      -9.202  15.887  68.068  1.00  0.00    -0.192 A  
HETATM   11  C   UNL     1      -7.005  16.099  69.061  1.00  0.00    -0.178 A  
HETATM   12  O   UNL     1      -5.299  14.586  68.465  1.00  0.00    -0.090 OA 
HETATM   13  C   UNL     1      -8.313  16.549  68.926  1.00  0.00    -0.241 A  
HETATM   14  H   UNL     1      -4.704  15.026  69.061  1.00  0.00     0.000 HD 
ENDROOT
BRANCH   7  15
HETATM   15  N   UNL     1     -10.311  12.146  63.898  1.00  0.00    -0.381 NA 
HETATM   16  C   UNL     1      -9.753  11.166  62.960  1.00  0.00    -0.359 C  
HETATM   17  C   UNL     1     -11.691  12.464  63.500  1.00  0.00    -0.510 C  
ENDBRANCH   7  15
TORSDOF 1
ENDMDL
MODEL       59
REMARK 921   NORMALIZED FREE ENERGY PREDICTED BY IDOCK:   -3.92 KCAL/MOL
REMARK 922        TOTAL FREE ENERGY PREDICTED BY IDOCK:   -4.29 KCAL/MOL
REMARK 923 INTER-LIGAND FREE ENERGY PREDICTED BY IDOCK:   -4.23 KCAL/MOL
REMARK 924 INTRA-LIGAND FREE ENERGY PREDICTED BY IDOCK:   -0.06 KCAL/MOL
REMARK 927      BINDING AFFINITY PREDICTED BY RF-SCORE:    0.00 PKD
ROOT
HETATM    1  C   UNL     1     -10.234   5.425  67.205  1.00  0.00    -0.258 C  
HETATM    2  C   UNL     1     -11.086   6.691  67.225  1.00  0.00    -0.418 C  
HETATM    3  C   UNL     1     -10.571   7.854  68.124  1.00  0.00    -0.179 C  
HETATM    4  C   UNL     1     -10.609   7.561  69.643  1.00  0.00    -0.243 A  
HETATM    5  C   UNL     1      -9.200   8.455  67.638  1.00  0.00    -0.147 C  
HETATM    6  C   UNL     1      -7.983   7.553  67.928  1.00  0.00    -0.119 C  
HETATM    7  C   UNL     1      -9.161   8.890  66.150  1.00  0.00    -0.217 C  
HETATM    8  C   UNL     1      -9.847   8.326  70.549  1.00  0.00    -0.197 A  
HETATM    9  C   UNL     1      -9.806   8.012  71.907  1.00  0.00    -0.191 A  
HETATM   10  C   UNL     1     -11.416   6.548  70.193  1.00  0.00    -0.477 A  
HETATM   11  C   UNL     1     -10.568   6.976  72.419  1.00  0.00    -0.252 A  
HETATM   12  O   UNL     1      -8.998   8.700  72.764  1.00  0.00    -0.356 OA 
HETATM   13  C   UNL     1     -11.391   6.254  71.562  1.00  0.00    -0.352 A  
HETATM   14  H   UNL     1      -8.970   8.485  73.690  1.00  0.00     0.000 HD 
ENDROOT
BRANCH   7  15
HETATM   15  N   UNL     1     -10.151   9.912  65.755  1.00  0.00    -0.276 NA 
HETATM   16  C   UNL     1     -10.153  11.060  66.669  1.00  0.00    -0.220 C  
HETATM   17  C   UNL     1      -9.847  10.380  64.394  1.00  0.00    -0.328 C  
ENDBRANCH   7  15
TORSDOF 1
ENDMDL
MODEL       60
REMARK 921   NORMALIZED FREE ENERGY PREDICTED BY IDOCK:   -3.92 KCAL/MOL
REMARK 922        TOTAL FREE ENERGY PREDICTED BY IDOCK:   -4.28 KCAL/MOL
REMARK 923 INTER-LIGAND FREE ENERGY PREDICTED BY IDOCK:   -4.16 KCAL/MOL
REMARK 924 INTRA-LIGAND FREE ENERGY PREDICTED BY IDOCK:   -0.12 KCAL/MOL
REMARK 927      BINDING AFFINITY PREDICTED BY RF-SCORE:    0.00 PKD
ROOT
HETATM    1  C   UNL     1      -8.756  12.816  68.244  1.00  0.00    -0.168 C  
HETATM    2  C   UNL     1      -8.699  12.866  66.720  1.00  0.00    -0.112 C  
HETATM    3  C   UNL     1      -9.347  11.667  65.966  1.00  0.00    -0.241 C  
HETATM    4  C   UNL     1      -8.614  10.317  66.151  1.00  0.00    -0.146 A  
HETATM    5  C   UNL     1     -10.903  11.568  66.178  1.00  0.00    -0.330 C  
HETATM    6  C   UNL     1     -11.314  11.048  67.570  1.00  0.00    -0.332 C  
HETATM    7  C   UNL     1     -11.695  12.866  65.870  1.00  0.00    -0.399 C  
HETATM    8  C   UNL     1      -9.258   9.097  65.864  1.00  0.00    -0.286 A  
HETATM    9  C   UNL     1      -8.637   7.874  66.114  1.00  0.00    -0.150 A  
HETATM   10  C   UNL     1      -7.277  10.240  66.581  1.00  0.00    -0.109 A  
HETATM   11  C   UNL     1      -7.338   7.821  66.588  1.00  0.00    -0.088 A  
HETATM   12  O   UNL     1      -9.297   6.696  65.918  1.00  0.00    -0.369 OA 
HETATM   13  C   UNL     1      -6.648   9.008  66.804  1.00  0.00    -0.064 A  
HETATM   14  H   UNL     1      -8.873   5.862  66.089  1.00  0.00     0.000 HD 
ENDROOT
BRANCH   7  15
HETATM   15  N   UNL     1     -11.561  13.387  64.496  1.00  0.00    -0.355 NA 
HETATM   16  C   UNL     1     -12.122  12.468  63.499  1.00  0.00    -0.562 C  
HETATM   17  C   UNL     1     -12.253  14.682  64.401  1.00  0.00    -0.452 C  
ENDBRANCH   7  15
TORSDOF 1
ENDMDL
MODEL       61
REMARK 921   NORMALIZED FREE ENERGY PREDICTED BY IDOCK:   -3.90 KCAL/MOL
REMARK 922        TOTAL FREE ENERGY PREDICTED BY IDOCK:   -4.26 KCAL/MOL
REMARK 923 INTER-LIGAND FREE ENERGY PREDICTED BY IDOCK:   -4.14 KCAL/MOL
REMARK 924 INTRA-LIGAND FREE ENERGY PREDICTED BY IDOCK:   -0.12 KCAL/MOL
REMARK 927      BINDING AFFINITY PREDICTED BY RF-SCORE:    0.00 PKD
ROOT
HETATM    1  C   UNL     1     -11.624  13.438  67.257  1.00  0.00    -0.400 C  
HETATM    2  C   UNL     1     -11.147  13.078  68.661  1.00  0.00    -0.305 C  
HETATM    3  C   UNL     1     -10.467  14.221  69.472  1.00  0.00     0.027 C  
HETATM    4  C   UNL     1      -9.103  14.688  68.909  1.00  0.00    -0.148 A  
HETATM    5  C   UNL     1     -11.443  15.408  69.811  1.00  0.00    -0.338 C  
HETATM    6  C   UNL     1     -11.768  16.315  68.607  1.00  0.00    -0.113 C  
HETATM    7  C   UNL     1     -12.769  14.996  70.503  1.00  0.00    -0.357 C  
HETATM    8  C   UNL     1      -8.553  15.931  69.282  1.00  0.00    -0.247 A  
HETATM    9  C   UNL     1      -7.370  16.399  68.711  1.00  0.00    -0.203 A  
HETATM   10  C   UNL     1      -8.342  13.896  68.032  1.00  0.00    -0.166 A  
HETATM   11  C   UNL     1      -6.662  15.624  67.808  1.00  0.00    -0.180 A  
HETATM   12  O   UNL     1      -6.887  17.640  69.008  1.00  0.00    -0.231 OA 
HETATM   13  C   UNL     1      -7.140  14.360  67.482  1.00  0.00    -0.197 A  
HETATM   14  H   UNL     1      -6.081  17.958  68.618  1.00  0.00     0.000 HD 
ENDROOT
BRANCH   7  15
HETATM   15  N   UNL     1     -12.625  14.282  71.787  1.00  0.00    -0.341 NA 
HETATM   16  C   UNL     1     -11.997  15.119  72.817  1.00  0.00    -0.377 C  
HETATM   17  C   UNL     1     -13.954  13.857  72.256  1.00  0.00    -0.565 C  
ENDBRANCH   7  15
TORSDOF 1
ENDMDL
MODEL       62
REMARK 921   NORMALIZED FREE ENERGY PREDICTED BY IDOCK:   -3.86 KCAL/MOL
REMARK 922        TOTAL FREE ENERGY PREDICTED BY IDOCK:   -4.22 KCAL/MOL
REMARK 923 INTER-LIGAND FREE ENERGY PREDICTED BY IDOCK:   -4.10 KCAL/MOL
REMARK 924 INTRA-LIGAND FREE ENERGY PREDICTED BY IDOCK:   -0.12 KCAL/MOL
REMARK 927      BINDING AFFINITY PREDICTED BY RF-SCORE:    0.00 PKD
ROOT
HETATM    1  C   UNL     1     -12.210  13.533  66.489  1.00  0.00    -0.433 C  
HETATM    2  C   UNL     1     -12.030  13.023  67.915  1.00  0.00    -0.338 C  
HETATM    3  C   UNL     1     -10.789  13.560  68.689  1.00  0.00    -0.281 C  
HETATM    4  C   UNL     1      -9.426  13.084  68.131  1.00  0.00    -0.218 A  
HETATM    5  C   UNL     1     -10.847  15.109  68.958  1.00  0.00    -0.242 C  
HETATM    6  C   UNL     1     -10.574  15.973  67.710  1.00  0.00    -0.309 C  
HETATM    7  C   UNL     1     -12.145  15.612  69.643  1.00  0.00    -0.308 C  
HETATM    8  C   UNL     1      -8.233  13.758  68.460  1.00  0.00    -0.124 A  
HETATM    9  C   UNL     1      -7.014  13.391  67.891  1.00  0.00    -0.141 A  
HETATM   10  C   UNL     1      -9.307  11.953  67.303  1.00  0.00    -0.177 A  
HETATM   11  C   UNL     1      -6.928  12.306  67.035  1.00  0.00    -0.036 A  
HETATM   12  O   UNL     1      -5.878  14.102  68.142  1.00  0.00    -0.108 OA 
HETATM   13  C   UNL     1      -8.075  11.572  66.755  1.00  0.00    -0.158 A  
HETATM   14  H   UNL     1      -5.047  13.852  67.754  1.00  0.00     0.000 HD 
ENDROOT
BRANCH   7  15
HETATM   15  N   UNL     1     -12.447  15.016  70.959  1.00  0.00    -0.310 NA 
HETATM   16  C   UNL     1     -11.639  15.608  72.032  1.00  0.00    -0.450 C  
HETATM   17  C   UNL     1     -13.872  15.212  71.265  1.00  0.00    -0.472 C  
ENDBRANCH   7  15
TORSDOF 1
ENDMDL
MODEL       63
REMARK 921   NORMALIZED FREE ENERGY PREDICTED BY IDOCK:   -3.85 KCAL/MOL
REMARK 922        TOTAL FREE ENERGY PREDICTED BY IDOCK:   -4.21 KCAL/MOL
REMARK 923 INTER-LIGAND FREE ENERGY PREDICTED BY IDOCK:   -4.12 KCAL/MOL
REMARK 924 INTRA-LIGAND FREE ENERGY PREDICTED BY IDOCK:   -0.09 KCAL/MOL
REMARK 927      BINDING AFFINITY PREDICTED BY RF-SCORE:    0.00 PKD
ROOT
HETATM    1  C   UNL     1      -9.014  14.111  68.410  1.00  0.00    -0.189 C  
HETATM    2  C   UNL     1      -9.089  13.309  67.115  1.00  0.00    -0.231 C  
HETATM    3  C   UNL     1     -10.125  12.146  67.084  1.00  0.00    -0.220 C  
HETATM    4  C   UNL     1      -9.800  10.967  68.033  1.00  0.00    -0.183 A  
HETATM    5  C   UNL     1     -11.616  12.638  67.187  1.00  0.00    -0.434 C  
HETATM    6  C   UNL     1     -12.025  13.103  68.599  1.00  0.00    -0.319 C  
HETATM    7  C   UNL     1     -12.024  13.726  66.160  1.00  0.00    -0.418 C  
HETATM    8  C   UNL     1     -10.793  10.039  68.404  1.00  0.00    -0.277 A  
HETATM    9  C   UNL     1     -10.531   9.029  69.328  1.00  0.00    -0.228 A  
HETATM   10  C   UNL     1      -8.507  10.749  68.543  1.00  0.00    -0.143 A  
HETATM   11  C   UNL     1      -9.264   8.864  69.859  1.00  0.00    -0.171 A  
HETATM   12  O   UNL     1     -11.519   8.188  69.751  1.00  0.00    -0.453 OA 
HETATM   13  C   UNL     1      -8.243   9.714  69.451  1.00  0.00    -0.132 A  
HETATM   14  H   UNL     1     -11.341   7.500  70.381  1.00  0.00     0.000 HD 
ENDROOT
BRANCH   7  15
HETATM   15  N   UNL     1     -11.876  13.354  64.740  1.00  0.00    -0.363 NA 
HETATM   16  C   UNL     1     -12.591  12.114  64.416  1.00  0.00    -0.280 C  
HETATM   17  C   UNL     1     -12.394  14.443  63.897  1.00  0.00    -0.077 C  
ENDBRANCH   7  15
TORSDOF 1
ENDMDL
MODEL       64
REMARK 921   NORMALIZED FREE ENERGY PREDICTED BY IDOCK:   -3.84 KCAL/MOL
REMARK 922        TOTAL FREE ENERGY PREDICTED BY IDOCK:   -4.20 KCAL/MOL
REMARK 923 INTER-LIGAND FREE ENERGY PREDICTED BY IDOCK:   -4.29 KCAL/MOL
REMARK 924 INTRA-LIGAND FREE ENERGY PREDICTED BY IDOCK:    0.09 KCAL/MOL
REMARK 927      BINDING AFFINITY PREDICTED BY RF-SCORE:    0.00 PKD
ROOT
HETATM    1  C   UNL     1     -12.817   7.254  71.462  1.00  0.00    -0.430 C  
HETATM    2  C   UNL     1     -12.418   8.545  72.170  1.00  0.00    -0.437 C  
HETATM    3  C   UNL     1     -10.975   9.064  71.895  1.00  0.00    -0.423 C  
HETATM    4  C   UNL     1      -9.848   8.168  72.461  1.00  0.00    -0.363 A  
HETATM    5  C   UNL     1     -10.743   9.491  70.399  1.00  0.00    -0.341 C  
HETATM    6  C   UNL     1     -10.614   8.304  69.422  1.00  0.00    -0.203 C  
HETATM    7  C   UNL     1     -11.776  10.499  69.831  1.00  0.00    -0.294 C  
HETATM    8  C   UNL     1      -8.526   8.281  71.988  1.00  0.00    -0.227 A  
HETATM    9  C   UNL     1      -7.524   7.416  72.427  1.00  0.00    -0.080 A  
HETATM   10  C   UNL     1     -10.078   7.227  73.482  1.00  0.00    -0.387 A  
HETATM   11  C   UNL     1      -7.783   6.461  73.395  1.00  0.00    -0.093 A  
HETATM   12  O   UNL     1      -6.266   7.471  71.901  1.00  0.00    -0.039 OA 
HETATM   13  C   UNL     1      -9.060   6.379  73.938  1.00  0.00    -0.148 A  
HETATM   14  H   UNL     1      -5.583   6.882  72.200  1.00  0.00     0.000 HD 
ENDROOT
BRANCH   7  15
HETATM   15  N   UNL     1     -11.878  11.784  70.550  1.00  0.00    -0.285 NA 
HETATM   16  C   UNL     1     -11.906  12.929  69.632  1.00  0.00    -0.320 C  
HETATM   17  C   UNL     1     -13.104  11.789  71.363  1.00  0.00    -0.223 C  
ENDBRANCH   7  15
TORSDOF 1
ENDMDL
MODEL       65
REMARK 921   NORMALIZED FREE ENERGY PREDICTED BY IDOCK:   -3.84 KCAL/MOL
REMARK 922        TOTAL FREE ENERGY PREDICTED BY IDOCK:   -4.20 KCAL/MOL
REMARK 923 INTER-LIGAND FREE ENERGY PREDICTED BY IDOCK:   -4.06 KCAL/MOL
REMARK 924 INTRA-LIGAND FREE ENERGY PREDICTED BY IDOCK:   -0.14 KCAL/MOL
REMARK 927      BINDING AFFINITY PREDICTED BY RF-SCORE:    0.00 PKD
ROOT
HETATM    1  C   UNL     1     -11.901  15.694  68.538  1.00  0.00    -0.252 C  
HETATM    2  C   UNL     1     -10.684  15.160  69.287  1.00  0.00    -0.250 C  
HETATM    3  C   UNL     1     -10.583  13.611  69.421  1.00  0.00     0.099 C  
HETATM    4  C   UNL     1     -11.668  12.969  70.317  1.00  0.00    -0.192 A  
HETATM    5  C   UNL     1     -10.398  12.878  68.041  1.00  0.00    -0.230 C  
HETATM    6  C   UNL     1     -11.678  12.824  67.183  1.00  0.00    -0.443 C  
HETATM    7  C   UNL     1      -9.228  13.403  67.166  1.00  0.00    -0.240 C  
HETATM    8  C   UNL     1     -11.949  11.590  70.241  1.00  0.00    -0.455 A  
HETATM    9  C   UNL     1     -12.986  11.020  70.978  1.00  0.00    -0.276 A  
HETATM   10  C   UNL     1     -12.401  13.713  71.260  1.00  0.00    -0.359 A  
HETATM   11  C   UNL     1     -13.731  11.782  71.862  1.00  0.00     0.100 A  
HETATM   12  O   UNL     1     -13.312   9.703  70.835  1.00  0.00    -0.572 OA 
HETATM   13  C   UNL     1     -13.424  13.129  72.018  1.00  0.00    -0.598 A  
HETATM   14  H   UNL     1     -14.019   9.316  71.337  1.00  0.00     0.000 HD 
ENDROOT
BRANCH   7  15
HETATM   15  N   UNL     1      -7.888  13.335  67.781  1.00  0.00    -0.141 NA 
HETATM   16  C   UNL     1      -7.145  12.143  67.355  1.00  0.00    -0.146 C  
HETATM   17  C   UNL     1      -7.125  14.537  67.412  1.00  0.00    -0.110 C  
ENDBRANCH   7  15
TORSDOF 1
ENDMDL
MODEL       66
REMARK 921   NORMALIZED FREE ENERGY PREDICTED BY IDOCK:   -3.76 KCAL/MOL
REMARK 922        TOTAL FREE ENERGY PREDICTED BY IDOCK:   -4.11 KCAL/MOL
REMARK 923 INTER-LIGAND FREE ENERGY PREDICTED BY IDOCK:   -3.97 KCAL/MOL
REMARK 924 INTRA-LIGAND FREE ENERGY PREDICTED BY IDOCK:   -0.14 KCAL/MOL
REMARK 927      BINDING AFFINITY PREDICTED BY RF-SCORE:    0.00 PKD
ROOT
HETATM    1  C   UNL     1      -8.739   8.890  70.821  1.00  0.00    -0.245 C  
HETATM    2  C   UNL     1     -10.013   8.218  70.318  1.00  0.00    -0.188 C  
HETATM    3  C   UNL     1     -10.523   8.668  68.917  1.00  0.00    -0.211 C  
HETATM    4  C   UNL     1     -11.028  10.129  68.853  1.00  0.00    -0.261 A  
HETATM    5  C   UNL     1      -9.538   8.296  67.748  1.00  0.00    -0.178 C  
HETATM    6  C   UNL     1      -8.275   9.179  67.687  1.00  0.00    -0.108 C  
HETATM    7  C   UNL     1      -9.112   6.805  67.692  1.00  0.00    -0.117 C  
HETATM    8  C   UNL     1     -11.160  10.798  67.620  1.00  0.00    -0.384 A  
HETATM    9  C   UNL     1     -11.527  12.142  67.561  1.00  0.00    -0.340 A  
HETATM   10  C   UNL     1     -11.402  10.846  70.005  1.00  0.00    -0.386 A  
HETATM   11  C   UNL     1     -11.840  12.844  68.711  1.00  0.00    -0.353 A  
HETATM   12  O   UNL     1     -11.567  12.809  66.371  1.00  0.00    -0.336 OA 
HETATM   13  C   UNL     1     -11.797  12.188  69.937  1.00  0.00    -0.392 A  
HETATM   14  H   UNL     1     -11.817  13.725  66.331  1.00  0.00     0.000 HD 
ENDROOT
BRANCH   7  15
HETATM   15  N   UNL     1     -10.211   5.830  67.548  1.00  0.00    -0.175 NA 
HETATM   16  C   UNL     1     -10.175   5.145  66.251  1.00  0.00    -0.253 C  
HETATM   17  C   UNL     1     -10.117   4.832  68.624  1.00  0.00    -0.044 C  
ENDBRANCH   7  15
TORSDOF 1
ENDMDL
MODEL       67
REMARK 921   NORMALIZED FREE ENERGY PREDICTED BY IDOCK:   -3.75 KCAL/MOL
REMARK 922        TOTAL FREE ENERGY PREDICTED BY IDOCK:   -4.11 KCAL/MOL
REMARK 923 INTER-LIGAND FREE ENERGY PREDICTED BY IDOCK:   -3.99 KCAL/MOL
REMARK 924 INTRA-LIGAND FREE ENERGY PREDICTED BY IDOCK:   -0.12 KCAL/MOL
REMARK 927      BINDING AFFINITY PREDICTED BY RF-SCORE:    0.00 PKD
ROOT
HETATM    1  C   UNL     1      -9.486   4.860  71.730  1.00  0.00    -0.199 C  
HETATM    2  C   UNL     1     -10.277   4.873  70.425  1.00  0.00    -0.292 C  
HETATM    3  C   UNL     1     -10.263   6.209  69.624  1.00  0.00    -0.255 C  
HETATM    4  C   UNL     1     -10.995   7.384  70.316  1.00  0.00    -0.272 A  
HETATM    5  C   UNL     1      -8.837   6.594  69.082  1.00  0.00    -0.129 C  
HETATM    6  C   UNL     1      -7.873   7.114  70.167  1.00  0.00    -0.108 C  
HETATM    7  C   UNL     1      -8.122   5.488  68.262  1.00  0.00    -0.096 C  
HETATM    8  C   UNL     1     -10.757   8.717  69.925  1.00  0.00    -0.228 A  
HETATM    9  C   UNL     1     -11.344   9.785  70.603  1.00  0.00    -0.330 A  
HETATM   10  C   UNL     1     -11.942   7.183  71.336  1.00  0.00    -0.364 A  
HETATM   11  C   UNL     1     -12.233   9.566  71.640  1.00  0.00    -0.477 A  
HETATM   12  O   UNL     1     -11.041  11.076  70.279  1.00  0.00    -0.463 OA 
HETATM   13  C   UNL     1     -12.549   8.260  71.996  1.00  0.00    -0.387 A  
HETATM   14  H   UNL     1     -11.441  11.804  70.741  1.00  0.00     0.000 HD 
ENDROOT
BRANCH   7  15
HETATM   15  N   UNL     1      -8.838   5.016  67.061  1.00  0.00    -0.107 NA 
HETATM   16  C   UNL     1      -8.073   5.257  65.832  1.00  0.00    -0.110 C  
HETATM   17  C   UNL     1      -9.103   3.575  67.189  1.00  0.00    -0.169 C  
ENDBRANCH   7  15
TORSDOF 1
ENDMDL
MODEL       68
REMARK 921   NORMALIZED FREE ENERGY PREDICTED BY IDOCK:   -3.73 KCAL/MOL
REMARK 922        TOTAL FREE ENERGY PREDICTED BY IDOCK:   -4.08 KCAL/MOL
REMARK 923 INTER-LIGAND FREE ENERGY PREDICTED BY IDOCK:   -3.95 KCAL/MOL
REMARK 924 INTRA-LIGAND FREE ENERGY PREDICTED BY IDOCK:   -0.13 KCAL/MOL
REMARK 927      BINDING AFFINITY PREDICTED BY RF-SCORE:    0.00 PKD
ROOT
HETATM    1  C   UNL     1     -11.971  11.615  68.909  1.00  0.00    -0.355 C  
HETATM    2  C   UNL     1     -10.524  12.095  68.851  1.00  0.00    -0.142 C  
HETATM    3  C   UNL     1      -9.809  11.967  67.473  1.00  0.00    -0.194 C  
HETATM    4  C   UNL     1      -9.557  10.512  67.011  1.00  0.00    -0.202 A  
HETATM    5  C   UNL     1     -10.443  12.877  66.357  1.00  0.00    -0.278 C  
HETATM    6  C   UNL     1     -11.794  12.361  65.821  1.00  0.00    -0.467 C  
HETATM    7  C   UNL     1     -10.588  14.375  66.731  1.00  0.00    -0.282 C  
HETATM    8  C   UNL     1      -9.278  10.218  65.661  1.00  0.00    -0.225 A  
HETATM    9  C   UNL     1      -9.139   8.903  65.220  1.00  0.00    -0.136 A  
HETATM   10  C   UNL     1      -9.564   9.427  67.906  1.00  0.00    -0.155 A  
HETATM   11  C   UNL     1      -9.203   7.845  66.110  1.00  0.00    -0.208 A  
HETATM   12  O   UNL     1      -8.959   8.619  63.898  1.00  0.00    -0.401 OA 
HETATM   13  C   UNL     1      -9.397   8.109  67.461  1.00  0.00    -0.165 A  
HETATM   14  H   UNL     1      -8.864   7.722  63.597  1.00  0.00     0.000 HD 
ENDROOT
BRANCH   7  15
HETATM   15  N   UNL     1      -9.335  15.073  67.081  1.00  0.00    -0.208 NA 
HETATM   16  C   UNL     1      -9.023  16.153  66.139  1.00  0.00    -0.337 C  
HETATM   17  C   UNL     1      -9.456  15.634  68.436  1.00  0.00    -0.196 C  
ENDBRANCH   7  15
TORSDOF 1
ENDMDL
MODEL       69
REMARK 921   NORMALIZED FREE ENERGY PREDICTED BY IDOCK:   -3.71 KCAL/MOL
REMARK 922        TOTAL FREE ENERGY PREDICTED BY IDOCK:   -4.06 KCAL/MOL
REMARK 923 INTER-LIGAND FREE ENERGY PREDICTED BY IDOCK:   -3.94 KCAL/MOL
REMARK 924 INTRA-LIGAND FREE ENERGY PREDICTED BY IDOCK:   -0.12 KCAL/MOL
REMARK 927      BINDING AFFINITY PREDICTED BY RF-SCORE:    0.00 PKD
ROOT
HETATM    1  C   UNL     1     -10.463  18.144  66.613  1.00  0.00    -0.354 C  
HETATM    2  C   UNL     1      -9.762  16.897  66.083  1.00  0.00    -0.296 C  
HETATM    3  C   UNL     1      -8.973  16.053  67.128  1.00  0.00    -0.220 C  
HETATM    4  C   UNL     1      -7.724  16.754  67.712  1.00  0.00    -0.180 A  
HETATM    5  C   UNL     1      -9.895  15.403  68.225  1.00  0.00    -0.213 C  
HETATM    6  C   UNL     1     -10.421  16.402  69.275  1.00  0.00    -0.303 C  
HETATM    7  C   UNL     1     -11.087  14.573  67.679  1.00  0.00    -0.304 C  
HETATM    8  C   UNL     1      -7.134  16.304  68.911  1.00  0.00    -0.182 A  
HETATM    9  C   UNL     1      -6.064  16.985  69.491  1.00  0.00    -0.233 A  
HETATM   10  C   UNL     1      -7.104  17.842  67.072  1.00  0.00    -0.209 A  
HETATM   11  C   UNL     1      -5.503  18.087  68.870  1.00  0.00    -0.187 A  
HETATM   12  O   UNL     1      -5.554  16.598  70.696  1.00  0.00    -0.168 OA 
HETATM   13  C   UNL     1      -6.012  18.505  67.646  1.00  0.00    -0.176 A  
HETATM   14  H   UNL     1      -4.825  17.062  71.091  1.00  0.00     0.000 HD 
ENDROOT
BRANCH   7  15
HETATM   15  N   UNL     1     -10.731  13.439  66.804  1.00  0.00    -0.276 NA 
HETATM   16  C   UNL     1     -10.238  12.287  67.567  1.00  0.00    -0.204 C  
HETATM   17  C   UNL     1     -11.914  13.035  66.030  1.00  0.00    -0.440 C  
ENDBRANCH   7  15
TORSDOF 1
ENDMDL
MODEL       70
REMARK 921   NORMALIZED FREE ENERGY PREDICTED BY IDOCK:   -3.69 KCAL/MOL
REMARK 922        TOTAL FREE ENERGY PREDICTED BY IDOCK:   -4.04 KCAL/MOL
REMARK 923 INTER-LIGAND FREE ENERGY PREDICTED BY IDOCK:   -3.95 KCAL/MOL
REMARK 924 INTRA-LIGAND FREE ENERGY PREDICTED BY IDOCK:   -0.09 KCAL/MOL
REMARK 927      BINDING AFFINITY PREDICTED BY RF-SCORE:    0.00 PKD
ROOT
HETATM    1  C   UNL     1     -11.488  14.820  66.150  1.00  0.00    -0.311 C  
HETATM    2  C   UNL     1     -12.104  14.011  67.287  1.00  0.00    -0.405 C  
HETATM    3  C   UNL     1     -11.108  13.236  68.200  1.00  0.00    -0.286 C  
HETATM    4  C   UNL     1     -10.367  12.071  67.502  1.00  0.00    -0.217 A  
HETATM    5  C   UNL     1     -10.154  14.180  69.022  1.00  0.00    -0.097 C  
HETATM    6  C   UNL     1      -9.038  14.830  68.179  1.00  0.00    -0.180 C  
HETATM    7  C   UNL     1     -10.868  15.282  69.848  1.00  0.00    -0.281 C  
HETATM    8  C   UNL     1      -9.189  11.528  68.053  1.00  0.00    -0.175 A  
HETATM    9  C   UNL     1      -8.466  10.540  67.385  1.00  0.00    -0.122 A  
HETATM   10  C   UNL     1     -10.840  11.483  66.315  1.00  0.00    -0.333 A  
HETATM   11  C   UNL     1      -8.922  10.012  66.190  1.00  0.00    -0.174 A  
HETATM   12  O   UNL     1      -7.279  10.081  67.877  1.00  0.00    -0.085 OA 
HETATM   13  C   UNL     1     -10.124  10.471  65.662  1.00  0.00    -0.333 A  
HETATM   14  H   UNL     1      -6.787   9.408  67.422  1.00  0.00     0.000 HD 
ENDROOT
BRANCH   7  15
HETATM   15  N   UNL     1     -11.837  14.803  70.853  1.00  0.00    -0.308 NA 
HETATM   16  C   UNL     1     -11.508  15.272  72.204  1.00  0.00    -0.407 C  
HETATM   17  C   UNL     1     -13.182  15.276  70.492  1.00  0.00    -0.236 C  
ENDBRANCH   7  15
TORSDOF 1
ENDMDL
MODEL       71
REMARK 921   NORMALIZED FREE ENERGY PREDICTED BY IDOCK:   -3.69 KCAL/MOL
REMARK 922        TOTAL FREE ENERGY PREDICTED BY IDOCK:   -4.04 KCAL/MOL
REMARK 923 INTER-LIGAND FREE ENERGY PREDICTED BY IDOCK:   -3.92 KCAL/MOL
REMARK 924 INTRA-LIGAND FREE ENERGY PREDICTED BY IDOCK:   -0.12 KCAL/MOL
REMARK 927      BINDING AFFINITY PREDICTED BY RF-SCORE:    0.00 PKD
ROOT
HETATM    1  C   UNL     1      -7.873   7.538  69.180  1.00  0.00    -0.119 C  
HETATM    2  C   UNL     1      -8.715   8.153  70.293  1.00  0.00    -0.133 C  
HETATM    3  C   UNL     1     -10.092   8.747  69.868  1.00  0.00    -0.197 C  
HETATM    4  C   UNL     1     -10.002  10.001  68.966  1.00  0.00    -0.203 A  
HETATM    5  C   UNL     1     -11.097   7.661  69.332  1.00  0.00     0.009 C  
HETATM    6  C   UNL     1     -10.766   7.145  67.917  1.00  0.00    -0.258 C  
HETATM    7  C   UNL     1     -11.322   6.448  70.271  1.00  0.00    -0.403 C  
HETATM    8  C   UNL     1     -11.107  10.423  68.200  1.00  0.00    -0.344 A  
HETATM    9  C   UNL     1     -11.007  11.497  67.316  1.00  0.00    -0.271 A  
HETATM   10  C   UNL     1      -8.839  10.788  68.887  1.00  0.00    -0.154 A  
HETATM   11  C   UNL     1      -9.836  12.227  67.215  1.00  0.00    -0.208 A  
HETATM   12  O   UNL     1     -12.052  11.847  66.512  1.00  0.00    -0.568 OA 
HETATM   13  C   UNL     1      -8.753  11.883  68.018  1.00  0.00    -0.173 A  
HETATM   14  H   UNL     1     -11.984  12.579  65.910  1.00  0.00     0.000 HD 
ENDROOT
BRANCH   7  15
HETATM   15  N   UNL     1     -11.835   6.767  71.618  1.00  0.00    -0.309 NA 
HETATM   16  C   UNL     1     -13.258   7.128  71.595  1.00  0.00    -0.346 C  
HETATM   17  C   UNL     1     -11.648   5.601  72.496  1.00  0.00    -0.246 C  
ENDBRANCH   7  15
TORSDOF 1
ENDMDL
MODEL       72
REMARK 921   NORMALIZED FREE ENERGY PREDICTED BY IDOCK:   -3.65 KCAL/MOL
REMARK 922        TOTAL FREE ENERGY PREDICTED BY IDOCK:   -4.00 KCAL/MOL
REMARK 923 INTER-LIGAND FREE ENERGY PREDICTED BY IDOCK:   -3.86 KCAL/MOL
REMARK 924 INTRA-LIGAND FREE ENERGY PREDICTED BY IDOCK:   -0.14 KCAL/MOL
REMARK 927      BINDING AFFINITY PREDICTED BY RF-SCORE:    0.00 PKD
ROOT
HETATM    1  C   UNL     1      -7.726   8.658  68.861  1.00  0.00    -0.100 C  
HETATM    2  C   UNL     1      -7.886   7.171  69.160  1.00  0.00    -0.118 C  
HETATM    3  C   UNL     1      -9.344   6.620  69.158  1.00  0.00    -0.134 C  
HETATM    4  C   UNL     1     -10.237   7.154  70.303  1.00  0.00    -0.207 A  
HETATM    5  C   UNL     1     -10.031   6.689  67.744  1.00  0.00    -0.158 C  
HETATM    6  C   UNL     1     -10.457   8.111  67.324  1.00  0.00    -0.379 C  
HETATM    7  C   UNL     1      -9.227   6.042  66.586  1.00  0.00    -0.142 C  
HETATM    8  C   UNL     1     -11.641   7.062  70.229  1.00  0.00    -0.309 A  
HETATM    9  C   UNL     1     -12.456   7.621  71.214  1.00  0.00    -0.298 A  
HETATM   10  C   UNL     1      -9.700   7.723  71.471  1.00  0.00    -0.195 A  
HETATM   11  C   UNL     1     -11.907   8.225  72.331  1.00  0.00    -0.461 A  
HETATM   12  O   UNL     1     -13.815   7.608  71.094  1.00  0.00    -0.599 OA 
HETATM   13  C   UNL     1     -10.524   8.259  72.470  1.00  0.00    -0.406 A  
HETATM   14  H   UNL     1     -14.369   7.989  71.765  1.00  0.00     0.000 HD 
ENDROOT
BRANCH   7  15
HETATM   15  N   UNL     1      -8.908   4.610  66.751  1.00  0.00    -0.111 NA 
HETATM   16  C   UNL     1      -9.629   3.770  65.787  1.00  0.00    -0.162 C  
HETATM   17  C   UNL     1      -7.461   4.413  66.574  1.00  0.00    -0.082 C  
ENDBRANCH   7  15
TORSDOF 1
ENDMDL
MODEL       73
REMARK 921   NORMALIZED FREE ENERGY PREDICTED BY IDOCK:   -3.64 KCAL/MOL
REMARK 922        TOTAL FREE ENERGY PREDICTED BY IDOCK:   -3.99 KCAL/MOL
REMARK 923 INTER-LIGAND FREE ENERGY PREDICTED BY IDOCK:   -3.87 KCAL/MOL
REMARK 924 INTRA-LIGAND FREE ENERGY PREDICTED BY IDOCK:   -0.12 KCAL/MOL
REMARK 927      BINDING AFFINITY PREDICTED BY RF-SCORE:    0.00 PKD
ROOT
HETATM    1  C   UNL     1      -8.041  10.941  68.561  1.00  0.00    -0.137 C  
HETATM    2  C   UNL     1      -8.273  12.009  67.496  1.00  0.00    -0.159 C  
HETATM    3  C   UNL     1      -9.030  11.551  66.214  1.00  0.00    -0.199 C  
HETATM    4  C   UNL     1      -8.252  10.549  65.328  1.00  0.00    -0.146 A  
HETATM    5  C   UNL     1     -10.516  11.116  66.492  1.00  0.00    -0.305 C  
HETATM    6  C   UNL     1     -10.648   9.745  67.185  1.00  0.00    -0.298 C  
HETATM    7  C   UNL     1     -11.375  12.154  67.261  1.00  0.00    -0.334 C  
HETATM    8  C   UNL     1      -8.917   9.763  64.366  1.00  0.00    -0.284 A  
HETATM    9  C   UNL     1      -8.238   8.794  63.628  1.00  0.00    -0.163 A  
HETATM   10  C   UNL     1      -6.856  10.394  65.417  1.00  0.00    -0.120 A  
HETATM   11  C   UNL     1      -6.872   8.622  63.769  1.00  0.00    -0.087 A  
HETATM   12  O   UNL     1      -8.902   7.975  62.762  1.00  0.00    -0.392 OA 
HETATM   13  C   UNL     1      -6.175   9.438  64.653  1.00  0.00    -0.078 A  
HETATM   14  H   UNL     1      -8.439   7.315  62.259  1.00  0.00     0.000 HD 
ENDROOT
BRANCH   7  15
HETATM   15  N   UNL     1     -11.512  13.475  66.618  1.00  0.00    -0.326 NA 
HETATM   16  C   UNL     1     -12.647  13.522  65.689  1.00  0.00    -0.459 C  
HETATM   17  C   UNL     1     -11.695  14.502  67.656  1.00  0.00    -0.382 C  
ENDBRANCH   7  15
TORSDOF 1
ENDMDL
MODEL       74
REMARK 921   NORMALIZED FREE ENERGY PREDICTED BY IDOCK:   -3.64 KCAL/MOL
REMARK 922        TOTAL FREE ENERGY PREDICTED BY IDOCK:   -3.99 KCAL/MOL
REMARK 923 INTER-LIGAND FREE ENERGY PREDICTED BY IDOCK:   -3.88 KCAL/MOL
REMARK 924 INTRA-LIGAND FREE ENERGY PREDICTED BY IDOCK:   -0.11 KCAL/MOL
REMARK 927      BINDING AFFINITY PREDICTED BY RF-SCORE:    0.00 PKD
ROOT
HETATM    1  C   UNL     1     -13.020   7.367  71.460  1.00  0.00    -0.421 C  
HETATM    2  C   UNL     1     -11.636   7.777  71.953  1.00  0.00    -0.330 C  
HETATM    3  C   UNL     1     -10.444   6.899  71.467  1.00  0.00    -0.231 C  
HETATM    4  C   UNL     1     -10.437   5.455  72.023  1.00  0.00    -0.278 A  
HETATM    5  C   UNL     1     -10.212   6.972  69.913  1.00  0.00    -0.213 C  
HETATM    6  C   UNL     1     -11.256   6.194  69.086  1.00  0.00    -0.409 C  
HETATM    7  C   UNL     1     -10.076   8.404  69.332  1.00  0.00    -0.198 C  
HETATM    8  C   UNL     1      -9.674   4.445  71.405  1.00  0.00    -0.248 A  
HETATM    9  C   UNL     1      -9.733   3.122  71.845  1.00  0.00    -0.164 A  
HETATM   10  C   UNL     1     -11.160   5.089  73.173  1.00  0.00    -0.395 A  
HETATM   11  C   UNL     1     -10.493   2.774  72.947  1.00  0.00    -0.239 A  
HETATM   12  O   UNL     1      -9.061   2.132  71.189  1.00  0.00    -0.077 OA 
HETATM   13  C   UNL     1     -11.194   3.764  73.626  1.00  0.00    -0.288 A  
HETATM   14  H   UNL     1      -9.102   1.231  71.489  1.00  0.00     0.000 HD 
ENDROOT
BRANCH   7  15
HETATM   15  N   UNL     1      -8.978   9.219  69.888  1.00  0.00    -0.166 NA 
HETATM   16  C   UNL     1      -7.666   8.595  69.680  1.00  0.00    -0.089 C  
HETATM   17  C   UNL     1      -8.988  10.545  69.250  1.00  0.00    -0.134 C  
ENDBRANCH   7  15
TORSDOF 1
ENDMDL
MODEL       75
REMARK 921   NORMALIZED FREE ENERGY PREDICTED BY IDOCK:   -3.59 KCAL/MOL
REMARK 922        TOTAL FREE ENERGY PREDICTED BY IDOCK:   -3.94 KCAL/MOL
REMARK 923 INTER-LIGAND FREE ENERGY PREDICTED BY IDOCK:   -3.82 KCAL/MOL
REMARK 924 INTRA-LIGAND FREE ENERGY PREDICTED BY IDOCK:   -0.12 KCAL/MOL
REMARK 927      BINDING AFFINITY PREDICTED BY RF-SCORE:    0.00 PKD
ROOT
HETATM    1  C   UNL     1      -7.204  15.020  69.921  1.00  0.00    -0.088 C  
HETATM    2  C   UNL     1      -7.432  15.027  68.412  1.00  0.00    -0.113 C  
HETATM    3  C   UNL     1      -8.862  14.643  67.930  1.00  0.00    -0.170 C  
HETATM    4  C   UNL     1      -9.255  13.168  68.186  1.00  0.00    -0.215 A  
HETATM    5  C   UNL     1      -9.966  15.671  68.377  1.00  0.00    -0.210 C  
HETATM    6  C   UNL     1     -10.335  15.583  69.872  1.00  0.00    -0.322 C  
HETATM    7  C   UNL     1      -9.675  17.151  68.016  1.00  0.00    -0.274 C  
HETATM    8  C   UNL     1     -10.605  12.763  68.164  1.00  0.00    -0.242 A  
HETATM    9  C   UNL     1     -10.974  11.457  68.483  1.00  0.00    -0.221 A  
HETATM   10  C   UNL     1      -8.297  12.166  68.424  1.00  0.00    -0.143 A  
HETATM   11  C   UNL     1     -10.017  10.498  68.766  1.00  0.00    -0.200 A  
HETATM   12  O   UNL     1     -12.287  11.092  68.546  1.00  0.00    -0.762 OA 
HETATM   13  C   UNL     1      -8.672  10.848  68.717  1.00  0.00    -0.158 A  
HETATM   14  H   UNL     1     -12.538  10.201  68.764  1.00  0.00     0.000 HD 
ENDROOT
BRANCH   7  15
HETATM   15  N   UNL     1      -9.493  17.436  66.580  1.00  0.00    -0.265 NA 
HETATM   16  C   UNL     1     -10.721  17.204  65.811  1.00  0.00    -0.138 C  
HETATM   17  C   UNL     1      -9.077  18.837  66.413  1.00  0.00    -0.300 C  
ENDBRANCH   7  15
TORSDOF 1
ENDMDL
MODEL       76
REMARK 921   NORMALIZED FREE ENERGY PREDICTED BY IDOCK:   -3.58 KCAL/MOL
REMARK 922        TOTAL FREE ENERGY PREDICTED BY IDOCK:   -3.93 KCAL/MOL
REMARK 923 INTER-LIGAND FREE ENERGY PREDICTED BY IDOCK:   -3.81 KCAL/MOL
REMARK 924 INTRA-LIGAND FREE ENERGY PREDICTED BY IDOCK:   -0.12 KCAL/MOL
REMARK 927      BINDING AFFINITY PREDICTED BY RF-SCORE:    0.00 PKD
ROOT
HETATM    1  C   UNL     1      -9.132   9.195  66.732  1.00  0.00    -0.176 C  
HETATM    2  C   UNL     1     -10.534   8.926  67.268  1.00  0.00    -0.348 C  
HETATM    3  C   UNL     1     -10.647   7.861  68.401  1.00  0.00    -0.154 C  
HETATM    4  C   UNL     1     -10.318   6.415  67.961  1.00  0.00    -0.234 A  
HETATM    5  C   UNL     1      -9.923   8.291  69.731  1.00  0.00    -0.191 C  
HETATM    6  C   UNL     1      -8.385   8.207  69.662  1.00  0.00    -0.125 C  
HETATM    7  C   UNL     1     -10.328   9.683  70.282  1.00  0.00    -0.280 C  
HETATM    8  C   UNL     1     -10.005   5.422  68.911  1.00  0.00    -0.247 A  
HETATM    9  C   UNL     1      -9.620   4.140  68.519  1.00  0.00    -0.125 A  
HETATM   10  C   UNL     1     -10.341   6.016  66.613  1.00  0.00    -0.264 A  
HETATM   11  C   UNL     1      -9.598   3.784  67.182  1.00  0.00    -0.218 A  
HETATM   12  O   UNL     1      -9.232   3.210  69.438  1.00  0.00    -0.124 OA 
HETATM   13  C   UNL     1      -9.979   4.719  66.226  1.00  0.00    -0.264 A  
HETATM   14  H   UNL     1      -8.970   2.336  69.170  1.00  0.00     0.000 HD 
ENDROOT
BRANCH   7  15
HETATM   15  N   UNL     1     -11.760   9.858  70.591  1.00  0.00    -0.303 NA 
HETATM   16  C   UNL     1     -12.117   9.295  71.898  1.00  0.00    -0.370 C  
HETATM   17  C   UNL     1     -12.086  11.293  70.579  1.00  0.00    -0.387 C  
ENDBRANCH   7  15
TORSDOF 1
ENDMDL
MODEL       77
REMARK 921   NORMALIZED FREE ENERGY PREDICTED BY IDOCK:   -3.57 KCAL/MOL
REMARK 922        TOTAL FREE ENERGY PREDICTED BY IDOCK:   -3.91 KCAL/MOL
REMARK 923 INTER-LIGAND FREE ENERGY PREDICTED BY IDOCK:   -3.83 KCAL/MOL
REMARK 924 INTRA-LIGAND FREE ENERGY PREDICTED BY IDOCK:   -0.08 KCAL/MOL
REMARK 927      BINDING AFFINITY PREDICTED BY RF-SCORE:    0.00 PKD
ROOT
HETATM    1  C   UNL     1     -12.091  15.343  68.514  1.00  0.00    -0.081 C  
HETATM    2  C   UNL     1     -11.634  14.913  67.123  1.00  0.00    -0.327 C  
HETATM    3  C   UNL     1     -10.164  15.262  66.742  1.00  0.00    -0.273 C  
HETATM    4  C   UNL     1      -9.880  16.775  66.588  1.00  0.00    -0.287 A  
HETATM    5  C   UNL     1      -9.099  14.512  67.624  1.00  0.00    -0.195 C  
HETATM    6  C   UNL     1      -8.968  15.068  69.056  1.00  0.00    -0.205 C  
HETATM    7  C   UNL     1      -9.266  12.971  67.694  1.00  0.00    -0.200 C  
HETATM    8  C   UNL     1      -8.562  17.272  66.624  1.00  0.00    -0.286 A  
HETATM    9  C   UNL     1      -8.303  18.642  66.577  1.00  0.00    -0.291 A  
HETATM   10  C   UNL     1     -10.906  17.715  66.380  1.00  0.00     0.067 A  
HETATM   11  C   UNL     1      -9.333  19.554  66.425  1.00  0.00    -0.443 A  
HETATM   12  O   UNL     1      -7.033  19.123  66.701  1.00  0.00    -0.200 OA 
HETATM   13  C   UNL     1     -10.637  19.088  66.306  1.00  0.00    -0.493 A  
HETATM   14  H   UNL     1      -6.857  20.056  66.669  1.00  0.00     0.000 HD 
ENDROOT
BRANCH   7  15
HETATM   15  N   UNL     1      -9.213  12.261  66.401  1.00  0.00    -0.224 NA 
HETATM   16  C   UNL     1      -8.180  11.220  66.386  1.00  0.00    -0.150 C  
HETATM   17  C   UNL     1     -10.522  11.646  66.133  1.00  0.00    -0.247 C  
ENDBRANCH   7  15
TORSDOF 1
ENDMDL
MODEL       78
REMARK 921   NORMALIZED FREE ENERGY PREDICTED BY IDOCK:   -3.57 KCAL/MOL
REMARK 922        TOTAL FREE ENERGY PREDICTED BY IDOCK:   -3.91 KCAL/MOL
REMARK 923 INTER-LIGAND FREE ENERGY PREDICTED BY IDOCK:   -3.78 KCAL/MOL
REMARK 924 INTRA-LIGAND FREE ENERGY PREDICTED BY IDOCK:   -0.14 KCAL/MOL
REMARK 927      BINDING AFFINITY PREDICTED BY RF-SCORE:    0.00 PKD
ROOT
HETATM    1  C   UNL     1     -10.375  15.527  68.936  1.00  0.00    -0.221 C  
HETATM    2  C   UNL     1      -9.830  15.189  67.552  1.00  0.00    -0.220 C  
HETATM    3  C   UNL     1      -9.568  13.680  67.263  1.00  0.00    -0.238 C  
HETATM    4  C   UNL     1      -8.420  13.055  68.090  1.00  0.00    -0.176 A  
HETATM    5  C   UNL     1     -10.881  12.812  67.259  1.00  0.00    -0.277 C  
HETATM    6  C   UNL     1     -11.462  12.549  68.663  1.00  0.00    -0.348 C  
HETATM    7  C   UNL     1     -12.013  13.331  66.334  1.00  0.00    -0.410 C  
HETATM    8  C   UNL     1      -8.306  11.657  68.232  1.00  0.00    -0.159 A  
HETATM    9  C   UNL     1      -7.329  11.090  69.048  1.00  0.00    -0.123 A  
HETATM   10  C   UNL     1      -7.429  13.837  68.711  1.00  0.00    -0.098 A  
HETATM   11  C   UNL     1      -6.395  11.881  69.694  1.00  0.00    -0.124 A  
HETATM   12  O   UNL     1      -7.278   9.742  69.253  1.00  0.00    -0.064 OA 
HETATM   13  C   UNL     1      -6.433  13.259  69.509  1.00  0.00    -0.078 A  
HETATM   14  H   UNL     1      -6.612   9.355  69.809  1.00  0.00     0.000 HD 
ENDROOT
BRANCH   7  15
HETATM   15  N   UNL     1     -11.668  13.449  64.904  1.00  0.00    -0.337 NA 
HETATM   16  C   UNL     1     -12.320  12.417  64.091  1.00  0.00    -0.467 C  
HETATM   17  C   UNL     1     -12.075  14.776  64.417  1.00  0.00    -0.440 C  
ENDBRANCH   7  15
TORSDOF 1
ENDMDL
MODEL       79
REMARK 921   NORMALIZED FREE ENERGY PREDICTED BY IDOCK:   -3.55 KCAL/MOL
REMARK 922        TOTAL FREE ENERGY PREDICTED BY IDOCK:   -3.90 KCAL/MOL
REMARK 923 INTER-LIGAND FREE ENERGY PREDICTED BY IDOCK:   -3.81 KCAL/MOL
REMARK 924 INTRA-LIGAND FREE ENERGY PREDICTED BY IDOCK:   -0.09 KCAL/MOL
REMARK 927      BINDING AFFINITY PREDICTED BY RF-SCORE:    0.00 PKD
ROOT
HETATM    1  C   UNL     1     -10.633  17.706  66.020  1.00  0.00    -0.220 C  
HETATM    2  C   UNL     1      -9.321  16.929  65.969  1.00  0.00    -0.214 C  
HETATM    3  C   UNL     1      -8.442  16.975  67.255  1.00  0.00    -0.210 C  
HETATM    4  C   UNL     1      -7.842  18.365  67.576  1.00  0.00    -0.236 A  
HETATM    5  C   UNL     1      -9.120  16.285  68.495  1.00  0.00    -0.216 C  
HETATM    6  C   UNL     1     -10.264  17.107  69.123  1.00  0.00    -0.284 C  
HETATM    7  C   UNL     1      -9.616  14.834  68.255  1.00  0.00    -0.215 C  
HETATM    8  C   UNL     1      -7.357  18.664  68.865  1.00  0.00    -0.301 A  
HETATM    9  C   UNL     1      -6.898  19.941  69.187  1.00  0.00    -0.307 A  
HETATM   10  C   UNL     1      -7.726  19.376  66.605  1.00  0.00    -0.280 A  
HETATM   11  C   UNL     1      -6.842  20.938  68.229  1.00  0.00    -0.073 A  
HETATM   12  O   UNL     1      -6.513  20.251  70.459  1.00  0.00    -0.427 OA 
HETATM   13  C   UNL     1      -7.239  20.649  66.928  1.00  0.00    -0.350 A  
HETATM   14  H   UNL     1      -6.200  21.121  70.678  1.00  0.00     0.000 HD 
ENDROOT
BRANCH   7  15
HETATM   15  N   UNL     1      -8.583  13.866  67.836  1.00  0.00    -0.168 NA 
HETATM   16  C   UNL     1      -7.441  13.843  68.757  1.00  0.00    -0.114 C  
HETATM   17  C   UNL     1      -9.178  12.522  67.772  1.00  0.00    -0.198 C  
ENDBRANCH   7  15
TORSDOF 1
ENDMDL
MODEL       80
REMARK 921   NORMALIZED FREE ENERGY PREDICTED BY IDOCK:   -3.51 KCAL/MOL
REMARK 922        TOTAL FREE ENERGY PREDICTED BY IDOCK:   -3.85 KCAL/MOL
REMARK 923 INTER-LIGAND FREE ENERGY PREDICTED BY IDOCK:   -3.72 KCAL/MOL
REMARK 924 INTRA-LIGAND FREE ENERGY PREDICTED BY IDOCK:   -0.14 KCAL/MOL
REMARK 927      BINDING AFFINITY PREDICTED BY RF-SCORE:    0.00 PKD
ROOT
HETATM    1  C   UNL     1      -7.997   6.417  66.655  1.00  0.00    -0.109 C  
HETATM    2  C   UNL     1      -7.970   6.988  68.069  1.00  0.00    -0.115 C  
HETATM    3  C   UNL     1      -9.196   7.853  68.486  1.00  0.00    -0.138 C  
HETATM    4  C   UNL     1      -9.326   9.196  67.728  1.00  0.00    -0.152 A  
HETATM    5  C   UNL     1     -10.540   7.037  68.547  1.00  0.00    -0.235 C  
HETATM    6  C   UNL     1     -11.125   6.689  67.163  1.00  0.00    -0.427 C  
HETATM    7  C   UNL     1     -10.493   5.750  69.411  1.00  0.00    -0.290 C  
HETATM    8  C   UNL     1     -10.546   9.901  67.706  1.00  0.00    -0.313 A  
HETATM    9  C   UNL     1     -10.697  11.064  66.952  1.00  0.00    -0.274 A  
HETATM   10  C   UNL     1      -8.241   9.787  67.056  1.00  0.00    -0.117 A  
HETATM   11  C   UNL     1      -9.629  11.601  66.254  1.00  0.00    -0.241 A  
HETATM   12  O   UNL     1     -11.904  11.694  66.862  1.00  0.00    -0.577 OA 
HETATM   13  C   UNL     1      -8.391  10.971  66.322  1.00  0.00    -0.166 A  
HETATM   14  H   UNL     1     -12.006  12.486  66.348  1.00  0.00     0.000 HD 
ENDROOT
BRANCH   7  15
HETATM   15  N   UNL     1     -10.137   5.944  70.830  1.00  0.00    -0.190 NA 
HETATM   16  C   UNL     1     -11.311   5.882  71.708  1.00  0.00    -0.227 C  
HETATM   17  C   UNL     1      -9.176   4.906  71.235  1.00  0.00    -0.145 C  
ENDBRANCH   7  15
TORSDOF 1
ENDMDL
MODEL       81
REMARK 921   NORMALIZED FREE ENERGY PREDICTED BY IDOCK:   -3.49 KCAL/MOL
REMARK 922        TOTAL FREE ENERGY PREDICTED BY IDOCK:   -3.83 KCAL/MOL
REMARK 923 INTER-LIGAND FREE ENERGY PREDICTED BY IDOCK:   -3.75 KCAL/MOL
REMARK 924 INTRA-LIGAND FREE ENERGY PREDICTED BY IDOCK:   -0.08 KCAL/MOL
REMARK 927      BINDING AFFINITY PREDICTED BY RF-SCORE:    0.00 PKD
ROOT
HETATM    1  C   UNL     1      -7.908  10.220  69.824  1.00  0.00    -0.151 C  
HETATM    2  C   UNL     1      -8.111  10.810  68.432  1.00  0.00    -0.127 C  
HETATM    3  C   UNL     1      -9.302  10.238  67.607  1.00  0.00    -0.158 C  
HETATM    4  C   UNL     1      -9.137   8.760  67.177  1.00  0.00    -0.155 A  
HETATM    5  C   UNL     1     -10.706  10.551  68.244  1.00  0.00    -0.270 C  
HETATM    6  C   UNL     1     -11.030   9.706  69.493  1.00  0.00    -0.233 C  
HETATM    7  C   UNL     1     -10.967  12.046  68.565  1.00  0.00    -0.240 C  
HETATM    8  C   UNL     1     -10.249   7.995  66.771  1.00  0.00    -0.367 A  
HETATM    9  C   UNL     1     -10.124   6.640  66.469  1.00  0.00    -0.072 A  
HETATM   10  C   UNL     1      -7.884   8.123  67.143  1.00  0.00    -0.101 A  
HETATM   11  C   UNL     1      -8.887   6.018  66.493  1.00  0.00    -0.131 A  
HETATM   12  O   UNL     1     -11.217   5.883  66.163  1.00  0.00    -0.691 OA 
HETATM   13  C   UNL     1      -7.760   6.767  66.813  1.00  0.00    -0.106 A  
HETATM   14  H   UNL     1     -11.131   4.959  65.957  1.00  0.00     0.000 HD 
ENDROOT
BRANCH   7  15
HETATM   15  N   UNL     1     -10.888  12.971  67.418  1.00  0.00    -0.248 NA 
HETATM   16  C   UNL     1     -11.746  12.545  66.306  1.00  0.00    -0.404 C  
HETATM   17  C   UNL     1     -11.294  14.317  67.852  1.00  0.00    -0.297 C  
ENDBRANCH   7  15
TORSDOF 1
ENDMDL
MODEL       82
REMARK 921   NORMALIZED FREE ENERGY PREDICTED BY IDOCK:   -3.48 KCAL/MOL
REMARK 922        TOTAL FREE ENERGY PREDICTED BY IDOCK:   -3.82 KCAL/MOL
REMARK 923 INTER-LIGAND FREE ENERGY PREDICTED BY IDOCK:   -3.74 KCAL/MOL
REMARK 924 INTRA-LIGAND FREE ENERGY PREDICTED BY IDOCK:   -0.08 KCAL/MOL
REMARK 927      BINDING AFFINITY PREDICTED BY RF-SCORE:    0.00 PKD
ROOT
HETATM    1  C   UNL     1     -13.429  15.578  70.189  1.00  0.00     0.528 C  
HETATM    2  C   UNL     1     -12.013  15.403  70.728  1.00  0.00    -0.402 C  
HETATM    3  C   UNL     1     -11.121  14.356  69.996  1.00  0.00    -0.125 C  
HETATM    4  C   UNL     1     -11.583  12.888  70.160  1.00  0.00    -0.131 A  
HETATM    5  C   UNL     1     -10.800  14.747  68.506  1.00  0.00    -0.255 C  
HETATM    6  C   UNL     1     -11.988  14.565  67.540  1.00  0.00    -0.358 C  
HETATM    7  C   UNL     1     -10.204  16.166  68.310  1.00  0.00    -0.248 C  
HETATM    8  C   UNL     1     -11.133  11.884  69.280  1.00  0.00    -0.264 A  
HETATM    9  C   UNL     1     -11.615  10.578  69.365  1.00  0.00    -0.246 A  
HETATM   10  C   UNL     1     -12.441  12.482  71.199  1.00  0.00    -0.322 A  
HETATM   11  C   UNL     1     -12.500  10.211  70.364  1.00  0.00    -0.243 A  
HETATM   12  O   UNL     1     -11.244   9.630  68.456  1.00  0.00    -0.477 OA 
HETATM   13  C   UNL     1     -12.900  11.162  71.296  1.00  0.00    -0.515 A  
HETATM   14  H   UNL     1     -11.573   8.740  68.514  1.00  0.00     0.000 HD 
ENDROOT
BRANCH   7  15
HETATM   15  N   UNL     1      -8.940  16.434  69.023  1.00  0.00    -0.254 NA 
HETATM   16  C   UNL     1      -7.916  15.425  68.730  1.00  0.00    -0.158 C  
HETATM   17  C   UNL     1      -8.436  17.760  68.633  1.00  0.00    -0.269 C  
ENDBRANCH   7  15
TORSDOF 1
ENDMDL
MODEL       83
REMARK 921   NORMALIZED FREE ENERGY PREDICTED BY IDOCK:   -3.47 KCAL/MOL
REMARK 922        TOTAL FREE ENERGY PREDICTED BY IDOCK:   -3.81 KCAL/MOL
REMARK 923 INTER-LIGAND FREE ENERGY PREDICTED BY IDOCK:   -3.71 KCAL/MOL
REMARK 924 INTRA-LIGAND FREE ENERGY PREDICTED BY IDOCK:   -0.10 KCAL/MOL
REMARK 927      BINDING AFFINITY PREDICTED BY RF-SCORE:    0.00 PKD
ROOT
HETATM    1  C   UNL     1     -12.940   8.372  71.503  1.00  0.00    -0.319 C  
HETATM    2  C   UNL     1     -11.720   9.266  71.702  1.00  0.00    -0.462 C  
HETATM    3  C   UNL     1     -10.339   8.636  71.351  1.00  0.00    -0.331 C  
HETATM    4  C   UNL     1      -9.899   7.483  72.284  1.00  0.00    -0.213 A  
HETATM    5  C   UNL     1     -10.182   8.297  69.822  1.00  0.00    -0.204 C  
HETATM    6  C   UNL     1     -10.979   7.057  69.370  1.00  0.00    -0.232 C  
HETATM    7  C   UNL     1     -10.482   9.469  68.851  1.00  0.00    -0.216 C  
HETATM    8  C   UNL     1      -8.894   6.577  71.893  1.00  0.00    -0.134 A  
HETATM    9  C   UNL     1      -8.555   5.484  72.689  1.00  0.00    -0.124 A  
HETATM   10  C   UNL     1     -10.453   7.301  73.565  1.00  0.00    -0.421 A  
HETATM   11  C   UNL     1      -9.151   5.292  73.924  1.00  0.00    -0.122 A  
HETATM   12  O   UNL     1      -7.644   4.560  72.266  1.00  0.00    -0.078 OA 
HETATM   13  C   UNL     1     -10.089   6.215  74.372  1.00  0.00    -0.337 A  
HETATM   14  H   UNL     1      -7.414   3.815  72.809  1.00  0.00     0.000 HD 
ENDROOT
BRANCH   7  15
HETATM   15  N   UNL     1      -9.653  10.677  69.029  1.00  0.00    -0.199 NA 
HETATM   16  C   UNL     1      -8.219  10.381  68.929  1.00  0.00    -0.132 C  
HETATM   17  C   UNL     1     -10.014  11.668  68.004  1.00  0.00    -0.188 C  
ENDBRANCH   7  15
TORSDOF 1
ENDMDL
MODEL       84
REMARK 921   NORMALIZED FREE ENERGY PREDICTED BY IDOCK:   -3.47 KCAL/MOL
REMARK 922        TOTAL FREE ENERGY PREDICTED BY IDOCK:   -3.81 KCAL/MOL
REMARK 923 INTER-LIGAND FREE ENERGY PREDICTED BY IDOCK:   -3.70 KCAL/MOL
REMARK 924 INTRA-LIGAND FREE ENERGY PREDICTED BY IDOCK:   -0.10 KCAL/MOL
REMARK 927      BINDING AFFINITY PREDICTED BY RF-SCORE:    0.00 PKD
ROOT
HETATM    1  C   UNL     1     -12.036  10.811  69.439  1.00  0.00    -0.353 C  
HETATM    2  C   UNL     1     -10.547  10.655  69.734  1.00  0.00    -0.233 C  
HETATM    3  C   UNL     1      -9.680  10.036  68.598  1.00  0.00    -0.165 C  
HETATM    4  C   UNL     1      -9.982   8.549  68.293  1.00  0.00    -0.211 A  
HETATM    5  C   UNL     1      -9.609  10.936  67.309  1.00  0.00    -0.184 C  
HETATM    6  C   UNL     1     -10.902  10.929  66.468  1.00  0.00    -0.234 C  
HETATM    7  C   UNL     1      -9.176  12.405  67.553  1.00  0.00    -0.183 C  
HETATM    8  C   UNL     1      -9.575   7.960  67.079  1.00  0.00    -0.247 A  
HETATM    9  C   UNL     1      -9.922   6.648  66.759  1.00  0.00    -0.176 A  
HETATM   10  C   UNL     1     -10.644   7.713  69.211  1.00  0.00    -0.206 A  
HETATM   11  C   UNL     1     -10.621   5.859  67.656  1.00  0.00    -0.335 A  
HETATM   12  O   UNL     1      -9.603   6.112  65.546  1.00  0.00    -0.362 OA 
HETATM   13  C   UNL     1     -10.966   6.387  68.895  1.00  0.00    -0.412 A  
HETATM   14  H   UNL     1      -9.839   5.218  65.327  1.00  0.00     0.000 HD 
ENDROOT
BRANCH   7  15
HETATM   15  N   UNL     1      -7.852  12.587  68.180  1.00  0.00    -0.141 NA 
HETATM   16  C   UNL     1      -6.780  11.959  67.398  1.00  0.00    -0.126 C  
HETATM   17  C   UNL     1      -7.573  14.025  68.314  1.00  0.00    -0.135 C  
ENDBRANCH   7  15
TORSDOF 1
ENDMDL
MODEL       85
REMARK 921   NORMALIZED FREE ENERGY PREDICTED BY IDOCK:   -3.46 KCAL/MOL
REMARK 922        TOTAL FREE ENERGY PREDICTED BY IDOCK:   -3.80 KCAL/MOL
REMARK 923 INTER-LIGAND FREE ENERGY PREDICTED BY IDOCK:   -4.09 KCAL/MOL
REMARK 924 INTRA-LIGAND FREE ENERGY PREDICTED BY IDOCK:    0.29 KCAL/MOL
REMARK 927      BINDING AFFINITY PREDICTED BY RF-SCORE:    0.00 PKD
ROOT
HETATM    1  C   UNL     1     -10.197  11.749  64.885  1.00  0.00    -0.315 C  
HETATM    2  C   UNL     1     -11.304  11.867  65.927  1.00  0.00    -0.365 C  
HETATM    3  C   UNL     1     -10.878  11.663  67.412  1.00  0.00    -0.298 C  
HETATM    4  C   UNL     1     -10.426  10.225  67.761  1.00  0.00    -0.269 A  
HETATM    5  C   UNL     1      -9.892  12.772  67.934  1.00  0.00    -0.223 C  
HETATM    6  C   UNL     1      -8.454  12.636  67.394  1.00  0.00    -0.186 C  
HETATM    7  C   UNL     1     -10.372  14.233  67.726  1.00  0.00    -0.238 C  
HETATM    8  C   UNL     1      -9.669   9.964  68.920  1.00  0.00    -0.176 A  
HETATM    9  C   UNL     1      -9.181   8.687  69.194  1.00  0.00    -0.152 A  
HETATM   10  C   UNL     1     -10.767   9.116  66.965  1.00  0.00    -0.189 A  
HETATM   11  C   UNL     1      -9.484   7.619  68.369  1.00  0.00    -0.150 A  
HETATM   12  O   UNL     1      -8.374   8.458  70.270  1.00  0.00    -0.116 OA 
HETATM   13  C   UNL     1     -10.296   7.830  67.260  1.00  0.00    -0.371 A  
HETATM   14  H   UNL     1      -8.041   7.587  70.457  1.00  0.00     0.000 HD 
ENDROOT
BRANCH   7  15
HETATM   15  N   UNL     1     -11.658  14.581  68.361  1.00  0.00    -0.309 NA 
HETATM   16  C   UNL     1     -11.992  13.674  69.466  1.00  0.00    -0.341 C  
HETATM   17  C   UNL     1     -11.589  15.959  68.872  1.00  0.00    -0.388 C  
ENDBRANCH   7  15
TORSDOF 1
ENDMDL
MODEL       86
REMARK 921   NORMALIZED FREE ENERGY PREDICTED BY IDOCK:   -3.45 KCAL/MOL
REMARK 922        TOTAL FREE ENERGY PREDICTED BY IDOCK:   -3.79 KCAL/MOL
REMARK 923 INTER-LIGAND FREE ENERGY PREDICTED BY IDOCK:   -3.66 KCAL/MOL
REMARK 924 INTRA-LIGAND FREE ENERGY PREDICTED BY IDOCK:   -0.12 KCAL/MOL
REMARK 927      BINDING AFFINITY PREDICTED BY RF-SCORE:    0.00 PKD
ROOT
HETATM    1  C   UNL     1      -9.271  11.237  68.576  1.00  0.00    -0.181 C  
HETATM    2  C   UNL     1     -10.410  10.312  68.159  1.00  0.00    -0.208 C  
HETATM    3  C   UNL     1     -10.113   9.346  66.973  1.00  0.00    -0.304 C  
HETATM    4  C   UNL     1      -9.909  10.044  65.607  1.00  0.00    -0.363 A  
HETATM    5  C   UNL     1      -9.002   8.281  67.302  1.00  0.00    -0.149 C  
HETATM    6  C   UNL     1      -7.571   8.856  67.328  1.00  0.00    -0.089 C  
HETATM    7  C   UNL     1      -9.238   7.459  68.596  1.00  0.00    -0.143 C  
HETATM    8  C   UNL     1      -9.274   9.379  64.540  1.00  0.00    -0.155 A  
HETATM    9  C   UNL     1      -9.006  10.031  63.337  1.00  0.00    -0.257 A  
HETATM   10  C   UNL     1     -10.367  11.351  65.356  1.00  0.00    -0.331 A  
HETATM   11  C   UNL     1      -9.418  11.336  63.129  1.00  0.00    -0.367 A  
HETATM   12  O   UNL     1      -8.311   9.411  62.340  1.00  0.00    -0.137 OA 
HETATM   13  C   UNL     1     -10.119  11.992  64.135  1.00  0.00    -0.340 A  
HETATM   14  H   UNL     1      -8.129   9.856  61.520  1.00  0.00     0.000 HD 
ENDROOT
BRANCH   7  15
HETATM   15  N   UNL     1     -10.492   6.683  68.642  1.00  0.00    -0.194 NA 
HETATM   16  C   UNL     1     -10.327   5.334  68.087  1.00  0.00    -0.114 C  
HETATM   17  C   UNL     1     -10.945   6.577  70.038  1.00  0.00    -0.332 C  
ENDBRANCH   7  15
TORSDOF 1
ENDMDL
MODEL       87
REMARK 921   NORMALIZED FREE ENERGY PREDICTED BY IDOCK:   -3.45 KCAL/MOL
REMARK 922        TOTAL FREE ENERGY PREDICTED BY IDOCK:   -3.79 KCAL/MOL
REMARK 923 INTER-LIGAND FREE ENERGY PREDICTED BY IDOCK:   -3.67 KCAL/MOL
REMARK 924 INTRA-LIGAND FREE ENERGY PREDICTED BY IDOCK:   -0.12 KCAL/MOL
REMARK 927      BINDING AFFINITY PREDICTED BY RF-SCORE:    0.00 PKD
ROOT
HETATM    1  C   UNL     1     -10.465  14.739  65.365  1.00  0.00    -0.401 C  
HETATM    2  C   UNL     1      -9.355  14.215  66.270  1.00  0.00    -0.215 C  
HETATM    3  C   UNL     1      -9.780  13.182  67.356  1.00  0.00    -0.220 C  
HETATM    4  C   UNL     1     -10.694  13.753  68.467  1.00  0.00    -0.274 A  
HETATM    5  C   UNL     1     -10.303  11.826  66.753  1.00  0.00    -0.251 C  
HETATM    6  C   UNL     1     -11.714  11.917  66.137  1.00  0.00    -0.217 C  
HETATM    7  C   UNL     1      -9.352  11.147  65.732  1.00  0.00    -0.214 C  
HETATM    8  C   UNL     1     -11.459  12.899  69.286  1.00  0.00    -0.341 A  
HETATM    9  C   UNL     1     -12.353  13.409  70.228  1.00  0.00    -0.284 A  
HETATM   10  C   UNL     1     -10.784  15.132  68.731  1.00  0.00    -0.239 A  
HETATM   11  C   UNL     1     -12.465  14.773  70.435  1.00  0.00    -0.405 A  
HETATM   12  O   UNL     1     -13.156  12.581  70.956  1.00  0.00    -0.134 OA 
HETATM   13  C   UNL     1     -11.663  15.637  69.697  1.00  0.00    -0.373 A  
HETATM   14  H   UNL     1     -13.765  12.929  71.598  1.00  0.00     0.000 HD 
ENDROOT
BRANCH   7  15
HETATM   15  N   UNL     1      -8.006  10.811  66.237  1.00  0.00    -0.156 NA 
HETATM   16  C   UNL     1      -7.985   9.518  66.932  1.00  0.00    -0.109 C  
HETATM   17  C   UNL     1      -7.063  10.767  65.109  1.00  0.00     0.166 C  
ENDBRANCH   7  15
TORSDOF 1
ENDMDL
MODEL       88
REMARK 921   NORMALIZED FREE ENERGY PREDICTED BY IDOCK:   -3.42 KCAL/MOL
REMARK 922        TOTAL FREE ENERGY PREDICTED BY IDOCK:   -3.76 KCAL/MOL
REMARK 923 INTER-LIGAND FREE ENERGY PREDICTED BY IDOCK:   -3.71 KCAL/MOL
REMARK 924 INTRA-LIGAND FREE ENERGY PREDICTED BY IDOCK:   -0.05 KCAL/MOL
REMARK 927      BINDING AFFINITY PREDICTED BY RF-SCORE:    0.00 PKD
ROOT
HETATM    1  C   UNL     1      -9.629  13.854  65.438  1.00  0.00     0.044 C  
HETATM    2  C   UNL     1      -9.107  13.115  66.666  1.00  0.00    -0.180 C  
HETATM    3  C   UNL     1     -10.088  12.999  67.870  1.00  0.00    -0.235 C  
HETATM    4  C   UNL     1     -10.417  14.341  68.566  1.00  0.00    -0.253 A  
HETATM    5  C   UNL     1     -11.362  12.132  67.551  1.00  0.00    -0.392 C  
HETATM    6  C   UNL     1     -12.391  12.839  66.647  1.00  0.00     0.043 C  
HETATM    7  C   UNL     1     -11.072  10.720  66.977  1.00  0.00    -0.174 C  
HETATM    8  C   UNL     1     -11.547  14.468  69.399  1.00  0.00    -0.343 A  
HETATM    9  C   UNL     1     -11.901  15.696  69.957  1.00  0.00    -0.367 A  
HETATM   10  C   UNL     1      -9.602  15.479  68.428  1.00  0.00    -0.199 A  
HETATM   11  C   UNL     1     -11.112  16.817  69.765  1.00  0.00    -0.021 A  
HETATM   12  O   UNL     1     -13.044  15.834  70.689  1.00  0.00    -0.637 OA 
HETATM   13  C   UNL     1      -9.947  16.704  69.014  1.00  0.00    -0.280 A  
HETATM   14  H   UNL     1     -13.285  16.671  71.069  1.00  0.00     0.000 HD 
ENDROOT
BRANCH   7  15
HETATM   15  N   UNL     1     -10.252   9.837  67.830  1.00  0.00    -0.194 NA 
HETATM   16  C   UNL     1     -10.726   9.815  69.218  1.00  0.00    -0.224 C  
HETATM   17  C   UNL     1     -10.287   8.471  67.286  1.00  0.00    -0.302 C  
ENDBRANCH   7  15
TORSDOF 1
ENDMDL
MODEL       89
REMARK 921   NORMALIZED FREE ENERGY PREDICTED BY IDOCK:   -3.42 KCAL/MOL
REMARK 922        TOTAL FREE ENERGY PREDICTED BY IDOCK:   -3.75 KCAL/MOL
REMARK 923 INTER-LIGAND FREE ENERGY PREDICTED BY IDOCK:   -3.62 KCAL/MOL
REMARK 924 INTRA-LIGAND FREE ENERGY PREDICTED BY IDOCK:   -0.14 KCAL/MOL
REMARK 927      BINDING AFFINITY PREDICTED BY RF-SCORE:    0.00 PKD
ROOT
HETATM    1  C   UNL     1     -10.921   6.517  67.440  1.00  0.00    -0.458 C  
HETATM    2  C   UNL     1      -9.633   7.223  67.854  1.00  0.00    -0.153 C  
HETATM    3  C   UNL     1      -9.194   7.041  69.337  1.00  0.00    -0.147 C  
HETATM    4  C   UNL     1     -10.131   7.705  70.374  1.00  0.00    -0.190 A  
HETATM    5  C   UNL     1      -8.817   5.556  69.696  1.00  0.00    -0.120 C  
HETATM    6  C   UNL     1     -10.033   4.617  69.832  1.00  0.00    -0.296 C  
HETATM    7  C   UNL     1      -7.773   4.895  68.758  1.00  0.00    -0.077 C  
HETATM    8  C   UNL     1     -10.096   7.325  71.731  1.00  0.00    -0.193 A  
HETATM    9  C   UNL     1     -10.998   7.853  72.654  1.00  0.00    -0.378 A  
HETATM   10  C   UNL     1     -11.033   8.727  70.026  1.00  0.00    -0.216 A  
HETATM   11  C   UNL     1     -11.914   8.820  72.278  1.00  0.00    -0.415 A  
HETATM   12  O   UNL     1     -11.019   7.417  73.946  1.00  0.00    -0.536 OA 
HETATM   13  C   UNL     1     -11.919   9.273  70.964  1.00  0.00    -0.369 A  
HETATM   14  H   UNL     1     -11.634   7.777  74.575  1.00  0.00     0.000 HD 
ENDROOT
BRANCH   7  15
HETATM   15  N   UNL     1      -6.467   5.576  68.673  1.00  0.00    -0.041 NA 
HETATM   16  C   UNL     1      -5.387   4.774  69.258  1.00  0.00    -0.008 C  
HETATM   17  C   UNL     1      -6.154   5.848  67.261  1.00  0.00    -0.018 C  
ENDBRANCH   7  15
TORSDOF 1
ENDMDL
MODEL       90
REMARK 921   NORMALIZED FREE ENERGY PREDICTED BY IDOCK:   -3.36 KCAL/MOL
REMARK 922        TOTAL FREE ENERGY PREDICTED BY IDOCK:   -3.69 KCAL/MOL
REMARK 923 INTER-LIGAND FREE ENERGY PREDICTED BY IDOCK:   -3.63 KCAL/MOL
REMARK 924 INTRA-LIGAND FREE ENERGY PREDICTED BY IDOCK:   -0.06 KCAL/MOL
REMARK 927      BINDING AFFINITY PREDICTED BY RF-SCORE:    0.00 PKD
ROOT
HETATM    1  C   UNL     1      -7.224  15.634  66.608  1.00  0.00     0.317 C  
HETATM    2  C   UNL     1      -8.505  16.355  66.201  1.00  0.00    -0.329 C  
HETATM    3  C   UNL     1      -9.750  16.113  67.107  1.00  0.00    -0.236 C  
HETATM    4  C   UNL     1     -10.307  14.670  67.065  1.00  0.00    -0.263 A  
HETATM    5  C   UNL     1      -9.574  16.673  68.567  1.00  0.00    -0.241 C  
HETATM    6  C   UNL     1      -8.635  15.829  69.453  1.00  0.00    -0.225 C  
HETATM    7  C   UNL     1      -9.146  18.161  68.656  1.00  0.00    -0.277 C  
HETATM    8  C   UNL     1     -11.162  14.193  68.079  1.00  0.00    -0.302 A  
HETATM    9  C   UNL     1     -11.595  12.868  68.097  1.00  0.00    -0.336 A  
HETATM   10  C   UNL     1     -10.017  13.782  66.013  1.00  0.00    -0.319 A  
HETATM   11  C   UNL     1     -11.254  11.995  67.078  1.00  0.00    -0.377 A  
HETATM   12  O   UNL     1     -12.349  12.388  69.127  1.00  0.00    -0.086 OA 
HETATM   13  C   UNL     1     -10.477  12.459  66.022  1.00  0.00    -0.281 A  
HETATM   14  H   UNL     1     -12.644  11.484  69.139  1.00  0.00     0.000 HD 
ENDROOT
BRANCH   7  15
HETATM   15  N   UNL     1     -10.059  19.129  68.017  1.00  0.00    -0.374 NA 
HETATM   16  C   UNL     1     -10.476  20.189  68.943  1.00  0.00     0.062 C  
HETATM   17  C   UNL     1      -9.387  19.737  66.858  1.00  0.00    -0.366 C  
ENDBRANCH   7  15
TORSDOF 1
ENDMDL
MODEL       91
REMARK 921   NORMALIZED FREE ENERGY PREDICTED BY IDOCK:   -3.33 KCAL/MOL
REMARK 922        TOTAL FREE ENERGY PREDICTED BY IDOCK:   -3.66 KCAL/MOL
REMARK 923 INTER-LIGAND FREE ENERGY PREDICTED BY IDOCK:   -3.61 KCAL/MOL
REMARK 924 INTRA-LIGAND FREE ENERGY PREDICTED BY IDOCK:   -0.06 KCAL/MOL
REMARK 927      BINDING AFFINITY PREDICTED BY RF-SCORE:    0.00 PKD
ROOT
HETATM    1  C   UNL     1      -7.818   7.265  70.052  1.00  0.00    -0.111 C  
HETATM    2  C   UNL     1      -8.795   8.362  70.464  1.00  0.00    -0.156 C  
HETATM    3  C   UNL     1      -9.900   8.726  69.428  1.00  0.00    -0.186 C  
HETATM    4  C   UNL     1      -9.377   9.397  68.135  1.00  0.00    -0.142 A  
HETATM    5  C   UNL     1     -10.909   7.549  69.157  1.00  0.00    -0.105 C  
HETATM    6  C   UNL     1     -10.328   6.412  68.293  1.00  0.00    -0.228 C  
HETATM    7  C   UNL     1     -11.563   6.936  70.423  1.00  0.00    -0.335 C  
HETATM    8  C   UNL     1     -10.168   9.440  66.970  1.00  0.00    -0.322 A  
HETATM    9  C   UNL     1      -9.670   9.961  65.776  1.00  0.00    -0.266 A  
HETATM   10  C   UNL     1      -8.115  10.015  68.067  1.00  0.00    -0.112 A  
HETATM   11  C   UNL     1      -8.404  10.517  65.717  1.00  0.00    -0.166 A  
HETATM   12  O   UNL     1     -10.407   9.919  64.628  1.00  0.00    -0.292 OA 
HETATM   13  C   UNL     1      -7.631  10.562  66.872  1.00  0.00    -0.110 A  
HETATM   14  H   UNL     1     -10.067  10.275  63.815  1.00  0.00     0.000 HD 
ENDROOT
BRANCH   7  15
HETATM   15  N   UNL     1     -12.335   7.873  71.263  1.00  0.00    -0.302 NA 
HETATM   16  C   UNL     1     -13.704   7.401  71.501  1.00  0.00    -0.371 C  
HETATM   17  C   UNL     1     -11.651   8.041  72.555  1.00  0.00    -0.403 C  
ENDBRANCH   7  15
TORSDOF 1
ENDMDL
MODEL       92
REMARK 921   NORMALIZED FREE ENERGY PREDICTED BY IDOCK:   -3.33 KCAL/MOL
REMARK 922        TOTAL FREE ENERGY PREDICTED BY IDOCK:   -3.66 KCAL/MOL
REMARK 923 INTER-LIGAND FREE ENERGY PREDICTED BY IDOCK:   -3.54 KCAL/MOL
REMARK 924 INTRA-LIGAND FREE ENERGY PREDICTED BY IDOCK:   -0.11 KCAL/MOL
REMARK 927      BINDING AFFINITY PREDICTED BY RF-SCORE:    0.00 PKD
ROOT
HETATM    1  C   UNL     1     -11.224  12.430  65.343  1.00  0.00    -0.358 C  
HETATM    2  C   UNL     1      -9.936  12.696  66.116  1.00  0.00    -0.269 C  
HETATM    3  C   UNL     1      -9.611  11.707  67.275  1.00  0.00    -0.182 C  
HETATM    4  C   UNL     1     -10.585  11.776  68.475  1.00  0.00    -0.242 A  
HETATM    5  C   UNL     1      -9.334  10.239  66.779  1.00  0.00    -0.187 C  
HETATM    6  C   UNL     1     -10.600   9.475  66.343  1.00  0.00    -0.083 C  
HETATM    7  C   UNL     1      -8.260  10.110  65.667  1.00  0.00    -0.150 C  
HETATM    8  C   UNL     1     -10.664  10.722  69.407  1.00  0.00    -0.272 A  
HETATM    9  C   UNL     1     -11.602  10.736  70.439  1.00  0.00    -0.339 A  
HETATM   10  C   UNL     1     -11.409  12.892  68.710  1.00  0.00    -0.333 A  
HETATM   11  C   UNL     1     -12.441  11.822  70.620  1.00  0.00    -0.364 A  
HETATM   12  O   UNL     1     -11.734   9.674  71.284  1.00  0.00    -0.323 OA 
HETATM   13  C   UNL     1     -12.331  12.912  69.765  1.00  0.00    -0.118 A  
HETATM   14  H   UNL     1     -12.374   9.684  71.987  1.00  0.00     0.000 HD 
ENDROOT
BRANCH   7  15
HETATM   15  N   UNL     1      -6.919  10.623  66.008  1.00  0.00    -0.133 NA 
HETATM   16  C   UNL     1      -6.337   9.924  67.159  1.00  0.00    -0.068 C  
HETATM   17  C   UNL     1      -6.030  10.465  64.847  1.00  0.00    -0.122 C  
ENDBRANCH   7  15
TORSDOF 1
ENDMDL
MODEL       93
REMARK 921   NORMALIZED FREE ENERGY PREDICTED BY IDOCK:   -3.32 KCAL/MOL
REMARK 922        TOTAL FREE ENERGY PREDICTED BY IDOCK:   -3.65 KCAL/MOL
REMARK 923 INTER-LIGAND FREE ENERGY PREDICTED BY IDOCK:   -3.53 KCAL/MOL
REMARK 924 INTRA-LIGAND FREE ENERGY PREDICTED BY IDOCK:   -0.12 KCAL/MOL
REMARK 927      BINDING AFFINITY PREDICTED BY RF-SCORE:    0.00 PKD
ROOT
HETATM    1  C   UNL     1      -6.784   4.500  68.769  1.00  0.00    -0.046 C  
HETATM    2  C   UNL     1      -7.958   3.594  68.410  1.00  0.00    -0.072 C  
HETATM    3  C   UNL     1      -9.340   4.292  68.240  1.00  0.00    -0.207 C  
HETATM    4  C   UNL     1      -9.930   4.880  69.544  1.00  0.00    -0.295 A  
HETATM    5  C   UNL     1      -9.386   5.293  67.026  1.00  0.00    -0.123 C  
HETATM    6  C   UNL     1      -8.632   6.615  67.275  1.00  0.00    -0.119 C  
HETATM    7  C   UNL     1      -8.930   4.702  65.666  1.00  0.00    -0.138 C  
HETATM    8  C   UNL     1     -10.954   5.848  69.504  1.00  0.00    -0.438 A  
HETATM    9  C   UNL     1     -11.428   6.449  70.670  1.00  0.00    -0.362 A  
HETATM   10  C   UNL     1      -9.502   4.464  70.817  1.00  0.00    -0.243 A  
HETATM   11  C   UNL     1     -10.954   6.062  71.911  1.00  0.00    -0.316 A  
HETATM   12  O   UNL     1     -12.354   7.449  70.620  1.00  0.00    -0.537 OA 
HETATM   13  C   UNL     1     -10.001   5.052  71.987  1.00  0.00    -0.239 A  
HETATM   14  H   UNL     1     -12.677   7.858  71.415  1.00  0.00     0.000 HD 
ENDROOT
BRANCH   7  15
HETATM   15  N   UNL     1      -9.695   3.534  65.187  1.00  0.00    -0.157 NA 
HETATM   16  C   UNL     1     -10.872   3.929  64.405  1.00  0.00    -0.127 C  
HETATM   17  C   UNL     1      -8.822   2.693  64.353  1.00  0.00    -0.106 C  
ENDBRANCH   7  15
TORSDOF 1
ENDMDL
MODEL       94
REMARK 921   NORMALIZED FREE ENERGY PREDICTED BY IDOCK:   -3.21 KCAL/MOL
REMARK 922        TOTAL FREE ENERGY PREDICTED BY IDOCK:   -3.53 KCAL/MOL
REMARK 923 INTER-LIGAND FREE ENERGY PREDICTED BY IDOCK:   -3.40 KCAL/MOL
REMARK 924 INTRA-LIGAND FREE ENERGY PREDICTED BY IDOCK:   -0.14 KCAL/MOL
REMARK 927      BINDING AFFINITY PREDICTED BY RF-SCORE:    0.00 PKD
ROOT
HETATM    1  C   UNL     1      -9.732   9.709  68.306  1.00  0.00    -0.162 C  
HETATM    2  C   UNL     1      -9.887   9.726  66.788  1.00  0.00    -0.265 C  
HETATM    3  C   UNL     1      -9.368  11.000  66.057  1.00  0.00    -0.225 C  
HETATM    4  C   UNL     1     -10.172  12.288  66.357  1.00  0.00    -0.247 A  
HETATM    5  C   UNL     1      -7.811  11.193  66.175  1.00  0.00    -0.072 C  
HETATM    6  C   UNL     1      -7.343  11.673  67.564  1.00  0.00    -0.119 C  
HETATM    7  C   UNL     1      -6.959   9.967  65.753  1.00  0.00    -0.112 C  
HETATM    8  C   UNL     1      -9.627  13.560  66.092  1.00  0.00    -0.219 A  
HETATM    9  C   UNL     1     -10.308  14.726  66.443  1.00  0.00    -0.293 A  
HETATM   10  C   UNL     1     -11.480  12.254  66.874  1.00  0.00    -0.418 A  
HETATM   11  C   UNL     1     -11.573  14.669  67.000  1.00  0.00    -0.385 A  
HETATM   12  O   UNL     1      -9.738  15.953  66.267  1.00  0.00    -0.262 OA 
HETATM   13  C   UNL     1     -12.170  13.429  67.199  1.00  0.00    -0.306 A  
HETATM   14  H   UNL     1     -10.202  16.747  66.505  1.00  0.00     0.000 HD 
ENDROOT
BRANCH   7  15
HETATM   15  N   UNL     1      -7.150   9.503  64.365  1.00  0.00    -0.103 NA 
HETATM   16  C   UNL     1      -6.025   9.872  63.499  1.00  0.00    -0.119 C  
HETATM   17  C   UNL     1      -7.302   8.039  64.361  1.00  0.00    -0.090 C  
ENDBRANCH   7  15
TORSDOF 1
ENDMDL
MODEL       95
REMARK 921   NORMALIZED FREE ENERGY PREDICTED BY IDOCK:   -3.20 KCAL/MOL
REMARK 922        TOTAL FREE ENERGY PREDICTED BY IDOCK:   -3.53 KCAL/MOL
REMARK 923 INTER-LIGAND FREE ENERGY PREDICTED BY IDOCK:   -3.41 KCAL/MOL
REMARK 924 INTRA-LIGAND FREE ENERGY PREDICTED BY IDOCK:   -0.12 KCAL/MOL
REMARK 927      BINDING AFFINITY PREDICTED BY RF-SCORE:    0.00 PKD
ROOT
HETATM    1  C   UNL     1     -10.454   6.329  68.942  1.00  0.00    -0.280 C  
HETATM    2  C   UNL     1     -10.949   6.341  67.499  1.00  0.00    -0.444 C  
HETATM    3  C   UNL     1     -10.014   7.022  66.455  1.00  0.00    -0.163 C  
HETATM    4  C   UNL     1      -9.860   8.552  66.629  1.00  0.00    -0.342 A  
HETATM    5  C   UNL     1      -8.643   6.273  66.267  1.00  0.00    -0.138 C  
HETATM    6  C   UNL     1      -7.656   6.471  67.435  1.00  0.00    -0.100 C  
HETATM    7  C   UNL     1      -8.756   4.758  65.954  1.00  0.00    -0.124 C  
HETATM    8  C   UNL     1      -8.788   9.245  66.032  1.00  0.00    -0.191 A  
HETATM    9  C   UNL     1      -8.591  10.607  66.258  1.00  0.00    -0.153 A  
HETATM   10  C   UNL     1     -10.785   9.322  67.357  1.00  0.00    -0.263 A  
HETATM   11  C   UNL     1      -9.485  11.337  67.022  1.00  0.00    -0.186 A  
HETATM   12  O   UNL     1      -7.503  11.254  65.751  1.00  0.00    -0.368 OA 
HETATM   13  C   UNL     1     -10.597  10.696  67.558  1.00  0.00    -0.297 A  
HETATM   14  H   UNL     1      -7.369  12.183  65.905  1.00  0.00     0.000 HD 
ENDROOT
BRANCH   7  15
HETATM   15  N   UNL     1      -9.515   4.410  64.737  1.00  0.00    -0.161 NA 
HETATM   16  C   UNL     1      -8.859   4.898  63.519  1.00  0.00    -0.074 C  
HETATM   17  C   UNL     1      -9.657   2.948  64.656  1.00  0.00    -0.126 C  
ENDBRANCH   7  15
TORSDOF 1
ENDMDL
MODEL       96
REMARK 921   NORMALIZED FREE ENERGY PREDICTED BY IDOCK:   -3.17 KCAL/MOL
REMARK 922        TOTAL FREE ENERGY PREDICTED BY IDOCK:   -3.49 KCAL/MOL
REMARK 923 INTER-LIGAND FREE ENERGY PREDICTED BY IDOCK:   -4.13 KCAL/MOL
REMARK 924 INTRA-LIGAND FREE ENERGY PREDICTED BY IDOCK:    0.64 KCAL/MOL
REMARK 927      BINDING AFFINITY PREDICTED BY RF-SCORE:    0.00 PKD
ROOT
HETATM    1  C   UNL     1     -10.475   8.132  66.771  1.00  0.00    -0.316 C  
HETATM    2  C   UNL     1      -9.247   9.026  66.920  1.00  0.00    -0.179 C  
HETATM    3  C   UNL     1      -9.479  10.406  67.604  1.00  0.00    -0.165 C  
HETATM    4  C   UNL     1     -10.349  11.392  66.789  1.00  0.00    -0.271 A  
HETATM    5  C   UNL     1      -9.914  10.287  69.112  1.00  0.00    -0.235 C  
HETATM    6  C   UNL     1     -11.373   9.828  69.308  1.00  0.00    -0.059 C  
HETATM    7  C   UNL     1      -8.988   9.414  69.999  1.00  0.00    -0.212 C  
HETATM    8  C   UNL     1     -10.957  12.504  67.407  1.00  0.00    -0.297 A  
HETATM    9  C   UNL     1     -11.815  13.345  66.700  1.00  0.00    -0.395 A  
HETATM   10  C   UNL     1     -10.551  11.248  65.405  1.00  0.00    -0.312 A  
HETATM   11  C   UNL     1     -12.043  13.154  65.348  1.00  0.00    -0.478 A  
HETATM   12  O   UNL     1     -12.471  14.366  67.323  1.00  0.00    -0.601 OA 
HETATM   13  C   UNL     1     -11.393  12.113  64.694  1.00  0.00    -0.382 A  
HETATM   14  H   UNL     1     -13.056  14.940  66.841  1.00  0.00     0.000 HD 
ENDROOT
BRANCH   7  15
HETATM   15  N   UNL     1      -7.579   9.847  70.075  1.00  0.00    -0.159 NA 
HETATM   16  C   UNL     1      -6.667   8.866  69.475  1.00  0.00    -0.047 C  
HETATM   17  C   UNL     1      -7.430  11.134  69.377  1.00  0.00    -0.026 C  
ENDBRANCH   7  15
TORSDOF 1
ENDMDL
MODEL       97
REMARK 921   NORMALIZED FREE ENERGY PREDICTED BY IDOCK:   -3.17 KCAL/MOL
REMARK 922        TOTAL FREE ENERGY PREDICTED BY IDOCK:   -3.49 KCAL/MOL
REMARK 923 INTER-LIGAND FREE ENERGY PREDICTED BY IDOCK:   -3.37 KCAL/MOL
REMARK 924 INTRA-LIGAND FREE ENERGY PREDICTED BY IDOCK:   -0.12 KCAL/MOL
REMARK 927      BINDING AFFINITY PREDICTED BY RF-SCORE:    0.00 PKD
ROOT
HETATM    1  C   UNL     1     -12.214  13.027  68.379  1.00  0.00    -0.029 C  
HETATM    2  C   UNL     1     -10.999  13.673  69.039  1.00  0.00    -0.271 C  
HETATM    3  C   UNL     1      -9.699  13.732  68.183  1.00  0.00    -0.227 C  
HETATM    4  C   UNL     1      -9.059  12.355  67.886  1.00  0.00    -0.191 A  
HETATM    5  C   UNL     1      -9.836  14.645  66.909  1.00  0.00    -0.252 C  
HETATM    6  C   UNL     1     -10.677  14.021  65.777  1.00  0.00    -0.294 C  
HETATM    7  C   UNL     1     -10.346  16.085  67.180  1.00  0.00    -0.295 C  
HETATM    8  C   UNL     1      -8.129  12.198  66.839  1.00  0.00    -0.112 A  
HETATM    9  C   UNL     1      -7.616  10.944  66.508  1.00  0.00    -0.142 A  
HETATM   10  C   UNL     1      -9.348  11.211  68.652  1.00  0.00    -0.186 A  
HETATM   11  C   UNL     1      -7.955   9.822  67.242  1.00  0.00    -0.106 A  
HETATM   12  O   UNL     1      -6.784  10.784  65.438  1.00  0.00    -0.320 OA 
HETATM   13  C   UNL     1      -8.809   9.958  68.331  1.00  0.00    -0.120 A  
HETATM   14  H   UNL     1      -6.435   9.930  65.212  1.00  0.00     0.000 HD 
ENDROOT
BRANCH   7  15
HETATM   15  N   UNL     1      -9.526  16.892  68.104  1.00  0.00    -0.245 NA 
HETATM   16  C   UNL     1      -8.236  17.268  67.512  1.00  0.00    -0.195 C  
HETATM   17  C   UNL     1     -10.264  18.112  68.467  1.00  0.00    -0.384 C  
ENDBRANCH   7  15
TORSDOF 1
ENDMDL
MODEL       98
REMARK 921   NORMALIZED FREE ENERGY PREDICTED BY IDOCK:   -3.16 KCAL/MOL
REMARK 922        TOTAL FREE ENERGY PREDICTED BY IDOCK:   -3.48 KCAL/MOL
REMARK 923 INTER-LIGAND FREE ENERGY PREDICTED BY IDOCK:   -3.41 KCAL/MOL
REMARK 924 INTRA-LIGAND FREE ENERGY PREDICTED BY IDOCK:   -0.07 KCAL/MOL
REMARK 927      BINDING AFFINITY PREDICTED BY RF-SCORE:    0.00 PKD
ROOT
HETATM    1  C   UNL     1     -11.835  11.117  68.600  1.00  0.00    -0.357 C  
HETATM    2  C   UNL     1     -10.400  11.106  69.116  1.00  0.00    -0.186 C  
HETATM    3  C   UNL     1      -9.649   9.743  69.037  1.00  0.00    -0.177 C  
HETATM    4  C   UNL     1     -10.208   8.644  69.972  1.00  0.00    -0.201 A  
HETATM    5  C   UNL     1      -9.414   9.248  67.562  1.00  0.00    -0.160 C  
HETATM    6  C   UNL     1     -10.683   8.708  66.872  1.00  0.00    -0.152 C  
HETATM    7  C   UNL     1      -8.728  10.275  66.622  1.00  0.00    -0.127 C  
HETATM    8  C   UNL     1      -9.904   7.285  69.755  1.00  0.00    -0.177 A  
HETATM    9  C   UNL     1     -10.476   6.282  70.538  1.00  0.00    -0.221 A  
HETATM   10  C   UNL     1     -11.012   8.943  71.087  1.00  0.00    -0.356 A  
HETATM   11  C   UNL     1     -11.308   6.596  71.599  1.00  0.00    -0.319 A  
HETATM   12  O   UNL     1     -10.250   4.964  70.269  1.00  0.00    -0.252 OA 
HETATM   13  C   UNL     1     -11.561   7.933  71.886  1.00  0.00    -0.338 A  
HETATM   14  H   UNL     1     -10.639   4.281  70.802  1.00  0.00     0.000 HD 
ENDROOT
BRANCH   7  15
HETATM   15  N   UNL     1      -7.397  10.746  67.050  1.00  0.00    -0.104 NA 
HETATM   16  C   UNL     1      -6.377  10.533  66.017  1.00  0.00    -0.124 C  
HETATM   17  C   UNL     1      -7.470  12.180  67.368  1.00  0.00    -0.156 C  
ENDBRANCH   7  15
TORSDOF 1
ENDMDL
MODEL       99
REMARK 921   NORMALIZED FREE ENERGY PREDICTED BY IDOCK:   -3.13 KCAL/MOL
REMARK 922        TOTAL FREE ENERGY PREDICTED BY IDOCK:   -3.45 KCAL/MOL
REMARK 923 INTER-LIGAND FREE ENERGY PREDICTED BY IDOCK:   -4.01 KCAL/MOL
REMARK 924 INTRA-LIGAND FREE ENERGY PREDICTED BY IDOCK:    0.56 KCAL/MOL
REMARK 927      BINDING AFFINITY PREDICTED BY RF-SCORE:    0.00 PKD
ROOT
HETATM    1  C   UNL     1      -6.921  11.162  67.523  1.00  0.00    -0.088 C  
HETATM    2  C   UNL     1      -8.006  11.524  68.532  1.00  0.00    -0.143 C  
HETATM    3  C   UNL     1      -9.337  12.081  67.943  1.00  0.00    -0.190 C  
HETATM    4  C   UNL     1      -9.213  13.470  67.272  1.00  0.00    -0.233 A  
HETATM    5  C   UNL     1     -10.117  11.031  67.068  1.00  0.00    -0.232 C  
HETATM    6  C   UNL     1      -9.488  10.780  65.683  1.00  0.00    -0.250 C  
HETATM    7  C   UNL     1     -10.383   9.666  67.756  1.00  0.00    -0.236 C  
HETATM    8  C   UNL     1     -10.200  13.934  66.380  1.00  0.00    -0.292 A  
HETATM    9  C   UNL     1     -10.052  15.144  65.702  1.00  0.00    -0.363 A  
HETATM   10  C   UNL     1      -8.140  14.339  67.537  1.00  0.00    -0.200 A  
HETATM   11  C   UNL     1      -8.960  15.961  65.938  1.00  0.00    -0.251 A  
HETATM   12  O   UNL     1     -10.966  15.547  64.773  1.00  0.00    -0.520 OA 
HETATM   13  C   UNL     1      -8.010  15.567  66.873  1.00  0.00    -0.264 A  
HETATM   14  H   UNL     1     -10.865  16.372  64.312  1.00  0.00     0.000 HD 
ENDROOT
BRANCH   7  15
HETATM   15  N   UNL     1     -11.158   9.722  69.010  1.00  0.00    -0.158 NA 
HETATM   16  C   UNL     1     -10.318   9.481  70.189  1.00  0.00    -0.255 C  
HETATM   17  C   UNL     1     -11.791  11.044  69.131  1.00  0.00    -0.337 C  
ENDBRANCH   7  15
TORSDOF 1
ENDMDL
MODEL      100
REMARK 921   NORMALIZED FREE ENERGY PREDICTED BY IDOCK:   -3.10 KCAL/MOL
REMARK 922        TOTAL FREE ENERGY PREDICTED BY IDOCK:   -3.42 KCAL/MOL
REMARK 923 INTER-LIGAND FREE ENERGY PREDICTED BY IDOCK:   -3.35 KCAL/MOL
REMARK 924 INTRA-LIGAND FREE ENERGY PREDICTED BY IDOCK:   -0.07 KCAL/MOL
REMARK 927      BINDING AFFINITY PREDICTED BY RF-SCORE:    0.00 PKD
ROOT
HETATM    1  C   UNL     1      -9.786   8.838  69.350  1.00  0.00    -0.172 C  
HETATM    2  C   UNL     1     -10.770   7.872  70.002  1.00  0.00    -0.244 C  
HETATM    3  C   UNL     1     -10.363   6.368  70.003  1.00  0.00    -0.245 C  
HETATM    4  C   UNL     1     -10.328   5.708  68.604  1.00  0.00    -0.277 A  
HETATM    5  C   UNL     1      -9.080   6.073  70.865  1.00  0.00    -0.161 C  
HETATM    6  C   UNL     1      -7.764   6.537  70.209  1.00  0.00    -0.098 C  
HETATM    7  C   UNL     1      -9.128   6.601  72.323  1.00  0.00    -0.137 C  
HETATM    8  C   UNL     1      -9.632   4.502  68.388  1.00  0.00    -0.207 A  
HETATM    9  C   UNL     1      -9.520   3.949  67.113  1.00  0.00    -0.201 A  
HETATM   10  C   UNL     1     -11.004   6.255  67.498  1.00  0.00    -0.444 A  
HETATM   11  C   UNL     1     -10.150   4.533  66.028  1.00  0.00    -0.282 A  
HETATM   12  O   UNL     1      -8.771   2.830  66.895  1.00  0.00    -0.103 OA 
HETATM   13  C   UNL     1     -10.911   5.680  66.224  1.00  0.00    -0.082 A  
HETATM   14  H   UNL     1      -8.695   2.453  66.026  1.00  0.00     0.000 HD 
ENDROOT
BRANCH   7  15
HETATM   15  N   UNL     1     -10.234   6.086  73.154  1.00  0.00    -0.187 NA 
HETATM   16  C   UNL     1     -10.321   4.622  73.112  1.00  0.00    -0.180 C  
HETATM   17  C   UNL     1     -10.036   6.518  74.546  1.00  0.00    -0.334 C  
ENDBRANCH   7  15
TORSDOF 1
ENDMDL
MODEL      101
REMARK 921   NORMALIZED FREE ENERGY PREDICTED BY IDOCK:   -3.08 KCAL/MOL
REMARK 922        TOTAL FREE ENERGY PREDICTED BY IDOCK:   -3.40 KCAL/MOL
REMARK 923 INTER-LIGAND FREE ENERGY PREDICTED BY IDOCK:   -3.26 KCAL/MOL
REMARK 924 INTRA-LIGAND FREE ENERGY PREDICTED BY IDOCK:   -0.14 KCAL/MOL
REMARK 927      BINDING AFFINITY PREDICTED BY RF-SCORE:    0.00 PKD
ROOT
HETATM    1  C   UNL     1     -10.189   7.754  67.348  1.00  0.00    -0.320 C  
HETATM    2  C   UNL     1     -11.156   6.760  67.984  1.00  0.00    -0.246 C  
HETATM    3  C   UNL     1     -10.519   5.493  68.629  1.00  0.00    -0.240 C  
HETATM    4  C   UNL     1      -9.860   4.519  67.623  1.00  0.00    -0.181 A  
HETATM    5  C   UNL     1      -9.608   5.820  69.870  1.00  0.00    -0.201 C  
HETATM    6  C   UNL     1      -8.247   6.445  69.501  1.00  0.00    -0.118 C  
HETATM    7  C   UNL     1     -10.277   6.684  70.971  1.00  0.00    -0.191 C  
HETATM    8  C   UNL     1      -8.932   3.550  68.053  1.00  0.00    -0.174 A  
HETATM    9  C   UNL     1      -8.268   2.730  67.143  1.00  0.00    -0.081 A  
HETATM   10  C   UNL     1     -10.172   4.532  66.251  1.00  0.00    -0.270 A  
HETATM   11  C   UNL     1      -8.550   2.795  65.790  1.00  0.00    -0.115 A  
HETATM   12  O   UNL     1      -7.305   1.855  67.556  1.00  0.00    -0.053 OA 
HETATM   13  C   UNL     1      -9.520   3.686  65.344  1.00  0.00    -0.160 A  
HETATM   14  H   UNL     1      -6.852   1.296  66.935  1.00  0.00     0.000 HD 
ENDROOT
BRANCH   7  15
HETATM   15  N   UNL     1     -11.501   6.119  71.573  1.00  0.00    -0.287 NA 
HETATM   16  C   UNL     1     -11.287   5.693  72.961  1.00  0.00    -0.236 C  
HETATM   17  C   UNL     1     -12.569   7.130  71.538  1.00  0.00    -0.390 C  
ENDBRANCH   7  15
TORSDOF 1
ENDMDL
MODEL      102
REMARK 921   NORMALIZED FREE ENERGY PREDICTED BY IDOCK:   -3.06 KCAL/MOL
REMARK 922        TOTAL FREE ENERGY PREDICTED BY IDOCK:   -3.38 KCAL/MOL
REMARK 923 INTER-LIGAND FREE ENERGY PREDICTED BY IDOCK:   -3.24 KCAL/MOL
REMARK 924 INTRA-LIGAND FREE ENERGY PREDICTED BY IDOCK:   -0.13 KCAL/MOL
REMARK 927      BINDING AFFINITY PREDICTED BY RF-SCORE:    0.00 PKD
ROOT
HETATM    1  C   UNL     1      -7.612   5.714  68.931  1.00  0.00    -0.088 C  
HETATM    2  C   UNL     1      -7.745   6.116  70.397  1.00  0.00    -0.098 C  
HETATM    3  C   UNL     1      -9.105   6.749  70.817  1.00  0.00    -0.151 C  
HETATM    4  C   UNL     1      -9.386   8.140  70.200  1.00  0.00    -0.159 A  
HETATM    5  C   UNL     1     -10.318   5.755  70.695  1.00  0.00    -0.310 C  
HETATM    6  C   UNL     1     -10.770   5.493  69.244  1.00  0.00    -0.288 C  
HETATM    7  C   UNL     1     -10.131   4.395  71.418  1.00  0.00    -0.140 C  
HETATM    8  C   UNL     1     -10.692   8.668  70.168  1.00  0.00    -0.244 A  
HETATM    9  C   UNL     1     -10.968   9.879  69.534  1.00  0.00    -0.242 A  
HETATM   10  C   UNL     1      -8.363   8.950  69.674  1.00  0.00    -0.123 A  
HETATM   11  C   UNL     1      -9.953  10.635  68.975  1.00  0.00    -0.226 A  
HETATM   12  O   UNL     1     -12.247  10.343  69.428  1.00  0.00    -0.534 OA 
HETATM   13  C   UNL     1      -8.643  10.179  69.062  1.00  0.00    -0.156 A  
HETATM   14  H   UNL     1     -12.435  11.168  68.996  1.00  0.00     0.000 HD 
ENDROOT
BRANCH   7  15
HETATM   15  N   UNL     1      -9.885   4.470  72.871  1.00  0.00    -0.140 NA 
HETATM   16  C   UNL     1     -11.108   4.245  73.651  1.00  0.00    -0.267 C  
HETATM   17  C   UNL     1      -8.882   3.461  73.245  1.00  0.00    -0.080 C  
ENDBRANCH   7  15
TORSDOF 1
ENDMDL
MODEL      103
REMARK 921   NORMALIZED FREE ENERGY PREDICTED BY IDOCK:   -3.01 KCAL/MOL
REMARK 922        TOTAL FREE ENERGY PREDICTED BY IDOCK:   -3.32 KCAL/MOL
REMARK 923 INTER-LIGAND FREE ENERGY PREDICTED BY IDOCK:   -3.19 KCAL/MOL
REMARK 924 INTRA-LIGAND FREE ENERGY PREDICTED BY IDOCK:   -0.12 KCAL/MOL
REMARK 927      BINDING AFFINITY PREDICTED BY RF-SCORE:    0.00 PKD
ROOT
HETATM    1  C   UNL     1     -10.649   8.311  67.300  1.00  0.00    -0.335 C  
HETATM    2  C   UNL     1      -9.796   7.599  68.346  1.00  0.00    -0.176 C  
HETATM    3  C   UNL     1      -9.152   8.502  69.441  1.00  0.00    -0.150 C  
HETATM    4  C   UNL     1      -8.065   9.472  68.919  1.00  0.00    -0.096 A  
HETATM    5  C   UNL     1     -10.211   9.195  70.376  1.00  0.00    -0.268 C  
HETATM    6  C   UNL     1     -10.966  10.363  69.711  1.00  0.00    -0.345 C  
HETATM    7  C   UNL     1     -11.240   8.237  71.031  1.00  0.00    -0.259 C  
HETATM    8  C   UNL     1      -7.666  10.590  69.679  1.00  0.00    -0.119 A  
HETATM    9  C   UNL     1      -6.753  11.517  69.178  1.00  0.00    -0.108 A  
HETATM   10  C   UNL     1      -7.408   9.274  67.692  1.00  0.00    -0.084 A  
HETATM   11  C   UNL     1      -6.158  11.331  67.943  1.00  0.00    -0.050 A  
HETATM   12  O   UNL     1      -6.438  12.644  69.879  1.00  0.00    -0.311 OA 
HETATM   13  C   UNL     1      -6.471  10.195  67.205  1.00  0.00    -0.068 A  
HETATM   14  H   UNL     1      -5.816  13.276  69.537  1.00  0.00     0.000 HD 
ENDROOT
BRANCH   7  15
HETATM   15  N   UNL     1     -10.674   7.167  71.875  1.00  0.00    -0.214 NA 
HETATM   16  C   UNL     1     -10.543   7.581  73.277  1.00  0.00    -0.384 C  
HETATM   17  C   UNL     1     -11.541   5.981  71.801  1.00  0.00    -0.226 C  
ENDBRANCH   7  15
TORSDOF 1
ENDMDL
MODEL      104
REMARK 921   NORMALIZED FREE ENERGY PREDICTED BY IDOCK:   -2.99 KCAL/MOL
REMARK 922        TOTAL FREE ENERGY PREDICTED BY IDOCK:   -3.30 KCAL/MOL
REMARK 923 INTER-LIGAND FREE ENERGY PREDICTED BY IDOCK:   -3.18 KCAL/MOL
REMARK 924 INTRA-LIGAND FREE ENERGY PREDICTED BY IDOCK:   -0.12 KCAL/MOL
REMARK 927      BINDING AFFINITY PREDICTED BY RF-SCORE:    0.00 PKD
ROOT
HETATM    1  C   UNL     1      -6.593   8.106  70.154  1.00  0.00    -0.036 C  
HETATM    2  C   UNL     1      -7.554   7.044  69.626  1.00  0.00    -0.104 C  
HETATM    3  C   UNL     1      -8.716   7.554  68.723  1.00  0.00    -0.128 C  
HETATM    4  C   UNL     1      -9.763   8.428  69.452  1.00  0.00    -0.177 A  
HETATM    5  C   UNL     1      -8.221   8.173  67.364  1.00  0.00    -0.122 C  
HETATM    6  C   UNL     1      -7.582   9.569  67.508  1.00  0.00    -0.095 C  
HETATM    7  C   UNL     1      -7.273   7.269  66.532  1.00  0.00    -0.079 C  
HETATM    8  C   UNL     1     -10.641   9.262  68.730  1.00  0.00    -0.220 A  
HETATM    9  C   UNL     1     -11.525  10.120  69.382  1.00  0.00    -0.142 A  
HETATM   10  C   UNL     1      -9.910   8.416  70.851  1.00  0.00    -0.223 A  
HETATM   11  C   UNL     1     -11.617  10.130  70.763  1.00  0.00    -0.445 A  
HETATM   12  O   UNL     1     -12.309  10.989  68.681  1.00  0.00    -0.753 OA 
HETATM   13  C   UNL     1     -10.820   9.261  71.500  1.00  0.00    -0.442 A  
HETATM   14  H   UNL     1     -12.912  11.574  69.126  1.00  0.00     0.000 HD 
ENDROOT
BRANCH   7  15
HETATM   15  N   UNL     1      -7.822   5.957  66.139  1.00  0.00    -0.102 NA 
HETATM   16  C   UNL     1      -8.519   6.013  64.850  1.00  0.00    -0.059 C  
HETATM   17  C   UNL     1      -6.725   4.980  66.052  1.00  0.00    -0.053 C  
ENDBRANCH   7  15
TORSDOF 1
ENDMDL
MODEL      105
REMARK 921   NORMALIZED FREE ENERGY PREDICTED BY IDOCK:   -2.98 KCAL/MOL
REMARK 922        TOTAL FREE ENERGY PREDICTED BY IDOCK:   -3.30 KCAL/MOL
REMARK 923 INTER-LIGAND FREE ENERGY PREDICTED BY IDOCK:   -3.18 KCAL/MOL
REMARK 924 INTRA-LIGAND FREE ENERGY PREDICTED BY IDOCK:   -0.12 KCAL/MOL
REMARK 927      BINDING AFFINITY PREDICTED BY RF-SCORE:    0.00 PKD
ROOT
HETATM    1  C   UNL     1      -6.947   8.366  71.079  1.00  0.00    -0.056 C  
HETATM    2  C   UNL     1      -7.253   7.510  69.855  1.00  0.00    -0.080 C  
HETATM    3  C   UNL     1      -8.715   7.570  69.320  1.00  0.00    -0.136 C  
HETATM    4  C   UNL     1      -9.774   6.955  70.266  1.00  0.00    -0.176 A  
HETATM    5  C   UNL     1      -9.117   8.988  68.769  1.00  0.00    -0.137 C  
HETATM    6  C   UNL     1      -9.366  10.040  69.869  1.00  0.00    -0.207 C  
HETATM    7  C   UNL     1      -8.151   9.584  67.712  1.00  0.00    -0.106 C  
HETATM    8  C   UNL     1     -11.142   7.260  70.119  1.00  0.00    -0.281 A  
HETATM    9  C   UNL     1     -12.091   6.782  71.022  1.00  0.00    -0.372 A  
HETATM   10  C   UNL     1      -9.433   6.051  71.289  1.00  0.00    -0.180 A  
HETATM   11  C   UNL     1     -11.726   5.936  72.054  1.00  0.00    -0.255 A  
HETATM   12  O   UNL     1     -13.401   7.152  70.928  1.00  0.00    -0.563 OA 
HETATM   13  C   UNL     1     -10.395   5.553  72.177  1.00  0.00    -0.263 A  
HETATM   14  H   UNL     1     -14.048   6.826  71.543  1.00  0.00     0.000 HD 
ENDROOT
BRANCH   7  15
HETATM   15  N   UNL     1      -7.960   8.776  66.492  1.00  0.00    -0.102 NA 
HETATM   16  C   UNL     1      -9.095   8.892  65.569  1.00  0.00    -0.190 C  
HETATM   17  C   UNL     1      -6.734   9.216  65.807  1.00  0.00    -0.072 C  
ENDBRANCH   7  15
TORSDOF 1
ENDMDL
MODEL      106
REMARK 921   NORMALIZED FREE ENERGY PREDICTED BY IDOCK:   -2.98 KCAL/MOL
REMARK 922        TOTAL FREE ENERGY PREDICTED BY IDOCK:   -3.29 KCAL/MOL
REMARK 923 INTER-LIGAND FREE ENERGY PREDICTED BY IDOCK:   -3.26 KCAL/MOL
REMARK 924 INTRA-LIGAND FREE ENERGY PREDICTED BY IDOCK:   -0.03 KCAL/MOL
REMARK 927      BINDING AFFINITY PREDICTED BY RF-SCORE:    0.00 PKD
ROOT
HETATM    1  C   UNL     1      -6.506  12.157  67.191  1.00  0.00    -0.135 C  
HETATM    2  C   UNL     1      -7.178  11.968  68.548  1.00  0.00    -0.101 C  
HETATM    3  C   UNL     1      -8.733  11.883  68.541  1.00  0.00    -0.108 C  
HETATM    4  C   UNL     1      -9.449  13.196  68.142  1.00  0.00    -0.222 A  
HETATM    5  C   UNL     1      -9.283  10.617  67.786  1.00  0.00    -0.151 C  
HETATM    6  C   UNL     1      -9.178  10.708  66.250  1.00  0.00    -0.193 C  
HETATM    7  C   UNL     1      -8.689   9.261  68.251  1.00  0.00    -0.129 C  
HETATM    8  C   UNL     1     -10.796  13.189  67.725  1.00  0.00    -0.261 A  
HETATM    9  C   UNL     1     -11.421  14.352  67.278  1.00  0.00    -0.359 A  
HETATM   10  C   UNL     1      -8.812  14.448  68.202  1.00  0.00    -0.180 A  
HETATM   11  C   UNL     1     -10.757  15.567  67.295  1.00  0.00    -0.308 A  
HETATM   12  O   UNL     1     -12.695  14.325  66.791  1.00  0.00    -0.510 OA 
HETATM   13  C   UNL     1      -9.454  15.618  67.777  1.00  0.00    -0.208 A  
HETATM   14  H   UNL     1     -13.121  15.118  66.487  1.00  0.00     0.000 HD 
ENDROOT
BRANCH   7  15
HETATM   15  N   UNL     1      -8.885   8.932  69.676  1.00  0.00    -0.138 NA 
HETATM   16  C   UNL     1      -9.474   7.600  69.859  1.00  0.00    -0.160 C  
HETATM   17  C   UNL     1      -7.587   8.984  70.368  1.00  0.00    -0.100 C  
ENDBRANCH   7  15
TORSDOF 1
ENDMDL
MODEL      107
REMARK 921   NORMALIZED FREE ENERGY PREDICTED BY IDOCK:   -2.95 KCAL/MOL
REMARK 922        TOTAL FREE ENERGY PREDICTED BY IDOCK:   -3.26 KCAL/MOL
REMARK 923 INTER-LIGAND FREE ENERGY PREDICTED BY IDOCK:   -3.13 KCAL/MOL
REMARK 924 INTRA-LIGAND FREE ENERGY PREDICTED BY IDOCK:   -0.13 KCAL/MOL
REMARK 927      BINDING AFFINITY PREDICTED BY RF-SCORE:    0.00 PKD
ROOT
HETATM    1  C   UNL     1      -7.608   7.338  70.122  1.00  0.00    -0.090 C  
HETATM    2  C   UNL     1      -7.243   7.939  68.768  1.00  0.00    -0.081 C  
HETATM    3  C   UNL     1      -8.344   7.876  67.667  1.00  0.00    -0.124 C  
HETATM    4  C   UNL     1      -8.679   6.450  67.171  1.00  0.00    -0.110 A  
HETATM    5  C   UNL     1      -9.617   8.734  68.012  1.00  0.00    -0.160 C  
HETATM    6  C   UNL     1     -10.519   8.108  69.096  1.00  0.00    -0.217 C  
HETATM    7  C   UNL     1      -9.336  10.214  68.384  1.00  0.00    -0.136 C  
HETATM    8  C   UNL     1      -9.879   6.186  66.480  1.00  0.00    -0.179 A  
HETATM    9  C   UNL     1     -10.231   4.888  66.110  1.00  0.00    -0.277 A  
HETATM   10  C   UNL     1      -7.804   5.364  67.356  1.00  0.00    -0.101 A  
HETATM   11  C   UNL     1      -9.377   3.825  66.349  1.00  0.00    -0.197 A  
HETATM   12  O   UNL     1     -11.433   4.626  65.522  1.00  0.00    -0.924 OA 
HETATM   13  C   UNL     1      -8.150   4.067  66.957  1.00  0.00    -0.096 A  
HETATM   14  H   UNL     1     -11.673   3.741  65.269  1.00  0.00     0.000 HD 
ENDROOT
BRANCH   7  15
HETATM   15  N   UNL     1      -8.644  11.012  67.353  1.00  0.00    -0.131 NA 
HETATM   16  C   UNL     1      -9.480  12.111  66.854  1.00  0.00    -0.210 C  
HETATM   17  C   UNL     1      -7.406  11.568  67.921  1.00  0.00    -0.094 C  
ENDBRANCH   7  15
TORSDOF 1
ENDMDL
MODEL      108
REMARK 921   NORMALIZED FREE ENERGY PREDICTED BY IDOCK:   -2.90 KCAL/MOL
REMARK 922        TOTAL FREE ENERGY PREDICTED BY IDOCK:   -3.21 KCAL/MOL
REMARK 923 INTER-LIGAND FREE ENERGY PREDICTED BY IDOCK:   -3.09 KCAL/MOL
REMARK 924 INTRA-LIGAND FREE ENERGY PREDICTED BY IDOCK:   -0.12 KCAL/MOL
REMARK 927      BINDING AFFINITY PREDICTED BY RF-SCORE:    0.00 PKD
ROOT
HETATM    1  C   UNL     1     -10.340   9.230  69.273  1.00  0.00    -0.222 C  
HETATM    2  C   UNL     1      -8.971   8.569  69.408  1.00  0.00    -0.149 C  
HETATM    3  C   UNL     1      -8.969   7.060  69.795  1.00  0.00    -0.141 C  
HETATM    4  C   UNL     1      -9.479   6.761  71.225  1.00  0.00    -0.166 A  
HETATM    5  C   UNL     1      -9.612   6.135  68.696  1.00  0.00    -0.138 C  
HETATM    6  C   UNL     1     -11.150   6.222  68.626  1.00  0.00    -0.409 C  
HETATM    7  C   UNL     1      -9.033   6.307  67.268  1.00  0.00    -0.113 C  
HETATM    8  C   UNL     1      -9.893   5.465  71.591  1.00  0.00    -0.223 A  
HETATM    9  C   UNL     1     -10.438   5.206  72.849  1.00  0.00    -0.211 A  
HETATM   10  C   UNL     1      -9.527   7.747  72.227  1.00  0.00    -0.225 A  
HETATM   11  C   UNL     1     -10.525   6.205  73.803  1.00  0.00    -0.295 A  
HETATM   12  O   UNL     1     -10.919   3.970  73.167  1.00  0.00    -0.194 OA 
HETATM   13  C   UNL     1     -10.050   7.475  73.498  1.00  0.00    -0.378 A  
HETATM   14  H   UNL     1     -11.290   3.795  74.024  1.00  0.00     0.000 HD 
ENDROOT
BRANCH   7  15
HETATM   15  N   UNL     1      -7.584   6.059  67.130  1.00  0.00    -0.091 NA 
HETATM   16  C   UNL     1      -7.262   4.628  67.177  1.00  0.00    -0.073 C  
HETATM   17  C   UNL     1      -7.117   6.617  65.852  1.00  0.00    -0.062 C  
ENDBRANCH   7  15
TORSDOF 1
ENDMDL
MODEL      109
REMARK 921   NORMALIZED FREE ENERGY PREDICTED BY IDOCK:   -2.87 KCAL/MOL
REMARK 922        TOTAL FREE ENERGY PREDICTED BY IDOCK:   -3.18 KCAL/MOL
REMARK 923 INTER-LIGAND FREE ENERGY PREDICTED BY IDOCK:   -3.07 KCAL/MOL
REMARK 924 INTRA-LIGAND FREE ENERGY PREDICTED BY IDOCK:   -0.11 KCAL/MOL
REMARK 927      BINDING AFFINITY PREDICTED BY RF-SCORE:    0.00 PKD
ROOT
HETATM    1  C   UNL     1     -11.220   8.280  72.501  1.00  0.00    -0.446 C  
HETATM    2  C   UNL     1     -11.414   7.480  71.216  1.00  0.00    -0.298 C  
HETATM    3  C   UNL     1     -10.270   7.580  70.163  1.00  0.00    -0.206 C  
HETATM    4  C   UNL     1     -10.112   8.974  69.511  1.00  0.00    -0.199 A  
HETATM    5  C   UNL     1      -8.910   6.966  70.663  1.00  0.00    -0.150 C  
HETATM    6  C   UNL     1      -8.173   7.838  71.700  1.00  0.00    -0.121 C  
HETATM    7  C   UNL     1      -8.999   5.513  71.200  1.00  0.00    -0.141 C  
HETATM    8  C   UNL     1      -8.923   9.333  68.845  1.00  0.00    -0.136 A  
HETATM    9  C   UNL     1      -8.738  10.617  68.335  1.00  0.00    -0.141 A  
HETATM   10  C   UNL     1     -11.143   9.931  69.526  1.00  0.00    -0.255 A  
HETATM   11  C   UNL     1      -9.747  11.562  68.407  1.00  0.00    -0.202 A  
HETATM   12  O   UNL     1      -7.553  10.987  67.770  1.00  0.00    -0.096 OA 
HETATM   13  C   UNL     1     -10.961  11.212  68.987  1.00  0.00    -0.286 A  
HETATM   14  H   UNL     1      -7.427  11.862  67.422  1.00  0.00     0.000 HD 
ENDROOT
BRANCH   7  15
HETATM   15  N   UNL     1      -9.507   4.508  70.246  1.00  0.00    -0.152 NA 
HETATM   16  C   UNL     1      -8.674   4.420  69.041  1.00  0.00    -0.086 C  
HETATM   17  C   UNL     1      -9.544   3.192  70.904  1.00  0.00    -0.155 C  
ENDBRANCH   7  15
TORSDOF 1
ENDMDL
MODEL      110
REMARK 921   NORMALIZED FREE ENERGY PREDICTED BY IDOCK:   -2.87 KCAL/MOL
REMARK 922        TOTAL FREE ENERGY PREDICTED BY IDOCK:   -3.17 KCAL/MOL
REMARK 923 INTER-LIGAND FREE ENERGY PREDICTED BY IDOCK:   -3.10 KCAL/MOL
REMARK 924 INTRA-LIGAND FREE ENERGY PREDICTED BY IDOCK:   -0.08 KCAL/MOL
REMARK 927      BINDING AFFINITY PREDICTED BY RF-SCORE:    0.00 PKD
ROOT
HETATM    1  C   UNL     1      -8.865   8.293  72.531  1.00  0.00    -0.297 C  
HETATM    2  C   UNL     1      -8.494   7.322  71.415  1.00  0.00    -0.114 C  
HETATM    3  C   UNL     1      -9.485   6.145  71.167  1.00  0.00    -0.182 C  
HETATM    4  C   UNL     1      -9.559   5.112  72.316  1.00  0.00    -0.182 A  
HETATM    5  C   UNL     1     -10.897   6.618  70.659  1.00  0.00    -0.301 C  
HETATM    6  C   UNL     1     -11.773   7.262  71.753  1.00  0.00    -0.321 C  
HETATM    7  C   UNL     1     -10.875   7.550  69.419  1.00  0.00    -0.150 C  
HETATM    8  C   UNL     1     -10.648   4.224  72.423  1.00  0.00    -0.145 A  
HETATM    9  C   UNL     1     -10.768   3.352  73.505  1.00  0.00    -0.214 A  
HETATM   10  C   UNL     1      -8.545   4.989  73.283  1.00  0.00    -0.112 A  
HETATM   11  C   UNL     1      -9.783   3.284  74.475  1.00  0.00    -0.153 A  
HETATM   12  O   UNL     1     -11.867   2.558  73.651  1.00  0.00    -0.154 OA 
HETATM   13  C   UNL     1      -8.657   4.092  74.353  1.00  0.00    -0.095 A  
HETATM   14  H   UNL     1     -11.949   1.964  74.388  1.00  0.00     0.000 HD 
ENDROOT
BRANCH   7  15
HETATM   15  N   UNL     1     -10.237   6.993  68.211  1.00  0.00    -0.174 NA 
HETATM   16  C   UNL     1     -10.782   5.677  67.855  1.00  0.00    -0.158 C  
HETATM   17  C   UNL     1     -10.439   7.918  67.085  1.00  0.00    -0.344 C  
ENDBRANCH   7  15
TORSDOF 1
ENDMDL
MODEL      111
REMARK 921   NORMALIZED FREE ENERGY PREDICTED BY IDOCK:   -2.79 KCAL/MOL
REMARK 922        TOTAL FREE ENERGY PREDICTED BY IDOCK:   -3.08 KCAL/MOL
REMARK 923 INTER-LIGAND FREE ENERGY PREDICTED BY IDOCK:   -2.97 KCAL/MOL
REMARK 924 INTRA-LIGAND FREE ENERGY PREDICTED BY IDOCK:   -0.12 KCAL/MOL
REMARK 927      BINDING AFFINITY PREDICTED BY RF-SCORE:    0.00 PKD
ROOT
HETATM    1  C   UNL     1     -10.317   5.637  66.978  1.00  0.00    -0.306 C  
HETATM    2  C   UNL     1      -8.979   6.332  67.210  1.00  0.00    -0.113 C  
HETATM    3  C   UNL     1      -8.914   7.316  68.416  1.00  0.00    -0.126 C  
HETATM    4  C   UNL     1      -9.778   8.590  68.256  1.00  0.00    -0.171 A  
HETATM    5  C   UNL     1      -9.098   6.606  69.808  1.00  0.00    -0.143 C  
HETATM    6  C   UNL     1     -10.549   6.176  70.104  1.00  0.00    -0.321 C  
HETATM    7  C   UNL     1      -8.153   5.404  70.066  1.00  0.00    -0.085 C  
HETATM    8  C   UNL     1     -10.127   9.374  69.374  1.00  0.00    -0.204 A  
HETATM    9  C   UNL     1     -10.979  10.471  69.251  1.00  0.00    -0.244 A  
HETATM   10  C   UNL     1     -10.229   9.039  67.002  1.00  0.00    -0.336 A  
HETATM   11  C   UNL     1     -11.455  10.865  68.012  1.00  0.00    -0.356 A  
HETATM   12  O   UNL     1     -11.384  11.174  70.348  1.00  0.00    -0.461 OA 
HETATM   13  C   UNL     1     -11.063  10.158  66.881  1.00  0.00     0.004 A  
HETATM   14  H   UNL     1     -11.965  11.921  70.263  1.00  0.00     0.000 HD 
ENDROOT
BRANCH   7  15
HETATM   15  N   UNL     1      -6.708   5.701  70.014  1.00  0.00    -0.046 NA 
HETATM   16  C   UNL     1      -6.280   6.555  71.128  1.00  0.00    -0.040 C  
HETATM   17  C   UNL     1      -5.952   4.440  70.054  1.00  0.00    -0.018 C  
ENDBRANCH   7  15
TORSDOF 1
ENDMDL
MODEL      112
REMARK 921   NORMALIZED FREE ENERGY PREDICTED BY IDOCK:   -2.73 KCAL/MOL
REMARK 922        TOTAL FREE ENERGY PREDICTED BY IDOCK:   -3.03 KCAL/MOL
REMARK 923 INTER-LIGAND FREE ENERGY PREDICTED BY IDOCK:   -2.93 KCAL/MOL
REMARK 924 INTRA-LIGAND FREE ENERGY PREDICTED BY IDOCK:   -0.10 KCAL/MOL
REMARK 927      BINDING AFFINITY PREDICTED BY RF-SCORE:    0.00 PKD
ROOT
HETATM    1  C   UNL     1      -8.827   4.357  67.389  1.00  0.00    -0.116 C  
HETATM    2  C   UNL     1      -8.499   5.383  68.469  1.00  0.00    -0.096 C  
HETATM    3  C   UNL     1      -9.034   6.827  68.233  1.00  0.00    -0.123 C  
HETATM    4  C   UNL     1      -8.382   7.571  67.043  1.00  0.00    -0.121 A  
HETATM    5  C   UNL     1     -10.605   6.916  68.240  1.00  0.00    -0.258 C  
HETATM    6  C   UNL     1     -11.270   6.350  66.969  1.00  0.00    -0.274 C  
HETATM    7  C   UNL     1     -11.296   6.301  69.485  1.00  0.00    -0.404 C  
HETATM    8  C   UNL     1      -8.997   8.701  66.469  1.00  0.00    -0.187 A  
HETATM    9  C   UNL     1      -8.462   9.322  65.341  1.00  0.00    -0.145 A  
HETATM   10  C   UNL     1      -7.145   7.179  66.500  1.00  0.00    -0.078 A  
HETATM   11  C   UNL     1      -7.270   8.887  64.789  1.00  0.00    -0.092 A  
HETATM   12  O   UNL     1      -9.108  10.360  64.736  1.00  0.00    -0.182 OA 
HETATM   13  C   UNL     1      -6.598   7.824  65.382  1.00  0.00    -0.044 A  
HETATM   14  H   UNL     1      -8.744  10.783  63.967  1.00  0.00     0.000 HD 
ENDROOT
BRANCH   7  15
HETATM   15  N   UNL     1     -10.907   6.882  70.785  1.00  0.00    -0.236 NA 
HETATM   16  C   UNL     1     -11.119   8.334  70.827  1.00  0.00    -0.258 C  
HETATM   17  C   UNL     1     -11.695   6.249  71.854  1.00  0.00    -0.316 C  
ENDBRANCH   7  15
TORSDOF 1
ENDMDL
MODEL      113
REMARK 921   NORMALIZED FREE ENERGY PREDICTED BY IDOCK:   -2.72 KCAL/MOL
REMARK 922        TOTAL FREE ENERGY PREDICTED BY IDOCK:   -3.02 KCAL/MOL
REMARK 923 INTER-LIGAND FREE ENERGY PREDICTED BY IDOCK:   -2.97 KCAL/MOL
REMARK 924 INTRA-LIGAND FREE ENERGY PREDICTED BY IDOCK:   -0.05 KCAL/MOL
REMARK 927      BINDING AFFINITY PREDICTED BY RF-SCORE:    0.00 PKD
ROOT
HETATM    1  C   UNL     1      -8.376   8.092  71.942  1.00  0.00    -0.167 C  
HETATM    2  C   UNL     1      -8.290   8.941  70.677  1.00  0.00    -0.190 C  
HETATM    3  C   UNL     1      -9.191   8.496  69.487  1.00  0.00    -0.150 C  
HETATM    4  C   UNL     1      -8.795   7.143  68.849  1.00  0.00    -0.130 A  
HETATM    5  C   UNL     1     -10.730   8.617  69.793  1.00  0.00    -0.215 C  
HETATM    6  C   UNL     1     -11.267   7.527  70.741  1.00  0.00    -0.287 C  
HETATM    7  C   UNL     1     -11.194  10.005  70.307  1.00  0.00    -0.313 C  
HETATM    8  C   UNL     1      -9.703   6.430  68.040  1.00  0.00    -0.122 A  
HETATM    9  C   UNL     1      -9.387   5.169  67.536  1.00  0.00    -0.121 A  
HETATM   10  C   UNL     1      -7.518   6.578  69.017  1.00  0.00    -0.095 A  
HETATM   11  C   UNL     1      -8.142   4.607  67.759  1.00  0.00    -0.096 A  
HETATM   12  O   UNL     1     -10.302   4.444  66.829  1.00  0.00    -0.260 OA 
HETATM   13  C   UNL     1      -7.197   5.322  68.485  1.00  0.00    -0.063 A  
HETATM   14  H   UNL     1     -10.086   3.584  66.486  1.00  0.00     0.000 HD 
ENDROOT
BRANCH   7  15
HETATM   15  N   UNL     1     -10.925  11.144  69.407  1.00  0.00    -0.248 NA 
HETATM   16  C   UNL     1     -11.342  10.868  68.027  1.00  0.00    -0.312 C  
HETATM   17  C   UNL     1     -11.643  12.330  69.900  1.00  0.00    -0.203 C  
ENDBRANCH   7  15
TORSDOF 1
ENDMDL
MODEL      114
REMARK 921   NORMALIZED FREE ENERGY PREDICTED BY IDOCK:   -2.54 KCAL/MOL
REMARK 922        TOTAL FREE ENERGY PREDICTED BY IDOCK:   -2.83 KCAL/MOL
REMARK 923 INTER-LIGAND FREE ENERGY PREDICTED BY IDOCK:   -2.69 KCAL/MOL
REMARK 924 INTRA-LIGAND FREE ENERGY PREDICTED BY IDOCK:   -0.13 KCAL/MOL
REMARK 927      BINDING AFFINITY PREDICTED BY RF-SCORE:    0.00 PKD
ROOT
HETATM    1  C   UNL     1      -6.319   8.153  67.934  1.00  0.00    -0.052 C  
HETATM    2  C   UNL     1      -7.695   7.625  68.329  1.00  0.00    -0.120 C  
HETATM    3  C   UNL     1      -8.872   7.985  67.374  1.00  0.00    -0.134 C  
HETATM    4  C   UNL     1      -9.236   9.488  67.337  1.00  0.00    -0.152 A  
HETATM    5  C   UNL     1      -8.732   7.340  65.945  1.00  0.00    -0.150 C  
HETATM    6  C   UNL     1      -7.668   8.014  65.056  1.00  0.00    -0.112 C  
HETATM    7  C   UNL     1      -8.502   5.806  65.933  1.00  0.00    -0.139 C  
HETATM    8  C   UNL     1      -9.993  10.025  66.277  1.00  0.00    -0.310 A  
HETATM    9  C   UNL     1     -10.248  11.394  66.190  1.00  0.00    -0.239 A  
HETATM   10  C   UNL     1      -8.859  10.378  68.360  1.00  0.00    -0.136 A  
HETATM   11  C   UNL     1      -9.822  12.260  67.181  1.00  0.00    -0.207 A  
HETATM   12  O   UNL     1     -10.904  11.920  65.116  1.00  0.00    -0.284 OA 
HETATM   13  C   UNL     1      -9.142  11.748  68.281  1.00  0.00    -0.187 A  
HETATM   14  H   UNL     1     -11.078  12.853  65.057  1.00  0.00     0.000 HD 
ENDROOT
BRANCH   7  15
HETATM   15  N   UNL     1      -9.551   4.996  66.582  1.00  0.00    -0.144 NA 
HETATM   16  C   UNL     1     -10.486   4.420  65.607  1.00  0.00    -0.193 C  
HETATM   17  C   UNL     1      -8.920   3.909  67.345  1.00  0.00    -0.134 C  
ENDBRANCH   7  15
TORSDOF 1
ENDMDL
MODEL      115
REMARK 921   NORMALIZED FREE ENERGY PREDICTED BY IDOCK:   -2.49 KCAL/MOL
REMARK 922        TOTAL FREE ENERGY PREDICTED BY IDOCK:   -2.77 KCAL/MOL
REMARK 923 INTER-LIGAND FREE ENERGY PREDICTED BY IDOCK:   -3.32 KCAL/MOL
REMARK 924 INTRA-LIGAND FREE ENERGY PREDICTED BY IDOCK:    0.55 KCAL/MOL
REMARK 927      BINDING AFFINITY PREDICTED BY RF-SCORE:    0.00 PKD
ROOT
HETATM    1  C   UNL     1      -9.374   5.023  74.074  1.00  0.00    -0.121 C  
HETATM    2  C   UNL     1      -8.928   5.173  72.623  1.00  0.00    -0.129 C  
HETATM    3  C   UNL     1      -8.996   6.610  72.025  1.00  0.00    -0.139 C  
HETATM    4  C   UNL     1     -10.429   7.169  71.854  1.00  0.00    -0.220 A  
HETATM    5  C   UNL     1      -8.009   7.619  72.720  1.00  0.00    -0.140 C  
HETATM    6  C   UNL     1      -8.460   8.070  74.124  1.00  0.00    -0.293 C  
HETATM    7  C   UNL     1      -6.531   7.154  72.790  1.00  0.00    -0.056 C  
HETATM    8  C   UNL     1     -10.652   8.552  71.694  1.00  0.00    -0.353 A  
HETATM    9  C   UNL     1     -11.944   9.073  71.630  1.00  0.00    -0.356 A  
HETATM   10  C   UNL     1     -11.562   6.337  71.822  1.00  0.00    -0.358 A  
HETATM   11  C   UNL     1     -13.048   8.239  71.654  1.00  0.00    -0.354 A  
HETATM   12  O   UNL     1     -12.157  10.419  71.565  1.00  0.00    -0.353 OA 
HETATM   13  C   UNL     1     -12.856   6.864  71.730  1.00  0.00    -0.349 A  
HETATM   14  H   UNL     1     -13.038  10.774  71.522  1.00  0.00     0.000 HD 
ENDROOT
BRANCH   7  15
HETATM   15  N   UNL     1      -5.886   6.871  71.493  1.00  0.00    -0.036 NA 
HETATM   16  C   UNL     1      -5.814   5.432  71.216  1.00  0.00    -0.017 C  
HETATM   17  C   UNL     1      -6.645   7.532  70.420  1.00  0.00    -0.042 C  
ENDBRANCH   7  15
TORSDOF 1
ENDMDL
MODEL      116
REMARK 921   NORMALIZED FREE ENERGY PREDICTED BY IDOCK:   -2.45 KCAL/MOL
REMARK 922        TOTAL FREE ENERGY PREDICTED BY IDOCK:   -2.73 KCAL/MOL
REMARK 923 INTER-LIGAND FREE ENERGY PREDICTED BY IDOCK:   -2.61 KCAL/MOL
REMARK 924 INTRA-LIGAND FREE ENERGY PREDICTED BY IDOCK:   -0.11 KCAL/MOL
REMARK 927      BINDING AFFINITY PREDICTED BY RF-SCORE:    0.00 PKD
ROOT
HETATM    1  C   UNL     1     -10.490   6.898  70.181  1.00  0.00    -0.233 C  
HETATM    2  C   UNL     1      -9.378   7.733  69.554  1.00  0.00    -0.149 C  
HETATM    3  C   UNL     1      -8.842   7.243  68.175  1.00  0.00    -0.126 C  
HETATM    4  C   UNL     1      -8.082   5.896  68.220  1.00  0.00    -0.109 A  
HETATM    5  C   UNL     1      -9.918   7.317  67.029  1.00  0.00    -0.293 C  
HETATM    6  C   UNL     1     -11.000   6.221  67.115  1.00  0.00    -0.453 C  
HETATM    7  C   UNL     1     -10.610   8.695  66.860  1.00  0.00    -0.200 C  
HETATM    8  C   UNL     1      -7.873   5.143  67.047  1.00  0.00    -0.096 A  
HETATM    9  C   UNL     1      -7.270   3.887  67.092  1.00  0.00    -0.067 A  
HETATM   10  C   UNL     1      -7.544   5.376  69.411  1.00  0.00    -0.077 A  
HETATM   11  C   UNL     1      -6.794   3.369  68.284  1.00  0.00    -0.049 A  
HETATM   12  O   UNL     1      -7.150   3.123  65.968  1.00  0.00    -0.059 OA 
HETATM   13  C   UNL     1      -6.914   4.125  69.445  1.00  0.00    -0.046 A  
HETATM   14  H   UNL     1      -6.739   2.266  65.999  1.00  0.00     0.000 HD 
ENDROOT
BRANCH   7  15
HETATM   15  N   UNL     1      -9.713   9.830  66.570  1.00  0.00    -0.195 NA 
HETATM   16  C   UNL     1      -8.958   9.635  65.327  1.00  0.00    -0.204 C  
HETATM   17  C   UNL     1     -10.510  11.062  66.463  1.00  0.00    -0.257 C  
ENDBRANCH   7  15
TORSDOF 1
ENDMDL
MODEL      117
REMARK 921   NORMALIZED FREE ENERGY PREDICTED BY IDOCK:   -2.44 KCAL/MOL
REMARK 922        TOTAL FREE ENERGY PREDICTED BY IDOCK:   -2.72 KCAL/MOL
REMARK 923 INTER-LIGAND FREE ENERGY PREDICTED BY IDOCK:   -2.60 KCAL/MOL
REMARK 924 INTRA-LIGAND FREE ENERGY PREDICTED BY IDOCK:   -0.12 KCAL/MOL
REMARK 927      BINDING AFFINITY PREDICTED BY RF-SCORE:    0.00 PKD
ROOT
HETATM    1  C   UNL     1     -10.744   5.672  66.634  1.00  0.00    -0.339 C  
HETATM    2  C   UNL     1      -9.360   5.698  67.276  1.00  0.00    -0.113 C  
HETATM    3  C   UNL     1      -8.609   7.063  67.239  1.00  0.00    -0.121 C  
HETATM    4  C   UNL     1      -8.185   7.528  65.825  1.00  0.00    -0.137 A  
HETATM    5  C   UNL     1      -9.322   8.187  68.079  1.00  0.00    -0.144 C  
HETATM    6  C   UNL     1     -10.595   8.751  67.417  1.00  0.00    -0.304 C  
HETATM    7  C   UNL     1      -9.643   7.809  69.549  1.00  0.00    -0.160 C  
HETATM    8  C   UNL     1      -7.850   8.873  65.575  1.00  0.00    -0.100 A  
HETATM    9  C   UNL     1      -7.555   9.318  64.287  1.00  0.00    -0.112 A  
HETATM   10  C   UNL     1      -8.086   6.638  64.740  1.00  0.00    -0.099 A  
HETATM   11  C   UNL     1      -7.515   8.435  63.222  1.00  0.00    -0.111 A  
HETATM   12  O   UNL     1      -7.318  10.638  64.034  1.00  0.00    -0.346 OA 
HETATM   13  C   UNL     1      -7.762   7.086  63.453  1.00  0.00    -0.118 A  
HETATM   14  H   UNL     1      -7.117  10.941  63.156  1.00  0.00     0.000 HD 
ENDROOT
BRANCH   7  15
HETATM   15  N   UNL     1      -8.485   7.431  70.381  1.00  0.00    -0.140 NA 
HETATM   16  C   UNL     1      -7.846   8.598  71.000  1.00  0.00    -0.111 C  
HETATM   17  C   UNL     1      -8.927   6.507  71.437  1.00  0.00    -0.140 C  
ENDBRANCH   7  15
TORSDOF 1
ENDMDL
MODEL      118
REMARK 921   NORMALIZED FREE ENERGY PREDICTED BY IDOCK:   -2.43 KCAL/MOL
REMARK 922        TOTAL FREE ENERGY PREDICTED BY IDOCK:   -2.71 KCAL/MOL
REMARK 923 INTER-LIGAND FREE ENERGY PREDICTED BY IDOCK:   -2.59 KCAL/MOL
REMARK 924 INTRA-LIGAND FREE ENERGY PREDICTED BY IDOCK:   -0.12 KCAL/MOL
REMARK 927      BINDING AFFINITY PREDICTED BY RF-SCORE:    0.00 PKD
ROOT
HETATM    1  C   UNL     1      -8.685   8.537  69.473  1.00  0.00    -0.136 C  
HETATM    2  C   UNL     1      -8.288   9.530  68.385  1.00  0.00    -0.118 C  
HETATM    3  C   UNL     1      -8.583   9.099  66.918  1.00  0.00    -0.129 C  
HETATM    4  C   UNL     1      -7.740   7.902  66.415  1.00  0.00    -0.096 A  
HETATM    5  C   UNL     1     -10.119   8.955  66.609  1.00  0.00    -0.357 C  
HETATM    6  C   UNL     1     -10.765   7.694  67.219  1.00  0.00    -0.344 C  
HETATM    7  C   UNL     1     -10.984  10.190  66.973  1.00  0.00    -0.092 C  
HETATM    8  C   UNL     1      -8.136   7.162  65.283  1.00  0.00    -0.134 A  
HETATM    9  C   UNL     1      -7.432   6.028  64.878  1.00  0.00    -0.082 A  
HETATM   10  C   UNL     1      -6.539   7.516  67.037  1.00  0.00    -0.062 A  
HETATM   11  C   UNL     1      -6.280   5.634  65.537  1.00  0.00    -0.034 A  
HETATM   12  O   UNL     1      -7.869   5.263  63.836  1.00  0.00    -0.084 OA 
HETATM   13  C   UNL     1      -5.821   6.392  66.608  1.00  0.00    -0.020 A  
HETATM   14  H   UNL     1      -7.389   4.491  63.560  1.00  0.00     0.000 HD 
ENDROOT
BRANCH   7  15
HETATM   15  N   UNL     1     -10.610  11.452  66.307  1.00  0.00    -0.256 NA 
HETATM   16  C   UNL     1     -10.753  11.370  64.848  1.00  0.00    -0.286 C  
HETATM   17  C   UNL     1     -11.463  12.539  66.814  1.00  0.00    -0.362 C  
ENDBRANCH   7  15
TORSDOF 1
ENDMDL
MODEL      119
REMARK 921   NORMALIZED FREE ENERGY PREDICTED BY IDOCK:   -2.43 KCAL/MOL
REMARK 922        TOTAL FREE ENERGY PREDICTED BY IDOCK:   -2.70 KCAL/MOL
REMARK 923 INTER-LIGAND FREE ENERGY PREDICTED BY IDOCK:   -2.57 KCAL/MOL
REMARK 924 INTRA-LIGAND FREE ENERGY PREDICTED BY IDOCK:   -0.14 KCAL/MOL
REMARK 927      BINDING AFFINITY PREDICTED BY RF-SCORE:    0.00 PKD
ROOT
HETATM    1  C   UNL     1      -5.996   8.716  69.437  1.00  0.00    -0.040 C  
HETATM    2  C   UNL     1      -7.407   9.296  69.451  1.00  0.00    -0.077 C  
HETATM    3  C   UNL     1      -8.389   8.745  68.374  1.00  0.00    -0.126 C  
HETATM    4  C   UNL     1      -8.029   9.125  66.918  1.00  0.00    -0.105 A  
HETATM    5  C   UNL     1      -8.719   7.217  68.558  1.00  0.00    -0.123 C  
HETATM    6  C   UNL     1      -7.571   6.274  68.144  1.00  0.00    -0.102 C  
HETATM    7  C   UNL     1      -9.216   6.815  69.971  1.00  0.00    -0.158 C  
HETATM    8  C   UNL     1      -8.571   8.415  65.828  1.00  0.00    -0.181 A  
HETATM    9  C   UNL     1      -8.183   8.692  64.518  1.00  0.00    -0.164 A  
HETATM   10  C   UNL     1      -7.177  10.201  66.611  1.00  0.00    -0.105 A  
HETATM   11  C   UNL     1      -7.301   9.722  64.242  1.00  0.00    -0.129 A  
HETATM   12  O   UNL     1      -8.642   7.944  63.474  1.00  0.00    -0.383 OA 
HETATM   13  C   UNL     1      -6.811  10.493  65.291  1.00  0.00    -0.050 A  
HETATM   14  H   UNL     1      -8.377   8.133  62.581  1.00  0.00     0.000 HD 
ENDROOT
BRANCH   7  15
HETATM   15  N   UNL     1     -10.440   7.496  70.438  1.00  0.00    -0.218 NA 
HETATM   16  C   UNL     1     -11.571   6.570  70.570  1.00  0.00    -0.393 C  
HETATM   17  C   UNL     1     -10.176   8.125  71.741  1.00  0.00    -0.212 C  
ENDBRANCH   7  15
TORSDOF 1
ENDMDL
MODEL      120
REMARK 921   NORMALIZED FREE ENERGY PREDICTED BY IDOCK:   -2.39 KCAL/MOL
REMARK 922        TOTAL FREE ENERGY PREDICTED BY IDOCK:   -2.66 KCAL/MOL
REMARK 923 INTER-LIGAND FREE ENERGY PREDICTED BY IDOCK:   -2.54 KCAL/MOL
REMARK 924 INTRA-LIGAND FREE ENERGY PREDICTED BY IDOCK:   -0.12 KCAL/MOL
REMARK 927      BINDING AFFINITY PREDICTED BY RF-SCORE:    0.00 PKD
ROOT
HETATM    1  C   UNL     1     -11.609   7.840  70.557  1.00  0.00    -0.173 C  
HETATM    2  C   UNL     1     -10.934   9.199  70.709  1.00  0.00    -0.332 C  
HETATM    3  C   UNL     1      -9.433   9.274  70.296  1.00  0.00    -0.277 C  
HETATM    4  C   UNL     1      -8.474   8.469  71.205  1.00  0.00    -0.191 A  
HETATM    5  C   UNL     1      -9.198   9.022  68.761  1.00  0.00    -0.133 C  
HETATM    6  C   UNL     1      -9.349   7.547  68.337  1.00  0.00    -0.141 C  
HETATM    7  C   UNL     1     -10.045   9.908  67.809  1.00  0.00    -0.180 C  
HETATM    8  C   UNL     1      -7.179   8.124  70.767  1.00  0.00    -0.050 A  
HETATM    9  C   UNL     1      -6.342   7.323  71.543  1.00  0.00    -0.036 A  
HETATM   10  C   UNL     1      -8.829   8.071  72.506  1.00  0.00    -0.237 A  
HETATM   11  C   UNL     1      -6.732   6.897  72.800  1.00  0.00    -0.066 A  
HETATM   12  O   UNL     1      -5.125   6.918  71.077  1.00  0.00    -0.022 OA 
HETATM   13  C   UNL     1      -7.972   7.289  73.292  1.00  0.00    -0.125 A  
HETATM   14  H   UNL     1      -4.555   6.372  71.606  1.00  0.00     0.000 HD 
ENDROOT
BRANCH   7  15
HETATM   15  N   UNL     1      -9.861  11.365  67.958  1.00  0.00    -0.179 NA 
HETATM   16  C   UNL     1      -8.491  11.784  67.637  1.00  0.00    -0.149 C  
HETATM   17  C   UNL     1     -10.800  12.065  67.068  1.00  0.00    -0.253 C  
ENDBRANCH   7  15
TORSDOF 1
ENDMDL
MODEL      121
REMARK 921   NORMALIZED FREE ENERGY PREDICTED BY IDOCK:   -2.35 KCAL/MOL
REMARK 922        TOTAL FREE ENERGY PREDICTED BY IDOCK:   -2.63 KCAL/MOL
REMARK 923 INTER-LIGAND FREE ENERGY PREDICTED BY IDOCK:   -2.61 KCAL/MOL
REMARK 924 INTRA-LIGAND FREE ENERGY PREDICTED BY IDOCK:   -0.02 KCAL/MOL
REMARK 927      BINDING AFFINITY PREDICTED BY RF-SCORE:    0.00 PKD
ROOT
HETATM    1  C   UNL     1      -8.543   9.966  68.895  1.00  0.00    -0.135 C  
HETATM    2  C   UNL     1      -7.730  10.995  68.117  1.00  0.00    -0.105 C  
HETATM    3  C   UNL     1      -8.276  11.386  66.712  1.00  0.00    -0.160 C  
HETATM    4  C   UNL     1      -8.224  10.252  65.661  1.00  0.00    -0.153 A  
HETATM    5  C   UNL     1      -9.666  12.122  66.768  1.00  0.00    -0.215 C  
HETATM    6  C   UNL     1     -10.854  11.193  67.086  1.00  0.00    -0.326 C  
HETATM    7  C   UNL     1      -9.723  13.354  67.710  1.00  0.00    -0.216 C  
HETATM    8  C   UNL     1      -9.004  10.312  64.489  1.00  0.00    -0.247 A  
HETATM    9  C   UNL     1      -9.031   9.253  63.582  1.00  0.00    -0.031 A  
HETATM   10  C   UNL     1      -7.385   9.132  65.806  1.00  0.00    -0.090 A  
HETATM   11  C   UNL     1      -8.237   8.136  63.771  1.00  0.00    -0.065 A  
HETATM   12  O   UNL     1      -9.856   9.278  62.495  1.00  0.00    -0.245 OA 
HETATM   13  C   UNL     1      -7.396   8.083  64.877  1.00  0.00    -0.084 A  
HETATM   14  H   UNL     1      -9.874   8.557  61.877  1.00  0.00     0.000 HD 
ENDROOT
BRANCH   7  15
HETATM   15  N   UNL     1      -8.766  14.436  67.408  1.00  0.00    -0.192 NA 
HETATM   16  C   UNL     1      -9.424  15.743  67.307  1.00  0.00    -0.212 C  
HETATM   17  C   UNL     1      -7.747  14.490  68.468  1.00  0.00    -0.129 C  
ENDBRANCH   7  15
TORSDOF 1
ENDMDL
MODEL      122
REMARK 921   NORMALIZED FREE ENERGY PREDICTED BY IDOCK:   -2.35 KCAL/MOL
REMARK 922        TOTAL FREE ENERGY PREDICTED BY IDOCK:   -2.63 KCAL/MOL
REMARK 923 INTER-LIGAND FREE ENERGY PREDICTED BY IDOCK:   -2.51 KCAL/MOL
REMARK 924 INTRA-LIGAND FREE ENERGY PREDICTED BY IDOCK:   -0.12 KCAL/MOL
REMARK 927      BINDING AFFINITY PREDICTED BY RF-SCORE:    0.00 PKD
ROOT
HETATM    1  C   UNL     1      -6.721   6.946  68.509  1.00  0.00    -0.064 C  
HETATM    2  C   UNL     1      -8.210   7.049  68.192  1.00  0.00    -0.120 C  
HETATM    3  C   UNL     1      -9.182   6.433  69.242  1.00  0.00    -0.135 C  
HETATM    4  C   UNL     1      -9.108   4.893  69.366  1.00  0.00    -0.149 A  
HETATM    5  C   UNL     1      -9.146   7.174  70.630  1.00  0.00    -0.158 C  
HETATM    6  C   UNL     1      -7.887   6.875  71.468  1.00  0.00    -0.100 C  
HETATM    7  C   UNL     1      -9.355   8.710  70.565  1.00  0.00    -0.175 C  
HETATM    8  C   UNL     1      -9.622   4.231  70.498  1.00  0.00    -0.267 A  
HETATM    9  C   UNL     1      -9.478   2.853  70.659  1.00  0.00    -0.147 A  
HETATM   10  C   UNL     1      -8.557   4.084  68.355  1.00  0.00    -0.113 A  
HETATM   11  C   UNL     1      -8.884   2.082  69.675  1.00  0.00    -0.131 A  
HETATM   12  O   UNL     1      -9.898   2.229  71.797  1.00  0.00    -0.142 OA 
HETATM   13  C   UNL     1      -8.440   2.696  68.510  1.00  0.00    -0.094 A  
HETATM   14  H   UNL     1      -9.800   1.290  71.906  1.00  0.00     0.000 HD 
ENDROOT
BRANCH   7  15
HETATM   15  N   UNL     1     -10.624   9.159  69.961  1.00  0.00    -0.218 NA 
HETATM   16  C   UNL     1     -11.763   8.972  70.867  1.00  0.00    -0.276 C  
HETATM   17  C   UNL     1     -10.516  10.584  69.610  1.00  0.00    -0.219 C  
ENDBRANCH   7  15
TORSDOF 1
ENDMDL
MODEL      123
REMARK 921   NORMALIZED FREE ENERGY PREDICTED BY IDOCK:   -2.30 KCAL/MOL
REMARK 922        TOTAL FREE ENERGY PREDICTED BY IDOCK:   -2.57 KCAL/MOL
REMARK 923 INTER-LIGAND FREE ENERGY PREDICTED BY IDOCK:   -2.46 KCAL/MOL
REMARK 924 INTRA-LIGAND FREE ENERGY PREDICTED BY IDOCK:   -0.12 KCAL/MOL
REMARK 927      BINDING AFFINITY PREDICTED BY RF-SCORE:    0.00 PKD
ROOT
HETATM    1  C   UNL     1      -7.527   6.339  69.780  1.00  0.00    -0.081 C  
HETATM    2  C   UNL     1      -7.933   7.616  70.509  1.00  0.00    -0.100 C  
HETATM    3  C   UNL     1      -8.504   8.764  69.624  1.00  0.00    -0.129 C  
HETATM    4  C   UNL     1      -7.479   9.402  68.656  1.00  0.00    -0.079 A  
HETATM    5  C   UNL     1      -9.870   8.396  68.934  1.00  0.00    -0.184 C  
HETATM    6  C   UNL     1      -9.732   7.414  67.754  1.00  0.00    -0.171 C  
HETATM    7  C   UNL     1     -10.975   7.879  69.893  1.00  0.00    -0.178 C  
HETATM    8  C   UNL     1      -7.904  10.164  67.549  1.00  0.00    -0.102 A  
HETATM    9  C   UNL     1      -6.991  10.666  66.622  1.00  0.00    -0.119 A  
HETATM   10  C   UNL     1      -6.091   9.280  68.844  1.00  0.00    -0.043 A  
HETATM   11  C   UNL     1      -5.630  10.489  66.798  1.00  0.00    -0.051 A  
HETATM   12  O   UNL     1      -7.413  11.327  65.506  1.00  0.00    -0.347 OA 
HETATM   13  C   UNL     1      -5.177   9.810  67.924  1.00  0.00    -0.036 A  
HETATM   14  H   UNL     1      -6.791  11.669  64.874  1.00  0.00     0.000 HD 
ENDROOT
BRANCH   7  15
HETATM   15  N   UNL     1     -11.366   8.802  70.976  1.00  0.00    -0.267 NA 
HETATM   16  C   UNL     1     -12.077   9.981  70.467  1.00  0.00    -0.251 C  
HETATM   17  C   UNL     1     -12.233   8.091  71.929  1.00  0.00    -0.319 C  
ENDBRANCH   7  15
TORSDOF 1
ENDMDL
MODEL      124
REMARK 921   NORMALIZED FREE ENERGY PREDICTED BY IDOCK:   -2.29 KCAL/MOL
REMARK 922        TOTAL FREE ENERGY PREDICTED BY IDOCK:   -2.56 KCAL/MOL
REMARK 923 INTER-LIGAND FREE ENERGY PREDICTED BY IDOCK:   -2.43 KCAL/MOL
REMARK 924 INTRA-LIGAND FREE ENERGY PREDICTED BY IDOCK:   -0.13 KCAL/MOL
REMARK 927      BINDING AFFINITY PREDICTED BY RF-SCORE:    0.00 PKD
ROOT
HETATM    1  C   UNL     1     -11.024   7.316  67.213  1.00  0.00    -0.284 C  
HETATM    2  C   UNL     1      -9.669   6.630  67.069  1.00  0.00    -0.197 C  
HETATM    3  C   UNL     1      -8.804   6.533  68.360  1.00  0.00    -0.123 C  
HETATM    4  C   UNL     1      -8.287   7.890  68.894  1.00  0.00    -0.127 A  
HETATM    5  C   UNL     1      -9.451   5.628  69.474  1.00  0.00    -0.174 C  
HETATM    6  C   UNL     1     -10.644   6.283  70.198  1.00  0.00    -0.306 C  
HETATM    7  C   UNL     1      -9.860   4.205  69.013  1.00  0.00    -0.036 C  
HETATM    8  C   UNL     1      -7.829   8.020  70.221  1.00  0.00    -0.088 A  
HETATM    9  C   UNL     1      -7.447   9.258  70.736  1.00  0.00    -0.128 A  
HETATM   10  C   UNL     1      -8.222   9.039  68.086  1.00  0.00    -0.113 A  
HETATM   11  C   UNL     1      -7.441  10.388  69.938  1.00  0.00    -0.134 A  
HETATM   12  O   UNL     1      -7.089   9.395  72.045  1.00  0.00    -0.291 OA 
HETATM   13  C   UNL     1      -7.811  10.275  68.602  1.00  0.00    -0.101 A  
HETATM   14  H   UNL     1      -6.829  10.239  72.396  1.00  0.00     0.000 HD 
ENDROOT
BRANCH   7  15
HETATM   15  N   UNL     1      -8.771   3.369  68.472  1.00  0.00    -0.093 NA 
HETATM   16  C   UNL     1      -8.551   2.161  69.275  1.00  0.00    -0.061 C  
HETATM   17  C   UNL     1      -9.102   2.977  67.093  1.00  0.00    -0.175 C  
ENDBRANCH   7  15
TORSDOF 1
ENDMDL
MODEL      125
REMARK 921   NORMALIZED FREE ENERGY PREDICTED BY IDOCK:   -2.24 KCAL/MOL
REMARK 922        TOTAL FREE ENERGY PREDICTED BY IDOCK:   -2.51 KCAL/MOL
REMARK 923 INTER-LIGAND FREE ENERGY PREDICTED BY IDOCK:   -2.39 KCAL/MOL
REMARK 924 INTRA-LIGAND FREE ENERGY PREDICTED BY IDOCK:   -0.12 KCAL/MOL
REMARK 927      BINDING AFFINITY PREDICTED BY RF-SCORE:    0.00 PKD
ROOT
HETATM    1  C   UNL     1      -5.935   3.743  68.368  1.00  0.00    -0.027 C  
HETATM    2  C   UNL     1      -6.542   4.367  69.621  1.00  0.00    -0.033 C  
HETATM    3  C   UNL     1      -8.073   4.649  69.579  1.00  0.00    -0.065 C  
HETATM    4  C   UNL     1      -8.500   5.749  68.578  1.00  0.00    -0.110 A  
HETATM    5  C   UNL     1      -8.942   3.341  69.477  1.00  0.00    -0.176 C  
HETATM    6  C   UNL     1      -8.920   2.680  68.084  1.00  0.00    -0.199 C  
HETATM    7  C   UNL     1      -8.640   2.262  70.550  1.00  0.00    -0.053 C  
HETATM    8  C   UNL     1      -9.837   5.858  68.147  1.00  0.00    -0.155 A  
HETATM    9  C   UNL     1     -10.211   6.789  67.178  1.00  0.00    -0.225 A  
HETATM   10  C   UNL     1      -7.593   6.701  68.077  1.00  0.00    -0.107 A  
HETATM   11  C   UNL     1      -9.291   7.682  66.658  1.00  0.00    -0.239 A  
HETATM   12  O   UNL     1     -11.488   6.831  66.699  1.00  0.00    -0.649 OA 
HETATM   13  C   UNL     1      -7.981   7.651  67.124  1.00  0.00    -0.117 A  
HETATM   14  H   UNL     1     -11.743   7.465  66.038  1.00  0.00     0.000 HD 
ENDROOT
BRANCH   7  15
HETATM   15  N   UNL     1      -8.812   2.689  71.953  1.00  0.00    -0.073 NA 
HETATM   16  C   UNL     1     -10.222   2.911  72.294  1.00  0.00    -0.110 C  
HETATM   17  C   UNL     1      -8.258   1.658  72.844  1.00  0.00    -0.053 C  
ENDBRANCH   7  15
TORSDOF 1
ENDMDL
MODEL      126
REMARK 921   NORMALIZED FREE ENERGY PREDICTED BY IDOCK:   -2.24 KCAL/MOL
REMARK 922        TOTAL FREE ENERGY PREDICTED BY IDOCK:   -2.51 KCAL/MOL
REMARK 923 INTER-LIGAND FREE ENERGY PREDICTED BY IDOCK:   -2.37 KCAL/MOL
REMARK 924 INTRA-LIGAND FREE ENERGY PREDICTED BY IDOCK:   -0.14 KCAL/MOL
REMARK 927      BINDING AFFINITY PREDICTED BY RF-SCORE:    0.00 PKD
ROOT
HETATM    1  C   UNL     1     -10.783   7.152  70.160  1.00  0.00    -0.260 C  
HETATM    2  C   UNL     1     -10.622   5.663  70.453  1.00  0.00    -0.364 C  
HETATM    3  C   UNL     1      -9.354   4.978  69.862  1.00  0.00    -0.198 C  
HETATM    4  C   UNL     1      -9.332   4.884  68.318  1.00  0.00    -0.168 A  
HETATM    5  C   UNL     1      -8.011   5.523  70.475  1.00  0.00    -0.103 C  
HETATM    6  C   UNL     1      -7.616   6.926  69.969  1.00  0.00    -0.099 C  
HETATM    7  C   UNL     1      -7.938   5.508  72.024  1.00  0.00    -0.111 C  
HETATM    8  C   UNL     1      -8.128   4.650  67.623  1.00  0.00    -0.100 A  
HETATM    9  C   UNL     1      -8.084   4.654  66.230  1.00  0.00    -0.103 A  
HETATM   10  C   UNL     1     -10.499   4.997  67.541  1.00  0.00    -0.094 A  
HETATM   11  C   UNL     1      -9.237   4.820  65.483  1.00  0.00    -0.155 A  
HETATM   12  O   UNL     1      -6.902   4.516  65.562  1.00  0.00    -0.054 OA 
HETATM   13  C   UNL     1     -10.453   4.973  66.141  1.00  0.00    -0.334 A  
HETATM   14  H   UNL     1      -6.872   4.518  64.612  1.00  0.00     0.000 HD 
ENDROOT
BRANCH   7  15
HETATM   15  N   UNL     1      -8.101   4.186  72.660  1.00  0.00    -0.094 NA 
HETATM   16  C   UNL     1      -6.833   3.664  73.183  1.00  0.00    -0.040 C  
HETATM   17  C   UNL     1      -9.069   4.295  73.762  1.00  0.00    -0.093 C  
ENDBRANCH   7  15
TORSDOF 1
ENDMDL
MODEL      127
REMARK 921   NORMALIZED FREE ENERGY PREDICTED BY IDOCK:   -2.21 KCAL/MOL
REMARK 922        TOTAL FREE ENERGY PREDICTED BY IDOCK:   -2.47 KCAL/MOL
REMARK 923 INTER-LIGAND FREE ENERGY PREDICTED BY IDOCK:   -2.33 KCAL/MOL
REMARK 924 INTRA-LIGAND FREE ENERGY PREDICTED BY IDOCK:   -0.14 KCAL/MOL
REMARK 927      BINDING AFFINITY PREDICTED BY RF-SCORE:    0.00 PKD
ROOT
HETATM    1  C   UNL     1      -6.156   5.024  69.807  1.00  0.00    -0.022 C  
HETATM    2  C   UNL     1      -6.699   6.071  70.774  1.00  0.00    -0.057 C  
HETATM    3  C   UNL     1      -8.183   6.498  70.565  1.00  0.00    -0.118 C  
HETATM    4  C   UNL     1      -8.453   7.273  69.254  1.00  0.00    -0.133 A  
HETATM    5  C   UNL     1      -9.207   5.331  70.824  1.00  0.00    -0.191 C  
HETATM    6  C   UNL     1      -9.245   4.271  69.704  1.00  0.00    -0.204 C  
HETATM    7  C   UNL     1      -9.058   4.613  72.191  1.00  0.00    -0.127 C  
HETATM    8  C   UNL     1      -9.760   7.394  68.739  1.00  0.00    -0.149 A  
HETATM    9  C   UNL     1     -10.000   8.013  67.513  1.00  0.00    -0.194 A  
HETATM   10  C   UNL     1      -7.428   7.912  68.534  1.00  0.00    -0.096 A  
HETATM   11  C   UNL     1      -8.968   8.589  66.794  1.00  0.00    -0.173 A  
HETATM   12  O   UNL     1     -11.254   8.048  66.976  1.00  0.00    -0.260 OA 
HETATM   13  C   UNL     1      -7.679   8.557  67.316  1.00  0.00    -0.097 A  
HETATM   14  H   UNL     1     -11.417   8.470  66.140  1.00  0.00     0.000 HD 
ENDROOT
BRANCH   7  15
HETATM   15  N   UNL     1      -9.198   5.471  73.383  1.00  0.00    -0.132 NA 
HETATM   16  C   UNL     1     -10.495   5.291  74.045  1.00  0.00    -0.281 C  
HETATM   17  C   UNL     1      -8.122   5.154  74.336  1.00  0.00    -0.102 C  
ENDBRANCH   7  15
TORSDOF 1
ENDMDL
MODEL      128
REMARK 921   NORMALIZED FREE ENERGY PREDICTED BY IDOCK:   -2.20 KCAL/MOL
REMARK 922        TOTAL FREE ENERGY PREDICTED BY IDOCK:   -2.47 KCAL/MOL
REMARK 923 INTER-LIGAND FREE ENERGY PREDICTED BY IDOCK:   -2.35 KCAL/MOL
REMARK 924 INTRA-LIGAND FREE ENERGY PREDICTED BY IDOCK:   -0.12 KCAL/MOL
REMARK 927      BINDING AFFINITY PREDICTED BY RF-SCORE:    0.00 PKD
ROOT
HETATM    1  C   UNL     1      -5.559  10.768  69.559  1.00  0.00    -0.039 C  
HETATM    2  C   UNL     1      -7.051  11.081  69.627  1.00  0.00    -0.089 C  
HETATM    3  C   UNL     1      -7.600  12.055  68.542  1.00  0.00    -0.126 C  
HETATM    4  C   UNL     1      -7.083  13.508  68.659  1.00  0.00    -0.106 A  
HETATM    5  C   UNL     1      -7.509  11.474  67.082  1.00  0.00    -0.142 C  
HETATM    6  C   UNL     1      -6.081  11.466  66.500  1.00  0.00    -0.121 C  
HETATM    7  C   UNL     1      -8.139  10.070  66.889  1.00  0.00    -0.117 C  
HETATM    8  C   UNL     1      -7.173  14.399  67.570  1.00  0.00    -0.202 A  
HETATM    9  C   UNL     1      -6.628  15.681  67.638  1.00  0.00    -0.172 A  
HETATM   10  C   UNL     1      -6.532  14.016  69.849  1.00  0.00    -0.098 A  
HETATM   11  C   UNL     1      -6.042  16.143  68.803  1.00  0.00    -0.111 A  
HETATM   12  O   UNL     1      -6.638  16.508  66.553  1.00  0.00    -0.250 OA 
HETATM   13  C   UNL     1      -6.011  15.315  69.919  1.00  0.00    -0.141 A  
HETATM   14  H   UNL     1      -6.267  17.382  66.599  1.00  0.00     0.000 HD 
ENDROOT
BRANCH   7  15
HETATM   15  N   UNL     1      -9.573   9.961  67.220  1.00  0.00    -0.156 NA 
HETATM   16  C   UNL     1     -10.409  10.774  66.328  1.00  0.00    -0.244 C  
HETATM   17  C   UNL     1      -9.988   8.553  67.119  1.00  0.00    -0.238 C  
ENDBRANCH   7  15
TORSDOF 1
ENDMDL
MODEL      129
REMARK 921   NORMALIZED FREE ENERGY PREDICTED BY IDOCK:   -2.15 KCAL/MOL
REMARK 922        TOTAL FREE ENERGY PREDICTED BY IDOCK:   -2.41 KCAL/MOL
REMARK 923 INTER-LIGAND FREE ENERGY PREDICTED BY IDOCK:   -2.29 KCAL/MOL
REMARK 924 INTRA-LIGAND FREE ENERGY PREDICTED BY IDOCK:   -0.12 KCAL/MOL
REMARK 927      BINDING AFFINITY PREDICTED BY RF-SCORE:    0.00 PKD
ROOT
HETATM    1  C   UNL     1     -11.020   6.768  67.365  1.00  0.00    -0.407 C  
HETATM    2  C   UNL     1      -9.598   7.009  66.867  1.00  0.00    -0.214 C  
HETATM    3  C   UNL     1      -8.451   6.442  67.756  1.00  0.00    -0.117 C  
HETATM    4  C   UNL     1      -8.302   7.132  69.133  1.00  0.00    -0.129 A  
HETATM    5  C   UNL     1      -8.448   4.871  67.841  1.00  0.00    -0.103 C  
HETATM    6  C   UNL     1      -9.566   4.290  68.730  1.00  0.00    -0.219 C  
HETATM    7  C   UNL     1      -8.459   4.136  66.475  1.00  0.00    -0.104 C  
HETATM    8  C   UNL     1      -7.592   6.513  70.181  1.00  0.00    -0.096 A  
HETATM    9  C   UNL     1      -7.530   7.086  71.451  1.00  0.00    -0.081 A  
HETATM   10  C   UNL     1      -8.836   8.407  69.397  1.00  0.00    -0.142 A  
HETATM   11  C   UNL     1      -8.108   8.318  71.703  1.00  0.00    -0.167 A  
HETATM   12  O   UNL     1      -6.918   6.441  72.485  1.00  0.00    -0.072 OA 
HETATM   13  C   UNL     1      -8.747   8.990  70.667  1.00  0.00    -0.251 A  
HETATM   14  H   UNL     1      -6.876   6.832  73.351  1.00  0.00     0.000 HD 
ENDROOT
BRANCH   7  15
HETATM   15  N   UNL     1      -7.329   4.441  65.575  1.00  0.00    -0.075 NA 
HETATM   16  C   UNL     1      -6.132   3.659  65.908  1.00  0.00    -0.028 C  
HETATM   17  C   UNL     1      -7.723   4.151  64.188  1.00  0.00    -0.083 C  
ENDBRANCH   7  15
TORSDOF 1
ENDMDL
MODEL      130
REMARK 921   NORMALIZED FREE ENERGY PREDICTED BY IDOCK:   -2.05 KCAL/MOL
REMARK 922        TOTAL FREE ENERGY PREDICTED BY IDOCK:   -2.30 KCAL/MOL
REMARK 923 INTER-LIGAND FREE ENERGY PREDICTED BY IDOCK:   -2.85 KCAL/MOL
REMARK 924 INTRA-LIGAND FREE ENERGY PREDICTED BY IDOCK:    0.55 KCAL/MOL
REMARK 927      BINDING AFFINITY PREDICTED BY RF-SCORE:    0.00 PKD
ROOT
HETATM    1  C   UNL     1      -6.029   4.569  66.731  1.00  0.00    -0.027 C  
HETATM    2  C   UNL     1      -7.126   3.645  66.210  1.00  0.00    -0.063 C  
HETATM    3  C   UNL     1      -8.580   4.201  66.266  1.00  0.00    -0.113 C  
HETATM    4  C   UNL     1      -9.141   4.394  67.695  1.00  0.00    -0.145 A  
HETATM    5  C   UNL     1      -8.806   5.447  65.332  1.00  0.00    -0.144 C  
HETATM    6  C   UNL     1      -8.176   6.750  65.863  1.00  0.00    -0.132 C  
HETATM    7  C   UNL     1      -8.381   5.248  63.853  1.00  0.00    -0.122 C  
HETATM    8  C   UNL     1     -10.258   5.221  67.930  1.00  0.00    -0.203 A  
HETATM    9  C   UNL     1     -10.714   5.472  69.223  1.00  0.00    -0.217 A  
HETATM   10  C   UNL     1      -8.591   3.742  68.813  1.00  0.00    -0.116 A  
HETATM   11  C   UNL     1     -10.124   4.860  70.316  1.00  0.00    -0.322 A  
HETATM   12  O   UNL     1     -11.739   6.342  69.452  1.00  0.00    -0.619 OA 
HETATM   13  C   UNL     1      -9.071   3.977  70.109  1.00  0.00    -0.186 A  
HETATM   14  H   UNL     1     -12.050   6.513  70.334  1.00  0.00     0.000 HD 
ENDROOT
BRANCH   7  15
HETATM   15  N   UNL     1      -9.053   4.147  63.136  1.00  0.00    -0.121 NA 
HETATM   16  C   UNL     1      -8.208   2.950  63.047  1.00  0.00    -0.074 C  
HETATM   17  C   UNL     1     -10.301   3.804  63.835  1.00  0.00    -0.245 C  
ENDBRANCH   7  15
TORSDOF 1
ENDMDL
MODEL      131
REMARK 921   NORMALIZED FREE ENERGY PREDICTED BY IDOCK:   -1.93 KCAL/MOL
REMARK 922        TOTAL FREE ENERGY PREDICTED BY IDOCK:   -2.18 KCAL/MOL
REMARK 923 INTER-LIGAND FREE ENERGY PREDICTED BY IDOCK:   -2.04 KCAL/MOL
REMARK 924 INTRA-LIGAND FREE ENERGY PREDICTED BY IDOCK:   -0.14 KCAL/MOL
REMARK 927      BINDING AFFINITY PREDICTED BY RF-SCORE:    0.00 PKD
ROOT
HETATM    1  C   UNL     1      -6.706   2.936  72.559  1.00  0.00    -0.022 C  
HETATM    2  C   UNL     1      -7.818   2.621  71.564  1.00  0.00    -0.047 C  
HETATM    3  C   UNL     1      -8.458   3.841  70.836  1.00  0.00    -0.099 C  
HETATM    4  C   UNL     1      -9.270   4.786  71.753  1.00  0.00    -0.175 A  
HETATM    5  C   UNL     1      -7.453   4.598  69.891  1.00  0.00    -0.054 C  
HETATM    6  C   UNL     1      -6.415   5.458  70.641  1.00  0.00    -0.035 C  
HETATM    7  C   UNL     1      -6.715   3.704  68.860  1.00  0.00    -0.045 C  
HETATM    8  C   UNL     1      -9.583   6.099  71.347  1.00  0.00    -0.177 A  
HETATM    9  C   UNL     1     -10.235   6.986  72.203  1.00  0.00    -0.186 A  
HETATM   10  C   UNL     1      -9.755   4.380  73.010  1.00  0.00    -0.167 A  
HETATM   11  C   UNL     1     -10.657   6.581  73.457  1.00  0.00    -0.312 A  
HETATM   12  O   UNL     1     -10.456   8.282  71.839  1.00  0.00    -0.232 OA 
HETATM   13  C   UNL     1     -10.434   5.268  73.855  1.00  0.00    -0.317 A  
HETATM   14  H   UNL     1     -10.900   8.886  72.422  1.00  0.00     0.000 HD 
ENDROOT
BRANCH   7  15
HETATM   15  N   UNL     1      -7.580   2.958  67.925  1.00  0.00    -0.057 NA 
HETATM   16  C   UNL     1      -7.578   3.548  66.581  1.00  0.00    -0.080 C  
HETATM   17  C   UNL     1      -7.114   1.566  67.841  1.00  0.00    -0.035 C  
ENDBRANCH   7  15
TORSDOF 1
ENDMDL
MODEL      132
REMARK 921   NORMALIZED FREE ENERGY PREDICTED BY IDOCK:   -1.90 KCAL/MOL
REMARK 922        TOTAL FREE ENERGY PREDICTED BY IDOCK:   -2.14 KCAL/MOL
REMARK 923 INTER-LIGAND FREE ENERGY PREDICTED BY IDOCK:   -2.86 KCAL/MOL
REMARK 924 INTRA-LIGAND FREE ENERGY PREDICTED BY IDOCK:    0.71 KCAL/MOL
REMARK 927      BINDING AFFINITY PREDICTED BY RF-SCORE:    0.00 PKD
ROOT
HETATM    1  C   UNL     1      -8.131   8.680  67.726  1.00  0.00    -0.107 C  
HETATM    2  C   UNL     1      -8.542   9.398  69.007  1.00  0.00    -0.135 C  
HETATM    3  C   UNL     1      -8.851  10.919  68.877  1.00  0.00    -0.143 C  
HETATM    4  C   UNL     1      -7.625  11.799  68.537  1.00  0.00    -0.131 A  
HETATM    5  C   UNL     1     -10.107  11.223  67.979  1.00  0.00    -0.192 C  
HETATM    6  C   UNL     1      -9.856  11.038  66.468  1.00  0.00    -0.241 C  
HETATM    7  C   UNL     1     -11.400  10.462  68.372  1.00  0.00    -0.227 C  
HETATM    8  C   UNL     1      -7.787  13.101  68.020  1.00  0.00    -0.147 A  
HETATM    9  C   UNL     1      -6.689  13.865  67.627  1.00  0.00    -0.175 A  
HETATM   10  C   UNL     1      -6.304  11.363  68.750  1.00  0.00    -0.053 A  
HETATM   11  C   UNL     1      -5.399  13.395  67.796  1.00  0.00    -0.073 A  
HETATM   12  O   UNL     1      -6.855  15.088  67.045  1.00  0.00    -0.313 OA 
HETATM   13  C   UNL     1      -5.205  12.147  68.378  1.00  0.00    -0.051 A  
HETATM   14  H   UNL     1      -6.107  15.609  66.777  1.00  0.00     0.000 HD 
ENDROOT
BRANCH   7  15
HETATM   15  N   UNL     1     -11.887  10.694  69.745  1.00  0.00    -0.297 NA 
HETATM   16  C   UNL     1     -11.177   9.869  70.730  1.00  0.00    -0.353 C  
HETATM   17  C   UNL     1     -11.711  12.113  70.089  1.00  0.00    -0.218 C  
ENDBRANCH   7  15
TORSDOF 1
ENDMDL
MODEL      133
REMARK 921   NORMALIZED FREE ENERGY PREDICTED BY IDOCK:   -1.86 KCAL/MOL
REMARK 922        TOTAL FREE ENERGY PREDICTED BY IDOCK:   -2.11 KCAL/MOL
REMARK 923 INTER-LIGAND FREE ENERGY PREDICTED BY IDOCK:   -1.99 KCAL/MOL
REMARK 924 INTRA-LIGAND FREE ENERGY PREDICTED BY IDOCK:   -0.12 KCAL/MOL
REMARK 927      BINDING AFFINITY PREDICTED BY RF-SCORE:    0.00 PKD
ROOT
HETATM    1  C   UNL     1     -12.026  12.756  69.209  1.00  0.00    -0.300 C  
HETATM    2  C   UNL     1     -11.038  13.462  70.133  1.00  0.00     0.409 C  
HETATM    3  C   UNL     1     -10.996  15.016  70.040  1.00  0.00    -0.268 C  
HETATM    4  C   UNL     1     -10.450  15.568  68.701  1.00  0.00    -0.237 A  
HETATM    5  C   UNL     1     -12.336  15.702  70.498  1.00  0.00    -0.443 C  
HETATM    6  C   UNL     1     -13.488  15.568  69.481  1.00  0.00     1.660 C  
HETATM    7  C   UNL     1     -12.850  15.278  71.899  1.00  0.00    -0.368 C  
HETATM    8  C   UNL     1     -10.694  16.900  68.313  1.00  0.00    -0.377 A  
HETATM    9  C   UNL     1     -10.283  17.378  67.069  1.00  0.00    -0.323 A  
HETATM   10  C   UNL     1      -9.668  14.787  67.831  1.00  0.00    -0.211 A  
HETATM   11  C   UNL     1      -9.560  16.576  66.203  1.00  0.00    -0.344 A  
HETATM   12  O   UNL     1     -10.600  18.641  66.660  1.00  0.00    -0.394 OA 
HETATM   13  C   UNL     1      -9.234  15.282  66.594  1.00  0.00    -0.302 A  
HETATM   14  H   UNL     1     -10.319  18.966  65.813  1.00  0.00     0.000 HD 
ENDROOT
BRANCH   7  15
HETATM   15  N   UNL     1     -11.927  15.528  73.023  1.00  0.00    -0.439 NA 
HETATM   16  C   UNL     1     -11.840  16.954  73.359  1.00  0.00     0.055 C  
HETATM   17  C   UNL     1     -12.387  14.781  74.203  1.00  0.00    -0.106 C  
ENDBRANCH   7  15
TORSDOF 1
ENDMDL
MODEL      134
REMARK 921   NORMALIZED FREE ENERGY PREDICTED BY IDOCK:   -1.80 KCAL/MOL
REMARK 922        TOTAL FREE ENERGY PREDICTED BY IDOCK:   -2.04 KCAL/MOL
REMARK 923 INTER-LIGAND FREE ENERGY PREDICTED BY IDOCK:   -2.15 KCAL/MOL
REMARK 924 INTRA-LIGAND FREE ENERGY PREDICTED BY IDOCK:    0.11 KCAL/MOL
REMARK 927      BINDING AFFINITY PREDICTED BY RF-SCORE:    0.00 PKD
ROOT
HETATM    1  C   UNL     1      -7.895  10.675  69.223  1.00  0.00    -0.140 C  
HETATM    2  C   UNL     1      -9.047   9.815  69.735  1.00  0.00    -0.246 C  
HETATM    3  C   UNL     1      -8.827   8.273  69.692  1.00  0.00    -0.139 C  
HETATM    4  C   UNL     1      -8.744   7.673  68.268  1.00  0.00    -0.123 A  
HETATM    5  C   UNL     1      -7.676   7.783  70.646  1.00  0.00    -0.091 C  
HETATM    6  C   UNL     1      -6.258   8.103  70.132  1.00  0.00    -0.032 C  
HETATM    7  C   UNL     1      -7.795   8.251  72.120  1.00  0.00    -0.128 C  
HETATM    8  C   UNL     1      -8.183   6.398  68.051  1.00  0.00    -0.116 A  
HETATM    9  C   UNL     1      -8.022   5.889  66.763  1.00  0.00    -0.102 A  
HETATM   10  C   UNL     1      -9.242   8.346  67.138  1.00  0.00    -0.174 A  
HETATM   11  C   UNL     1      -8.471   6.592  65.659  1.00  0.00    -0.147 A  
HETATM   12  O   UNL     1      -7.398   4.694  66.552  1.00  0.00    -0.079 OA 
HETATM   13  C   UNL     1      -9.102   7.817  65.849  1.00  0.00    -0.122 A  
HETATM   14  H   UNL     1      -7.288   4.347  65.674  1.00  0.00     0.000 HD 
ENDROOT
BRANCH   7  15
HETATM   15  N   UNL     1      -9.028   7.847  72.823  1.00  0.00    -0.176 NA 
HETATM   16  C   UNL     1      -9.508   6.531  72.383  1.00  0.00    -0.145 C  
HETATM   17  C   UNL     1      -8.770   7.807  74.270  1.00  0.00    -0.190 C  
ENDBRANCH   7  15
TORSDOF 1
ENDMDL
MODEL      135
REMARK 921   NORMALIZED FREE ENERGY PREDICTED BY IDOCK:   -1.67 KCAL/MOL
REMARK 922        TOTAL FREE ENERGY PREDICTED BY IDOCK:   -1.91 KCAL/MOL
REMARK 923 INTER-LIGAND FREE ENERGY PREDICTED BY IDOCK:   -1.84 KCAL/MOL
REMARK 924 INTRA-LIGAND FREE ENERGY PREDICTED BY IDOCK:   -0.07 KCAL/MOL
REMARK 927      BINDING AFFINITY PREDICTED BY RF-SCORE:    0.00 PKD
ROOT
HETATM    1  C   UNL     1     -11.298  12.892  67.897  1.00  0.00    -0.336 C  
HETATM    2  C   UNL     1     -10.385  12.128  66.943  1.00  0.00    -0.235 C  
HETATM    3  C   UNL     1      -9.100  11.507  67.568  1.00  0.00    -0.166 C  
HETATM    4  C   UNL     1      -8.058  12.540  68.060  1.00  0.00    -0.164 A  
HETATM    5  C   UNL     1      -9.404  10.376  68.619  1.00  0.00    -0.167 C  
HETATM    6  C   UNL     1      -9.932  10.902  69.969  1.00  0.00     0.588 C  
HETATM    7  C   UNL     1     -10.339   9.244  68.119  1.00  0.00    -0.215 C  
HETATM    8  C   UNL     1      -7.046  12.172  68.968  1.00  0.00    -0.062 A  
HETATM    9  C   UNL     1      -6.159  13.116  69.486  1.00  0.00    -0.114 A  
HETATM   10  C   UNL     1      -8.051  13.872  67.610  1.00  0.00    -0.183 A  
HETATM   11  C   UNL     1      -6.204  14.435  69.069  1.00  0.00    -0.094 A  
HETATM   12  O   UNL     1      -5.239  12.772  70.432  1.00  0.00    -0.096 OA 
HETATM   13  C   UNL     1      -7.140  14.811  68.113  1.00  0.00    -0.126 A  
HETATM   14  H   UNL     1      -4.635  13.416  70.785  1.00  0.00     0.000 HD 
ENDROOT
BRANCH   7  15
HETATM   15  N   UNL     1      -9.870   8.502  66.933  1.00  0.00    -0.217 NA 
HETATM   16  C   UNL     1      -8.488   8.032  67.088  1.00  0.00    -0.124 C  
HETATM   17  C   UNL     1     -10.750   7.345  66.706  1.00  0.00    -0.132 C  
ENDBRANCH   7  15
TORSDOF 1
ENDMDL
MODEL      136
REMARK 921   NORMALIZED FREE ENERGY PREDICTED BY IDOCK:   -1.60 KCAL/MOL
REMARK 922        TOTAL FREE ENERGY PREDICTED BY IDOCK:   -1.83 KCAL/MOL
REMARK 923 INTER-LIGAND FREE ENERGY PREDICTED BY IDOCK:   -2.42 KCAL/MOL
REMARK 924 INTRA-LIGAND FREE ENERGY PREDICTED BY IDOCK:    0.59 KCAL/MOL
REMARK 927      BINDING AFFINITY PREDICTED BY RF-SCORE:    0.00 PKD
ROOT
HETATM    1  C   UNL     1      -7.765  10.090  65.664  1.00  0.00    -0.136 C  
HETATM    2  C   UNL     1      -9.130   9.913  66.322  1.00  0.00    -0.187 C  
HETATM    3  C   UNL     1      -9.148   9.901  67.880  1.00  0.00    -0.135 C  
HETATM    4  C   UNL     1      -8.453   8.677  68.523  1.00  0.00    -0.131 A  
HETATM    5  C   UNL     1      -8.713  11.272  68.517  1.00  0.00    -0.156 C  
HETATM    6  C   UNL     1      -7.198  11.550  68.433  1.00  0.00    -0.089 C  
HETATM    7  C   UNL     1      -9.482  12.515  67.997  1.00  0.00    -0.209 C  
HETATM    8  C   UNL     1      -8.053   8.698  69.874  1.00  0.00    -0.111 A  
HETATM    9  C   UNL     1      -7.346   7.635  70.437  1.00  0.00    -0.071 A  
HETATM   10  C   UNL     1      -8.215   7.487  67.811  1.00  0.00    -0.119 A  
HETATM   11  C   UNL     1      -7.076   6.494  69.701  1.00  0.00    -0.072 A  
HETATM   12  O   UNL     1      -6.883   7.697  71.718  1.00  0.00    -0.058 OA 
HETATM   13  C   UNL     1      -7.529   6.412  68.389  1.00  0.00    -0.088 A  
HETATM   14  H   UNL     1      -6.402   6.972  72.101  1.00  0.00     0.000 HD 
ENDROOT
BRANCH   7  15
HETATM   15  N   UNL     1     -10.946  12.488  68.188  1.00  0.00    -0.217 NA 
HETATM   16  C   UNL     1     -11.666  12.364  66.916  1.00  0.00    -0.362 C  
HETATM   17  C   UNL     1     -11.300  11.355  69.056  1.00  0.00    -0.280 C  
ENDBRANCH   7  15
TORSDOF 1
ENDMDL
MODEL      137
REMARK 921   NORMALIZED FREE ENERGY PREDICTED BY IDOCK:   -1.57 KCAL/MOL
REMARK 922        TOTAL FREE ENERGY PREDICTED BY IDOCK:   -1.80 KCAL/MOL
REMARK 923 INTER-LIGAND FREE ENERGY PREDICTED BY IDOCK:   -1.68 KCAL/MOL
REMARK 924 INTRA-LIGAND FREE ENERGY PREDICTED BY IDOCK:   -0.12 KCAL/MOL
REMARK 927      BINDING AFFINITY PREDICTED BY RF-SCORE:    0.00 PKD
ROOT
HETATM    1  C   UNL     1      -8.926   8.875  71.769  1.00  0.00    -0.203 C  
HETATM    2  C   UNL     1      -9.935   8.075  70.952  1.00  0.00    -0.207 C  
HETATM    3  C   UNL     1     -10.403   6.722  71.566  1.00  0.00    -0.228 C  
HETATM    4  C   UNL     1      -9.304   5.636  71.649  1.00  0.00    -0.164 A  
HETATM    5  C   UNL     1     -11.212   6.895  72.905  1.00  0.00    -0.254 C  
HETATM    6  C   UNL     1     -10.340   7.265  74.121  1.00  0.00     0.033 C  
HETATM    7  C   UNL     1     -12.412   7.876  72.829  1.00  0.00     0.119 C  
HETATM    8  C   UNL     1      -9.448   4.523  72.500  1.00  0.00    -0.173 A  
HETATM    9  C   UNL     1      -8.424   3.587  72.648  1.00  0.00    -0.085 A  
HETATM   10  C   UNL     1      -8.135   5.689  70.868  1.00  0.00    -0.118 A  
HETATM   11  C   UNL     1      -7.258   3.688  71.908  1.00  0.00    -0.050 A  
HETATM   12  O   UNL     1      -8.531   2.561  73.540  1.00  0.00    -0.063 OA 
HETATM   13  C   UNL     1      -7.121   4.732  71.000  1.00  0.00    -0.047 A  
HETATM   14  H   UNL     1      -7.834   1.923  73.640  1.00  0.00     0.000 HD 
ENDROOT
BRANCH   7  15
HETATM   15  N   UNL     1     -13.449   7.543  71.833  1.00  0.00    -0.286 NA 
HETATM   16  C   UNL     1     -14.291   6.422  72.267  1.00  0.00     0.349 C  
HETATM   17  C   UNL     1     -14.297   8.723  71.605  1.00  0.00    -0.306 C  
ENDBRANCH   7  15
TORSDOF 1
ENDMDL
MODEL      138
REMARK 921   NORMALIZED FREE ENERGY PREDICTED BY IDOCK:   -1.55 KCAL/MOL
REMARK 922        TOTAL FREE ENERGY PREDICTED BY IDOCK:   -1.78 KCAL/MOL
REMARK 923 INTER-LIGAND FREE ENERGY PREDICTED BY IDOCK:   -1.74 KCAL/MOL
REMARK 924 INTRA-LIGAND FREE ENERGY PREDICTED BY IDOCK:   -0.04 KCAL/MOL
REMARK 927      BINDING AFFINITY PREDICTED BY RF-SCORE:    0.00 PKD
ROOT
HETATM    1  C   UNL     1     -10.660   9.730  68.237  1.00  0.00    -0.271 C  
HETATM    2  C   UNL     1      -9.200   9.466  68.593  1.00  0.00    -0.131 C  
HETATM    3  C   UNL     1      -8.206   9.365  67.397  1.00  0.00    -0.121 C  
HETATM    4  C   UNL     1      -8.417   8.134  66.485  1.00  0.00    -0.132 A  
HETATM    5  C   UNL     1      -8.053  10.714  66.601  1.00  0.00    -0.136 C  
HETATM    6  C   UNL     1      -9.261  11.052  65.704  1.00  0.00    -0.231 C  
HETATM    7  C   UNL     1      -7.705  11.955  67.465  1.00  0.00    -0.151 C  
HETATM    8  C   UNL     1      -7.876   8.094  65.184  1.00  0.00    -0.118 A  
HETATM    9  C   UNL     1      -8.137   7.028  64.324  1.00  0.00    -0.040 A  
HETATM   10  C   UNL     1      -9.127   6.996  66.911  1.00  0.00    -0.156 A  
HETATM   11  C   UNL     1      -8.883   5.941  64.746  1.00  0.00     0.155 A  
HETATM   12  O   UNL     1      -7.684   7.035  63.037  1.00  0.00    -0.103 OA 
HETATM   13  C   UNL     1      -9.363   5.916  66.051  1.00  0.00    -0.117 A  
HETATM   14  H   UNL     1      -7.863   6.308  62.451  1.00  0.00     0.000 HD 
ENDROOT
BRANCH   7  15
HETATM   15  N   UNL     1      -6.454  11.863  68.242  1.00  0.00    -0.050 NA 
HETATM   16  C   UNL     1      -5.568  13.008  68.000  1.00  0.00    -0.106 C  
HETATM   17  C   UNL     1      -6.778  11.800  69.676  1.00  0.00    -0.034 C  
ENDBRANCH   7  15
TORSDOF 1
ENDMDL
MODEL      139
REMARK 921   NORMALIZED FREE ENERGY PREDICTED BY IDOCK:   -1.51 KCAL/MOL
REMARK 922        TOTAL FREE ENERGY PREDICTED BY IDOCK:   -1.74 KCAL/MOL
REMARK 923 INTER-LIGAND FREE ENERGY PREDICTED BY IDOCK:   -1.65 KCAL/MOL
REMARK 924 INTRA-LIGAND FREE ENERGY PREDICTED BY IDOCK:   -0.09 KCAL/MOL
REMARK 927      BINDING AFFINITY PREDICTED BY RF-SCORE:    0.00 PKD
ROOT
HETATM    1  C   UNL     1      -5.647   7.015  71.165  1.00  0.00    -0.028 C  
HETATM    2  C   UNL     1      -5.572   7.851  69.891  1.00  0.00    -0.023 C  
HETATM    3  C   UNL     1      -6.923   8.408  69.352  1.00  0.00    -0.050 C  
HETATM    4  C   UNL     1      -7.902   7.331  68.828  1.00  0.00    -0.121 A  
HETATM    5  C   UNL     1      -7.596   9.449  70.321  1.00  0.00    -0.143 C  
HETATM    6  C   UNL     1      -8.239   8.815  71.572  1.00  0.00    -0.190 C  
HETATM    7  C   UNL     1      -6.687  10.625  70.763  1.00  0.00     0.438 C  
HETATM    8  C   UNL     1      -9.273   7.615  68.667  1.00  0.00    -0.141 A  
HETATM    9  C   UNL     1     -10.177   6.625  68.283  1.00  0.00    -0.171 A  
HETATM   10  C   UNL     1      -7.476   6.041  68.465  1.00  0.00    -0.087 A  
HETATM   11  C   UNL     1      -9.744   5.346  67.981  1.00  0.00    -0.169 A  
HETATM   12  O   UNL     1     -11.516   6.882  68.215  1.00  0.00    -0.524 OA 
HETATM   13  C   UNL     1      -8.386   5.058  68.053  1.00  0.00    -0.100 A  
HETATM   14  H   UNL     1     -12.131   6.208  67.953  1.00  0.00     0.000 HD 
ENDROOT
BRANCH   7  15
HETATM   15  N   UNL     1      -6.146  11.461  69.674  1.00  0.00    -0.095 NA 
HETATM   16  C   UNL     1      -7.202  11.965  68.788  1.00  0.00    -0.112 C  
HETATM   17  C   UNL     1      -5.418  12.601  70.254  1.00  0.00    -0.140 C  
ENDBRANCH   7  15
TORSDOF 1
ENDMDL
MODEL      140
REMARK 921   NORMALIZED FREE ENERGY PREDICTED BY IDOCK:   -1.33 KCAL/MOL
REMARK 922        TOTAL FREE ENERGY PREDICTED BY IDOCK:   -1.55 KCAL/MOL
REMARK 923 INTER-LIGAND FREE ENERGY PREDICTED BY IDOCK:   -2.11 KCAL/MOL
REMARK 924 INTRA-LIGAND FREE ENERGY PREDICTED BY IDOCK:    0.56 KCAL/MOL
REMARK 927      BINDING AFFINITY PREDICTED BY RF-SCORE:    0.00 PKD
ROOT
HETATM    1  C   UNL     1      -6.963   7.124  70.302  1.00  0.00    -0.061 C  
HETATM    2  C   UNL     1      -7.063   5.700  69.761  1.00  0.00    -0.064 C  
HETATM    3  C   UNL     1      -8.418   4.969  69.992  1.00  0.00    -0.096 C  
HETATM    4  C   UNL     1      -8.733   4.645  71.472  1.00  0.00    -0.137 A  
HETATM    5  C   UNL     1      -9.622   5.635  69.228  1.00  0.00    -0.181 C  
HETATM    6  C   UNL     1     -10.109   6.956  69.858  1.00  0.00    -0.200 C  
HETATM    7  C   UNL     1      -9.400   5.854  67.708  1.00  0.00    -0.106 C  
HETATM    8  C   UNL     1     -10.046   4.342  71.884  1.00  0.00    -0.237 A  
HETATM    9  C   UNL     1     -10.354   4.138  73.229  1.00  0.00    -0.164 A  
HETATM   10  C   UNL     1      -7.734   4.609  72.462  1.00  0.00    -0.087 A  
HETATM   11  C   UNL     1      -9.363   4.160  74.195  1.00  0.00    -0.117 A  
HETATM   12  O   UNL     1     -11.640   3.933  73.634  1.00  0.00    -0.173 OA 
HETATM   13  C   UNL     1      -8.045   4.376  73.808  1.00  0.00    -0.097 A  
HETATM   14  H   UNL     1     -11.850   3.794  74.550  1.00  0.00     0.000 HD 
ENDROOT
BRANCH   7  15
HETATM   15  N   UNL     1      -9.116   4.638  66.921  1.00  0.00    -0.116 NA 
HETATM   16  C   UNL     1      -7.709   4.561  66.513  1.00  0.00    -0.094 C  
HETATM   17  C   UNL     1      -9.451   3.452  67.724  1.00  0.00    -0.176 C  
ENDBRANCH   7  15
TORSDOF 1
ENDMDL
MODEL      141
REMARK 921   NORMALIZED FREE ENERGY PREDICTED BY IDOCK:   -1.05 KCAL/MOL
REMARK 922        TOTAL FREE ENERGY PREDICTED BY IDOCK:   -1.25 KCAL/MOL
REMARK 923 INTER-LIGAND FREE ENERGY PREDICTED BY IDOCK:   -2.10 KCAL/MOL
REMARK 924 INTRA-LIGAND FREE ENERGY PREDICTED BY IDOCK:    0.85 KCAL/MOL
REMARK 927      BINDING AFFINITY PREDICTED BY RF-SCORE:    0.00 PKD
ROOT
HETATM    1  C   UNL     1     -10.560   9.832  68.676  1.00  0.00    -0.249 C  
HETATM    2  C   UNL     1      -9.039   9.727  68.722  1.00  0.00    -0.136 C  
HETATM    3  C   UNL     1      -8.372   8.878  67.598  1.00  0.00    -0.110 C  
HETATM    4  C   UNL     1      -8.681   7.363  67.665  1.00  0.00    -0.125 A  
HETATM    5  C   UNL     1      -8.560   9.492  66.162  1.00  0.00    -0.143 C  
HETATM    6  C   UNL     1      -9.982   9.323  65.589  1.00  0.00    -0.130 C  
HETATM    7  C   UNL     1      -8.132  10.976  66.016  1.00  0.00    -0.110 C  
HETATM    8  C   UNL     1      -8.482   6.533  66.544  1.00  0.00    -0.120 A  
HETATM    9  C   UNL     1      -8.843   5.186  66.567  1.00  0.00    -0.117 A  
HETATM   10  C   UNL     1      -9.143   6.742  68.839  1.00  0.00    -0.133 A  
HETATM   11  C   UNL     1      -9.346   4.606  67.719  1.00  0.00    -0.171 A  
HETATM   12  O   UNL     1      -8.732   4.408  65.452  1.00  0.00    -0.119 OA 
HETATM   13  C   UNL     1      -9.478   5.382  68.865  1.00  0.00    -0.174 A  
HETATM   14  H   UNL     1      -8.977   3.490  65.469  1.00  0.00     0.000 HD 
ENDROOT
BRANCH   7  15
HETATM   15  N   UNL     1      -6.723  11.271  66.341  1.00  0.00    -0.105 NA 
HETATM   16  C   UNL     1      -6.464  11.204  67.784  1.00  0.00    -0.063 C  
HETATM   17  C   UNL     1      -5.855  10.306  65.650  1.00  0.00    -0.097 C  
ENDBRANCH   7  15
TORSDOF 1
ENDMDL
MODEL      142
REMARK 921   NORMALIZED FREE ENERGY PREDICTED BY IDOCK:    4.45 KCAL/MOL
REMARK 922        TOTAL FREE ENERGY PREDICTED BY IDOCK:    4.58 KCAL/MOL
REMARK 923 INTER-LIGAND FREE ENERGY PREDICTED BY IDOCK:    4.05 KCAL/MOL
REMARK 924 INTRA-LIGAND FREE ENERGY PREDICTED BY IDOCK:    0.53 KCAL/MOL
REMARK 927      BINDING AFFINITY PREDICTED BY RF-SCORE:    0.00 PKD
ROOT
HETATM    1  C   UNL     1      -6.342  12.980  68.033  1.00  0.00    -0.115 C  
HETATM    2  C   UNL     1      -5.455  13.792  68.972  1.00  0.00    -0.076 C  
HETATM    3  C   UNL     1      -6.089  15.079  69.578  1.00  0.00    -0.117 C  
HETATM    4  C   UNL     1      -6.377  16.201  68.553  1.00  0.00    -0.116 A  
HETATM    5  C   UNL     1      -7.301  14.781  70.537  1.00  0.00     0.682 C  
HETATM    6  C   UNL     1      -8.592  14.366  69.804  1.00  0.00     0.702 C  
HETATM    7  C   UNL     1      -7.013  13.760  71.668  1.00  0.00     3.158 C  
HETATM    8  C   UNL     1      -7.272  17.247  68.855  1.00  0.00    -0.243 A  
HETATM    9  C   UNL     1      -7.606  18.211  67.905  1.00  0.00    -0.233 A  
HETATM   10  C   UNL     1      -5.749  16.249  67.295  1.00  0.00    -0.142 A  
HETATM   11  C   UNL     1      -7.015  18.210  66.654  1.00  0.00    -0.243 A  
HETATM   12  O   UNL     1      -8.540  19.169  68.172  1.00  0.00    -0.301 OA 
HETATM   13  C   UNL     1      -6.068  17.237  66.354  1.00  0.00    -0.241 A  
HETATM   14  H   UNL     1      -8.767  19.826  67.524  1.00  0.00     0.000 HD 
ENDROOT
BRANCH   7  15
HETATM   15  N   UNL     1      -5.917  14.117  72.590  1.00  0.00    -0.194 NA 
HETATM   16  C   UNL     1      -5.435  15.486  72.371  1.00  0.00     0.532 C  
HETATM   17  C   UNL     1      -6.389  13.987  73.977  1.00  0.00     0.995 C  
ENDBRANCH   7  15
TORSDOF 1
ENDMDL
MODEL      143
REMARK 921   NORMALIZED FREE ENERGY PREDICTED BY IDOCK:    4.92 KCAL/MOL
REMARK 922        TOTAL FREE ENERGY PREDICTED BY IDOCK:    5.07 KCAL/MOL
REMARK 923 INTER-LIGAND FREE ENERGY PREDICTED BY IDOCK:    4.50 KCAL/MOL
REMARK 924 INTRA-LIGAND FREE ENERGY PREDICTED BY IDOCK:    0.57 KCAL/MOL
REMARK 927      BINDING AFFINITY PREDICTED BY RF-SCORE:    0.00 PKD
ROOT
HETATM    1  C   UNL     1      -7.031  11.582  70.050  1.00  0.00     0.342 C  
HETATM    2  C   UNL     1      -7.240  10.071  70.087  1.00  0.00    -0.167 C  
HETATM    3  C   UNL     1      -8.299   9.498  69.098  1.00  0.00    -0.125 C  
HETATM    4  C   UNL     1      -9.758   9.911  69.405  1.00  0.00    -0.228 A  
HETATM    5  C   UNL     1      -7.902   9.681  67.587  1.00  0.00    -0.095 C  
HETATM    6  C   UNL     1      -8.051  11.127  67.071  1.00  0.00    -0.148 C  
HETATM    7  C   UNL     1      -6.494   9.154  67.206  1.00  0.00    -0.060 C  
HETATM    8  C   UNL     1     -10.764   9.803  68.424  1.00  0.00    -0.262 A  
HETATM    9  C   UNL     1     -12.061  10.257  68.663  1.00  0.00     0.671 A  
HETATM   10  C   UNL     1     -10.156  10.383  70.669  1.00  0.00     0.621 A  
HETATM   11  C   UNL     1     -12.418  10.768  69.898  1.00  0.00    -0.277 A  
HETATM   12  O   UNL     1     -13.008  10.232  67.681  1.00  0.00     4.505 OA 
HETATM   13  C   UNL     1     -11.467  10.813  70.912  1.00  0.00    -0.096 A  
HETATM   14  H   UNL     1     -13.891  10.542  67.844  1.00  0.00     0.000 HD 
ENDROOT
BRANCH   7  15
HETATM   15  N   UNL     1      -6.258   7.719  67.458  1.00  0.00    -0.049 NA 
HETATM   16  C   UNL     1      -5.345   7.499  68.586  1.00  0.00    -0.022 C  
HETATM   17  C   UNL     1      -7.542   7.059  67.741  1.00  0.00    -0.111 C  
ENDBRANCH   7  15
TORSDOF 1
ENDMDL
MODEL      144
REMARK 921   NORMALIZED FREE ENERGY PREDICTED BY IDOCK:   13.61 KCAL/MOL
REMARK 922        TOTAL FREE ENERGY PREDICTED BY IDOCK:   14.27 KCAL/MOL
REMARK 923 INTER-LIGAND FREE ENERGY PREDICTED BY IDOCK:   12.99 KCAL/MOL
REMARK 924 INTRA-LIGAND FREE ENERGY PREDICTED BY IDOCK:    1.27 KCAL/MOL
REMARK 927      BINDING AFFINITY PREDICTED BY RF-SCORE:    0.00 PKD
ROOT
HETATM    1  C   UNL     1      -9.005  17.889  66.449  1.00  0.00    -0.247 C  
HETATM    2  C   UNL     1      -7.851  18.074  67.429  1.00  0.00    -0.223 C  
HETATM    3  C   UNL     1      -8.159  17.760  68.924  1.00  0.00    -0.161 C  
HETATM    4  C   UNL     1      -9.153  18.737  69.596  1.00  0.00     0.629 A  
HETATM    5  C   UNL     1      -8.499  16.246  69.183  1.00  0.00    -0.218 C  
HETATM    6  C   UNL     1      -9.901  15.826  68.698  1.00  0.00    -0.210 C  
HETATM    7  C   UNL     1      -7.455  15.233  68.644  1.00  0.00    -0.126 C  
HETATM    8  C   UNL     1      -9.818  18.388  70.789  1.00  0.00     3.059 A  
HETATM    9  C   UNL     1     -10.781  19.224  71.352  1.00  0.00     3.580 A  
HETATM   10  C   UNL     1      -9.419  20.016  69.074  1.00  0.00    -0.060 A  
HETATM   11  C   UNL     1     -11.067  20.457  70.791  1.00  0.00     4.136 A  
HETATM   12  O   UNL     1     -11.485  18.843  72.456  1.00  0.00     2.450 OA 
HETATM   13  C   UNL     1     -10.369  20.863  69.659  1.00  0.00     0.817 A  
HETATM   14  H   UNL     1     -12.142  19.413  72.840  1.00  0.00     0.000 HD 
ENDROOT
BRANCH   7  15
HETATM   15  N   UNL     1      -6.086  15.381  69.174  1.00  0.00    -0.104 NA 
HETATM   16  C   UNL     1      -5.725  16.787  69.387  1.00  0.00    -0.166 C  
HETATM   17  C   UNL     1      -5.980  14.656  70.450  1.00  0.00    -0.165 C  
ENDBRANCH   7  15
TORSDOF 1
ENDMDL
MODEL      145
REMARK 921   NORMALIZED FREE ENERGY PREDICTED BY IDOCK:   17.47 KCAL/MOL
REMARK 922        TOTAL FREE ENERGY PREDICTED BY IDOCK:   18.35 KCAL/MOL
REMARK 923 INTER-LIGAND FREE ENERGY PREDICTED BY IDOCK:   17.78 KCAL/MOL
REMARK 924 INTRA-LIGAND FREE ENERGY PREDICTED BY IDOCK:    0.58 KCAL/MOL
REMARK 927      BINDING AFFINITY PREDICTED BY RF-SCORE:    0.00 PKD
ROOT
HETATM    1  C   UNL     1      -8.678  14.151  67.295  1.00  0.00    -0.229 C  
HETATM    2  C   UNL     1      -8.226  12.694  67.330  1.00  0.00    -0.184 C  
HETATM    3  C   UNL     1      -8.326  11.975  68.708  1.00  0.00     0.048 C  
HETATM    4  C   UNL     1      -7.356  12.513  69.788  1.00  0.00     0.843 A  
HETATM    5  C   UNL     1      -9.805  11.815  69.220  1.00  0.00     0.343 C  
HETATM    6  C   UNL     1     -10.433  13.123  69.741  1.00  0.00     0.887 C  
HETATM    7  C   UNL     1     -10.783  11.152  68.215  1.00  0.00    -0.196 C  
HETATM    8  C   UNL     1      -7.573  12.246  71.155  1.00  0.00     7.020 A  
HETATM    9  C   UNL     1      -6.756  12.801  72.139  1.00  0.00     5.279 A  
HETATM   10  C   UNL     1      -6.210  13.260  69.463  1.00  0.00    -0.115 A  
HETATM   11  C   UNL     1      -5.663  13.579  71.799  1.00  0.00     0.033 A  
HETATM   12  O   UNL     1      -7.023  12.613  73.464  1.00  0.00     4.786 OA 
HETATM   13  C   UNL     1      -5.377  13.793  70.456  1.00  0.00    -0.122 A  
HETATM   14  H   UNL     1      -6.467  12.992  74.134  1.00  0.00     0.000 HD 
ENDROOT
BRANCH   7  15
HETATM   15  N   UNL     1     -10.419   9.794  67.767  1.00  0.00    -0.229 NA 
HETATM   16  C   UNL     1      -9.991   9.772  66.364  1.00  0.00    -0.247 C  
HETATM   17  C   UNL     1      -9.329   9.281  68.612  1.00  0.00    -0.139 C  
ENDBRANCH   7  15
TORSDOF 1
ENDMDL
