MODEL        1
REMARK 921   NORMALIZED FREE ENERGY PREDICTED BY IDOCK:   -6.32 KCAL/MOL
REMARK 922        TOTAL FREE ENERGY PREDICTED BY IDOCK:   -8.84 KCAL/MOL
REMARK 923 INTER-LIGAND FREE ENERGY PREDICTED BY IDOCK:   -8.17 KCAL/MOL
REMARK 924 INTRA-LIGAND FREE ENERGY PREDICTED BY IDOCK:   -0.67 KCAL/MOL
REMARK 927      BINDING AFFINITY PREDICTED BY RF-SCORE:    0.00 PKD
ROOT
HETATM    1  C   UNL     1     -10.638  15.550  68.401  1.00  0.00    -0.252 C  
HETATM    2  C   UNL     1     -10.223  14.105  68.411  1.00  0.00    -0.247 C  
HETATM    3  C   UNL     1     -11.665  14.462  68.671  1.00  0.00    -0.367 C  
ENDROOT
BRANCH   1   4
HETATM    4  C   UNL     1     -10.740  16.340  67.132  1.00  0.00    -0.247 C  
BRANCH   4   5
HETATM    5  N   UNL     1     -10.537  15.468  65.984  1.00  0.00    -0.314 NA 
HETATM    6  H   UNL     1      -9.819  14.744  66.010  1.00  0.00     0.000 HD 
BRANCH   5   7
HETATM    7  C   UNL     1     -11.267  15.617  64.939  1.00  0.00    -0.369 C  
HETATM    8  H   UNL     1     -11.870  16.849  63.421  1.00  0.00     0.000 HD 
HETATM    9  O   UNL     1     -11.330  16.739  64.195  1.00  0.00    -1.194 OA 
BRANCH   7  10
HETATM   10  C   UNL     1     -12.176  14.542  64.417  1.00  0.00    -0.480 C  
HETATM   11  C   UNL     1     -12.210  13.348  65.353  1.00  0.00    -0.492 C  
ENDBRANCH   7  10
ENDBRANCH   5   7
ENDBRANCH   4   5
ENDBRANCH   1   4
BRANCH   3  12
HETATM   12  C   UNL     1     -12.293  14.302  70.035  1.00  0.00    -0.403 A  
HETATM   13  C   UNL     1     -12.846  15.405  70.718  1.00  0.00    -0.524 A  
HETATM   14  C   UNL     1     -13.541  15.260  71.933  1.00  0.00    -0.575 A  
HETATM   15  C   UNL     1     -13.711  14.001  72.500  1.00  0.00    -0.651 A  
HETATM   16  C   UNL     1     -12.468  13.060  70.646  1.00  0.00    -0.347 A  
HETATM   17  C   UNL     1     -12.024  11.725  70.187  1.00  0.00    -0.421 C  
HETATM   18  C   UNL     1     -13.162  12.922  71.841  1.00  0.00    -0.423 A  
HETATM   19  O   UNL     1     -13.275  11.633  72.285  1.00  0.00    -0.434 OA 
HETATM   20  C   UNL     1     -12.571  10.838  71.307  1.00  0.00    -0.426 C  
ENDBRANCH   3  12
TORSDOF 5
ENDMDL
MODEL        2
REMARK 921   NORMALIZED FREE ENERGY PREDICTED BY IDOCK:   -6.24 KCAL/MOL
REMARK 922        TOTAL FREE ENERGY PREDICTED BY IDOCK:   -8.74 KCAL/MOL
REMARK 923 INTER-LIGAND FREE ENERGY PREDICTED BY IDOCK:   -8.27 KCAL/MOL
REMARK 924 INTRA-LIGAND FREE ENERGY PREDICTED BY IDOCK:   -0.47 KCAL/MOL
REMARK 927      BINDING AFFINITY PREDICTED BY RF-SCORE:    0.00 PKD
ROOT
HETATM    1  C   UNL     1     -11.996  14.331  67.399  1.00  0.00    -0.426 C  
HETATM    2  C   UNL     1     -11.304  15.563  67.911  1.00  0.00    -0.309 C  
HETATM    3  C   UNL     1     -11.300  14.310  68.750  1.00  0.00    -0.303 C  
ENDROOT
BRANCH   1   4
HETATM    4  C   UNL     1     -11.433  13.505  66.283  1.00  0.00    -0.326 C  
BRANCH   4   5
HETATM    5  N   UNL     1     -12.512  12.879  65.533  1.00  0.00    -0.575 NA 
HETATM    6  H   UNL     1     -13.418  12.718  65.974  1.00  0.00     0.000 HD 
BRANCH   5   7
HETATM    7  C   UNL     1     -12.317  12.531  64.314  1.00  0.00    -0.456 C  
HETATM    8  H   UNL     1     -13.123  11.800  62.581  1.00  0.00     0.000 HD 
HETATM    9  O   UNL     1     -13.268  12.058  63.484  1.00  0.00    -0.724 OA 
BRANCH   7  10
HETATM   10  C   UNL     1     -10.970  12.592  63.652  1.00  0.00    -0.507 C  
HETATM   11  C   UNL     1     -10.390  11.203  63.458  1.00  0.00    -0.446 C  
ENDBRANCH   7  10
ENDBRANCH   5   7
ENDBRANCH   4   5
ENDBRANCH   1   4
BRANCH   3  12
HETATM   12  C   UNL     1     -12.089  14.207  70.034  1.00  0.00    -0.409 A  
HETATM   13  C   UNL     1     -12.661  15.347  70.634  1.00  0.00    -0.490 A  
HETATM   14  C   UNL     1     -13.498  15.259  71.761  1.00  0.00    -0.558 A  
HETATM   15  C   UNL     1     -13.793  14.021  72.323  1.00  0.00    -0.655 A  
HETATM   16  C   UNL     1     -12.392  12.987  70.639  1.00  0.00    -0.391 A  
HETATM   17  C   UNL     1     -11.964  11.623  70.253  1.00  0.00    -0.445 C  
HETATM   18  C   UNL     1     -13.225  12.905  71.747  1.00  0.00    -0.384 A  
HETATM   19  O   UNL     1     -13.451  11.632  72.194  1.00  0.00    -0.423 OA 
HETATM   20  C   UNL     1     -12.679  10.786  71.315  1.00  0.00    -0.441 C  
ENDBRANCH   3  12
TORSDOF 5
ENDMDL
MODEL        3
REMARK 921   NORMALIZED FREE ENERGY PREDICTED BY IDOCK:   -6.08 KCAL/MOL
REMARK 922        TOTAL FREE ENERGY PREDICTED BY IDOCK:   -8.54 KCAL/MOL
REMARK 923 INTER-LIGAND FREE ENERGY PREDICTED BY IDOCK:   -8.05 KCAL/MOL
REMARK 924 INTRA-LIGAND FREE ENERGY PREDICTED BY IDOCK:   -0.48 KCAL/MOL
REMARK 927      BINDING AFFINITY PREDICTED BY RF-SCORE:    0.00 PKD
ROOT
HETATM    1  C   UNL     1     -11.101  13.331  67.348  1.00  0.00    -0.300 C  
HETATM    2  C   UNL     1     -11.988  14.527  67.554  1.00  0.00    -0.358 C  
HETATM    3  C   UNL     1     -11.267  13.930  68.735  1.00  0.00    -0.302 C  
ENDROOT
BRANCH   1   4
HETATM    4  C   UNL     1      -9.768  13.435  66.671  1.00  0.00    -0.275 C  
BRANCH   4   5
HETATM    5  N   UNL     1      -9.941  13.892  65.300  1.00  0.00    -0.551 NA 
HETATM    6  H   UNL     1      -9.597  14.810  65.017  1.00  0.00     0.000 HD 
BRANCH   5   7
HETATM    7  C   UNL     1     -10.528  13.132  64.449  1.00  0.00    -0.407 C  
HETATM    8  H   UNL     1     -10.384  11.531  63.182  1.00  0.00     0.000 HD 
HETATM    9  O   UNL     1      -9.950  12.094  63.812  1.00  0.00    -0.356 OA 
BRANCH   7  10
HETATM   10  C   UNL     1     -11.959  13.320  64.034  1.00  0.00    -0.525 C  
HETATM   11  C   UNL     1     -12.508  12.071  63.370  1.00  0.00    -0.625 C  
ENDBRANCH   7  10
ENDBRANCH   5   7
ENDBRANCH   4   5
ENDBRANCH   1   4
BRANCH   3  12
HETATM   12  C   UNL     1     -12.000  13.184  69.825  1.00  0.00    -0.382 A  
HETATM   13  C   UNL     1     -11.898  11.783  69.948  1.00  0.00    -0.423 A  
HETATM   14  C   UNL     1     -12.474  11.083  71.025  1.00  0.00    -0.512 A  
HETATM   15  C   UNL     1     -13.168  11.767  72.018  1.00  0.00    -0.460 A  
HETATM   16  C   UNL     1     -12.720  13.831  70.830  1.00  0.00    -0.394 A  
HETATM   17  C   UNL     1     -12.997  15.275  70.997  1.00  0.00    -0.526 C  
HETATM   18  C   UNL     1     -13.279  13.135  71.895  1.00  0.00    -0.431 A  
HETATM   19  O   UNL     1     -13.920  13.922  72.812  1.00  0.00    -0.697 OA 
HETATM   20  C   UNL     1     -13.794  15.267  72.302  1.00  0.00    -0.530 C  
ENDBRANCH   3  12
TORSDOF 5
ENDMDL
MODEL        4
REMARK 921   NORMALIZED FREE ENERGY PREDICTED BY IDOCK:   -5.90 KCAL/MOL
REMARK 922        TOTAL FREE ENERGY PREDICTED BY IDOCK:   -8.30 KCAL/MOL
REMARK 923 INTER-LIGAND FREE ENERGY PREDICTED BY IDOCK:   -7.46 KCAL/MOL
REMARK 924 INTRA-LIGAND FREE ENERGY PREDICTED BY IDOCK:   -0.84 KCAL/MOL
REMARK 927      BINDING AFFINITY PREDICTED BY RF-SCORE:    0.00 PKD
ROOT
HETATM    1  C   UNL     1     -10.971  15.556  70.028  1.00  0.00    -0.331 C  
HETATM    2  C   UNL     1     -11.018  16.184  68.664  1.00  0.00    -0.336 C  
HETATM    3  C   UNL     1     -11.886  14.986  68.956  1.00  0.00    -0.330 C  
ENDROOT
BRANCH   1   4
HETATM    4  C   UNL     1     -11.585  16.210  71.229  1.00  0.00    -0.413 C  
BRANCH   4   5
HETATM    5  N   UNL     1     -13.027  16.010  71.222  1.00  0.00    -0.537 NA 
HETATM    6  H   UNL     1     -13.582  16.296  70.415  1.00  0.00     0.000 HD 
BRANCH   5   7
HETATM    7  C   UNL     1     -13.595  15.471  72.239  1.00  0.00    -0.519 C  
HETATM    8  H   UNL     1     -14.016  15.586  74.238  1.00  0.00     0.000 HD 
HETATM    9  O   UNL     1     -13.596  15.985  73.485  1.00  0.00    -0.549 OA 
BRANCH   7  10
HETATM   10  C   UNL     1     -14.330  14.164  72.168  1.00  0.00    -0.606 C  
HETATM   11  C   UNL     1     -13.367  12.991  72.190  1.00  0.00    -0.622 C  
ENDBRANCH   7  10
ENDBRANCH   5   7
ENDBRANCH   4   5
ENDBRANCH   1   4
BRANCH   3  12
HETATM   12  C   UNL     1     -11.618  13.635  68.337  1.00  0.00    -0.377 A  
HETATM   13  C   UNL     1     -11.325  12.510  69.136  1.00  0.00    -0.331 A  
HETATM   14  C   UNL     1     -11.190  11.220  68.590  1.00  0.00    -0.310 A  
HETATM   15  C   UNL     1     -11.350  11.015  67.224  1.00  0.00    -0.265 A  
HETATM   16  C   UNL     1     -11.751  13.390  66.970  1.00  0.00    -0.426 A  
HETATM   17  C   UNL     1     -12.063  14.340  65.879  1.00  0.00    -0.416 C  
HETATM   18  C   UNL     1     -11.624  12.113  66.438  1.00  0.00    -0.364 A  
HETATM   19  O   UNL     1     -11.821  12.040  65.087  1.00  0.00    -0.318 OA 
HETATM   20  C   UNL     1     -12.082  13.399  64.674  1.00  0.00    -0.410 C  
ENDBRANCH   3  12
TORSDOF 5
ENDMDL
MODEL        5
REMARK 921   NORMALIZED FREE ENERGY PREDICTED BY IDOCK:   -5.85 KCAL/MOL
REMARK 922        TOTAL FREE ENERGY PREDICTED BY IDOCK:   -8.24 KCAL/MOL
REMARK 923 INTER-LIGAND FREE ENERGY PREDICTED BY IDOCK:   -7.66 KCAL/MOL
REMARK 924 INTRA-LIGAND FREE ENERGY PREDICTED BY IDOCK:   -0.58 KCAL/MOL
REMARK 927      BINDING AFFINITY PREDICTED BY RF-SCORE:    0.00 PKD
ROOT
HETATM    1  C   UNL     1      -9.852  14.838  68.751  1.00  0.00    -0.227 C  
HETATM    2  C   UNL     1     -10.320  13.915  67.661  1.00  0.00    -0.242 C  
HETATM    3  C   UNL     1     -11.322  14.465  68.645  1.00  0.00    -0.298 C  
ENDROOT
BRANCH   1   4
HETATM    4  C   UNL     1      -9.445  16.254  68.476  1.00  0.00    -0.219 C  
BRANCH   4   5
HETATM    5  N   UNL     1     -10.542  16.974  67.846  1.00  0.00    -0.358 NA 
HETATM    6  H   UNL     1     -11.483  16.919  68.235  1.00  0.00     0.000 HD 
BRANCH   5   7
HETATM    7  C   UNL     1     -10.316  17.679  66.798  1.00  0.00    -0.331 C  
HETATM    8  H   UNL     1      -9.634  17.727  64.869  1.00  0.00     0.000 HD 
HETATM    9  O   UNL     1      -9.802  17.205  65.645  1.00  0.00    -0.552 OA 
BRANCH   7  10
HETATM   10  C   UNL     1     -10.585  19.155  66.730  1.00  0.00    -0.528 C  
HETATM   11  C   UNL     1     -10.057  19.866  67.963  1.00  0.00    -0.572 C  
ENDBRANCH   7  10
ENDBRANCH   5   7
ENDBRANCH   4   5
ENDBRANCH   1   4
BRANCH   3  12
HETATM   12  C   UNL     1     -11.983  13.591  69.684  1.00  0.00    -0.397 A  
HETATM   13  C   UNL     1     -11.791  12.194  69.693  1.00  0.00    -0.391 A  
HETATM   14  C   UNL     1     -12.299  11.376  70.720  1.00  0.00    -0.483 A  
HETATM   15  C   UNL     1     -13.013  11.935  71.776  1.00  0.00    -0.455 A  
HETATM   16  C   UNL     1     -12.721  14.109  70.749  1.00  0.00    -0.414 A  
HETATM   17  C   UNL     1     -13.084  15.515  71.034  1.00  0.00    -0.551 C  
HETATM   18  C   UNL     1     -13.212  13.298  71.763  1.00  0.00    -0.405 A  
HETATM   19  O   UNL     1     -13.881  13.968  72.751  1.00  0.00    -0.674 OA 
HETATM   20  C   UNL     1     -13.851  15.354  72.348  1.00  0.00    -0.562 C  
ENDBRANCH   3  12
TORSDOF 5
ENDMDL
MODEL        6
REMARK 921   NORMALIZED FREE ENERGY PREDICTED BY IDOCK:   -5.84 KCAL/MOL
REMARK 922        TOTAL FREE ENERGY PREDICTED BY IDOCK:   -8.22 KCAL/MOL
REMARK 923 INTER-LIGAND FREE ENERGY PREDICTED BY IDOCK:   -7.61 KCAL/MOL
REMARK 924 INTRA-LIGAND FREE ENERGY PREDICTED BY IDOCK:   -0.61 KCAL/MOL
REMARK 927      BINDING AFFINITY PREDICTED BY RF-SCORE:    0.00 PKD
ROOT
HETATM    1  C   UNL     1     -11.717  14.633  67.758  1.00  0.00    -0.386 C  
HETATM    2  C   UNL     1     -10.393  14.617  68.470  1.00  0.00    -0.238 C  
HETATM    3  C   UNL     1     -11.373  13.495  68.705  1.00  0.00    -0.323 C  
ENDROOT
BRANCH   1   4
HETATM    4  C   UNL     1     -11.838  14.343  66.293  1.00  0.00    -0.379 C  
BRANCH   4   5
HETATM    5  N   UNL     1     -10.742  14.972  65.569  1.00  0.00    -0.334 NA 
HETATM    6  H   UNL     1      -9.874  14.463  65.407  1.00  0.00     0.000 HD 
BRANCH   5   7
HETATM    7  C   UNL     1     -10.877  16.173  65.136  1.00  0.00    -0.361 C  
HETATM    8  H   UNL     1     -11.554  17.399  63.645  1.00  0.00     0.000 HD 
HETATM    9  O   UNL     1     -11.454  16.511  63.966  1.00  0.00    -1.137 OA 
BRANCH   7  10
HETATM   10  C   UNL     1     -10.381  17.374  65.888  1.00  0.00    -0.276 C  
HETATM   11  C   UNL     1      -8.951  17.178  66.355  1.00  0.00    -0.291 C  
ENDBRANCH   7  10
ENDBRANCH   5   7
ENDBRANCH   4   5
ENDBRANCH   1   4
BRANCH   3  12
HETATM   12  C   UNL     1     -12.095  13.327  70.021  1.00  0.00    -0.385 A  
HETATM   13  C   UNL     1     -12.642  14.435  70.700  1.00  0.00    -0.424 A  
HETATM   14  C   UNL     1     -13.421  14.289  71.863  1.00  0.00    -0.485 A  
HETATM   15  C   UNL     1     -13.680  13.024  72.381  1.00  0.00    -0.593 A  
HETATM   16  C   UNL     1     -12.361  12.079  70.583  1.00  0.00    -0.394 A  
HETATM   17  C   UNL     1     -11.947  10.737  70.114  1.00  0.00    -0.432 C  
HETATM   18  C   UNL     1     -13.137  11.940  71.727  1.00  0.00    -0.360 A  
HETATM   19  O   UNL     1     -13.333  10.646  72.125  1.00  0.00    -0.444 OA 
HETATM   20  C   UNL     1     -12.603   9.847  71.170  1.00  0.00    -0.367 C  
ENDBRANCH   3  12
TORSDOF 5
ENDMDL
MODEL        7
REMARK 921   NORMALIZED FREE ENERGY PREDICTED BY IDOCK:   -5.77 KCAL/MOL
REMARK 922        TOTAL FREE ENERGY PREDICTED BY IDOCK:   -8.14 KCAL/MOL
REMARK 923 INTER-LIGAND FREE ENERGY PREDICTED BY IDOCK:   -7.53 KCAL/MOL
REMARK 924 INTRA-LIGAND FREE ENERGY PREDICTED BY IDOCK:   -0.61 KCAL/MOL
REMARK 927      BINDING AFFINITY PREDICTED BY RF-SCORE:    0.00 PKD
ROOT
HETATM    1  C   UNL     1     -12.138  13.931  68.627  1.00  0.00    -0.337 C  
HETATM    2  C   UNL     1     -11.910  12.456  68.807  1.00  0.00    -0.358 C  
HETATM    3  C   UNL     1     -11.153  13.196  67.733  1.00  0.00    -0.287 C  
ENDROOT
BRANCH   1   4
HETATM    4  C   UNL     1     -11.615  14.943  69.600  1.00  0.00    -0.303 C  
BRANCH   4   5
HETATM    5  N   UNL     1     -12.720  15.689  70.184  1.00  0.00    -0.565 NA 
HETATM    6  H   UNL     1     -13.309  16.280  69.597  1.00  0.00     0.000 HD 
BRANCH   5   7
HETATM    7  C   UNL     1     -12.948  15.598  71.444  1.00  0.00    -0.487 C  
HETATM    8  H   UNL     1     -12.320  16.027  73.343  1.00  0.00     0.000 HD 
HETATM    9  O   UNL     1     -12.151  16.094  72.411  1.00  0.00    -0.481 OA 
BRANCH   7  10
HETATM   10  C   UNL     1     -14.149  14.896  72.009  1.00  0.00    -0.613 C  
HETATM   11  C   UNL     1     -13.846  13.438  72.302  1.00  0.00    -0.671 C  
ENDBRANCH   7  10
ENDBRANCH   5   7
ENDBRANCH   4   5
ENDBRANCH   1   4
BRANCH   3  12
HETATM   12  C   UNL     1     -11.438  12.983  66.265  1.00  0.00    -0.379 A  
HETATM   13  C   UNL     1     -12.203  13.911  65.527  1.00  0.00    -0.467 A  
HETATM   14  C   UNL     1     -12.379  13.796  64.136  1.00  0.00    -0.382 A  
HETATM   15  C   UNL     1     -11.790  12.747  63.437  1.00  0.00    -0.591 A  
HETATM   16  C   UNL     1     -10.881  11.936  65.530  1.00  0.00    -0.343 A  
HETATM   17  C   UNL     1     -10.029  10.820  65.998  1.00  0.00    -0.295 C  
HETATM   18  C   UNL     1     -11.052  11.832  64.156  1.00  0.00    -0.374 A  
HETATM   19  O   UNL     1     -10.409  10.769  63.584  1.00  0.00    -0.327 OA 
HETATM   20  C   UNL     1      -9.765  10.088  64.681  1.00  0.00    -0.269 C  
ENDBRANCH   3  12
TORSDOF 5
ENDMDL
MODEL        8
REMARK 921   NORMALIZED FREE ENERGY PREDICTED BY IDOCK:   -5.74 KCAL/MOL
REMARK 922        TOTAL FREE ENERGY PREDICTED BY IDOCK:   -8.09 KCAL/MOL
REMARK 923 INTER-LIGAND FREE ENERGY PREDICTED BY IDOCK:   -7.69 KCAL/MOL
REMARK 924 INTRA-LIGAND FREE ENERGY PREDICTED BY IDOCK:   -0.39 KCAL/MOL
REMARK 927      BINDING AFFINITY PREDICTED BY RF-SCORE:    0.00 PKD
ROOT
HETATM    1  C   UNL     1     -12.359  13.738  69.320  1.00  0.00    -0.185 C  
HETATM    2  C   UNL     1     -11.831  12.333  69.412  1.00  0.00    -0.370 C  
HETATM    3  C   UNL     1     -11.268  13.267  68.372  1.00  0.00    -0.314 C  
ENDROOT
BRANCH   1   4
HETATM    4  C   UNL     1     -12.027  14.783  70.342  1.00  0.00    -0.309 C  
BRANCH   4   5
HETATM    5  N   UNL     1     -13.250  15.376  70.861  1.00  0.00    -0.622 NA 
HETATM    6  H   UNL     1     -13.792  16.021  70.287  1.00  0.00     0.000 HD 
BRANCH   5   7
HETATM    7  C   UNL     1     -13.641  15.082  72.048  1.00  0.00    -0.420 C  
HETATM    8  H   UNL     1     -14.657  13.775  73.251  1.00  0.00     0.000 HD 
HETATM    9  O   UNL     1     -14.367  13.993  72.373  1.00  0.00    -0.614 OA 
BRANCH   7  10
HETATM   10  C   UNL     1     -13.349  15.942  73.243  1.00  0.00    -0.660 C  
HETATM   11  C   UNL     1     -12.399  15.247  74.201  1.00  0.00    -0.762 C  
ENDBRANCH   7  10
ENDBRANCH   5   7
ENDBRANCH   4   5
ENDBRANCH   1   4
BRANCH   3  12
HETATM   12  C   UNL     1     -11.541  13.079  66.898  1.00  0.00    -0.419 A  
HETATM   13  C   UNL     1     -12.238  14.053  66.154  1.00  0.00    -0.494 A  
HETATM   14  C   UNL     1     -12.399  13.955  64.760  1.00  0.00    -0.429 A  
HETATM   15  C   UNL     1     -11.861  12.877  64.064  1.00  0.00    -0.512 A  
HETATM   16  C   UNL     1     -11.034  12.004  66.167  1.00  0.00    -0.343 A  
HETATM   17  C   UNL     1     -10.257  10.838  66.641  1.00  0.00    -0.283 C  
HETATM   18  C   UNL     1     -11.190  11.917  64.789  1.00  0.00    -0.297 A  
HETATM   19  O   UNL     1     -10.601  10.821  64.221  1.00  0.00    -0.350 OA 
HETATM   20  C   UNL     1     -10.015  10.098  65.325  1.00  0.00    -0.311 C  
ENDBRANCH   3  12
TORSDOF 5
ENDMDL
MODEL        9
REMARK 921   NORMALIZED FREE ENERGY PREDICTED BY IDOCK:   -5.74 KCAL/MOL
REMARK 922        TOTAL FREE ENERGY PREDICTED BY IDOCK:   -8.09 KCAL/MOL
REMARK 923 INTER-LIGAND FREE ENERGY PREDICTED BY IDOCK:   -7.60 KCAL/MOL
REMARK 924 INTRA-LIGAND FREE ENERGY PREDICTED BY IDOCK:   -0.49 KCAL/MOL
REMARK 927      BINDING AFFINITY PREDICTED BY RF-SCORE:    0.00 PKD
ROOT
HETATM    1  C   UNL     1     -11.962  12.676  69.145  1.00  0.00    -0.293 C  
HETATM    2  C   UNL     1     -10.644  12.050  68.784  1.00  0.00    -0.237 C  
HETATM    3  C   UNL     1     -10.980  13.422  68.256  1.00  0.00    -0.282 C  
ENDROOT
BRANCH   1   4
HETATM    4  C   UNL     1     -12.244  13.208  70.517  1.00  0.00    -0.328 C  
BRANCH   4   5
HETATM    5  N   UNL     1     -13.035  14.426  70.425  1.00  0.00    -0.475 NA 
HETATM    6  H   UNL     1     -13.751  14.521  69.705  1.00  0.00     0.000 HD 
BRANCH   5   7
HETATM    7  C   UNL     1     -12.826  15.380  71.258  1.00  0.00    -0.452 C  
HETATM    8  H   UNL     1     -11.703  17.019  71.753  1.00  0.00     0.000 HD 
HETATM    9  O   UNL     1     -11.859  16.312  71.136  1.00  0.00    -0.401 OA 
BRANCH   7  10
HETATM   10  C   UNL     1     -13.637  15.570  72.507  1.00  0.00    -0.646 C  
HETATM   11  C   UNL     1     -12.745  15.704  73.727  1.00  0.00    -0.742 C  
ENDBRANCH   7  10
ENDBRANCH   5   7
ENDBRANCH   4   5
ENDBRANCH   1   4
BRANCH   3  12
HETATM   12  C   UNL     1     -11.276  13.664  66.795  1.00  0.00    -0.327 A  
HETATM   13  C   UNL     1     -11.905  12.681  66.004  1.00  0.00    -0.492 A  
HETATM   14  C   UNL     1     -12.299  12.929  64.676  1.00  0.00    -0.501 A  
HETATM   15  C   UNL     1     -12.078  14.175  64.098  1.00  0.00    -0.437 A  
HETATM   16  C   UNL     1     -11.055  14.893  66.173  1.00  0.00    -0.335 A  
HETATM   17  C   UNL     1     -10.436  16.119  66.725  1.00  0.00    -0.294 C  
HETATM   18  C   UNL     1     -11.452  15.134  64.864  1.00  0.00    -0.374 A  
HETATM   19  O   UNL     1     -11.195  16.402  64.418  1.00  0.00    -0.807 OA 
HETATM   20  C   UNL     1     -10.546  17.062  65.526  1.00  0.00    -0.173 C  
ENDBRANCH   3  12
TORSDOF 5
ENDMDL
MODEL       10
REMARK 921   NORMALIZED FREE ENERGY PREDICTED BY IDOCK:   -5.73 KCAL/MOL
REMARK 922        TOTAL FREE ENERGY PREDICTED BY IDOCK:   -8.09 KCAL/MOL
REMARK 923 INTER-LIGAND FREE ENERGY PREDICTED BY IDOCK:   -7.55 KCAL/MOL
REMARK 924 INTRA-LIGAND FREE ENERGY PREDICTED BY IDOCK:   -0.53 KCAL/MOL
REMARK 927      BINDING AFFINITY PREDICTED BY RF-SCORE:    0.00 PKD
ROOT
HETATM    1  C   UNL     1     -10.663  15.524  65.382  1.00  0.00    -0.422 C  
HETATM    2  C   UNL     1      -9.380  15.073  66.020  1.00  0.00    -0.304 C  
HETATM    3  C   UNL     1     -10.217  16.123  66.705  1.00  0.00    -0.281 C  
ENDROOT
BRANCH   1   4
HETATM    4  C   UNL     1     -11.887  14.659  65.355  1.00  0.00    -0.304 C  
BRANCH   4   5
HETATM    5  N   UNL     1     -12.194  14.273  63.986  1.00  0.00    -0.836 NA 
HETATM    6  H   UNL     1     -12.538  14.965  63.321  1.00  0.00     0.000 HD 
BRANCH   5   7
HETATM    7  C   UNL     1     -12.028  13.053  63.621  1.00  0.00    -0.539 C  
HETATM    8  H   UNL     1     -12.902  11.288  63.065  1.00  0.00     0.000 HD 
HETATM    9  O   UNL     1     -13.024  12.191  63.335  1.00  0.00    -0.776 OA 
BRANCH   7  10
HETATM   10  C   UNL     1     -10.675  12.418  63.482  1.00  0.00    -0.473 C  
HETATM   11  C   UNL     1     -10.631  11.064  64.167  1.00  0.00    -0.412 C  
ENDBRANCH   7  10
ENDBRANCH   5   7
ENDBRANCH   4   5
ENDBRANCH   1   4
BRANCH   3  12
HETATM   12  C   UNL     1      -9.772  17.563  66.801  1.00  0.00    -0.296 A  
HETATM   13  C   UNL     1     -10.472  18.590  66.136  1.00  0.00    -0.447 A  
HETATM   14  C   UNL     1     -10.148  19.948  66.307  1.00  0.00    -0.613 A  
HETATM   15  C   UNL     1      -9.111  20.322  67.156  1.00  0.00    -0.499 A  
HETATM   16  C   UNL     1      -8.727  17.977  67.627  1.00  0.00    -0.247 A  
HETATM   17  C   UNL     1      -7.817  17.160  68.461  1.00  0.00    -0.257 C  
HETATM   18  C   UNL     1      -8.416  19.320  67.798  1.00  0.00    -0.305 A  
HETATM   19  O   UNL     1      -7.390  19.557  68.671  1.00  0.00    -0.321 OA 
HETATM   20  C   UNL     1      -6.961  18.250  69.108  1.00  0.00    -0.217 C  
ENDBRANCH   3  12
TORSDOF 5
ENDMDL
MODEL       11
REMARK 921   NORMALIZED FREE ENERGY PREDICTED BY IDOCK:   -5.73 KCAL/MOL
REMARK 922        TOTAL FREE ENERGY PREDICTED BY IDOCK:   -8.08 KCAL/MOL
REMARK 923 INTER-LIGAND FREE ENERGY PREDICTED BY IDOCK:   -7.37 KCAL/MOL
REMARK 924 INTRA-LIGAND FREE ENERGY PREDICTED BY IDOCK:   -0.70 KCAL/MOL
REMARK 927      BINDING AFFINITY PREDICTED BY RF-SCORE:    0.00 PKD
ROOT
HETATM    1  C   UNL     1     -11.444  14.644  69.338  1.00  0.00    -0.330 C  
HETATM    2  C   UNL     1     -11.635  14.696  67.848  1.00  0.00    -0.373 C  
HETATM    3  C   UNL     1     -12.185  13.526  68.623  1.00  0.00    -0.172 C  
ENDROOT
BRANCH   1   4
HETATM    4  C   UNL     1     -12.207  15.535  70.271  1.00  0.00    -0.400 C  
BRANCH   4   5
HETATM    5  N   UNL     1     -13.423  14.868  70.712  1.00  0.00    -0.626 NA 
HETATM    6  H   UNL     1     -14.060  14.457  70.031  1.00  0.00     0.000 HD 
BRANCH   5   7
HETATM    7  C   UNL     1     -13.687  14.802  71.966  1.00  0.00    -0.428 C  
HETATM    8  H   UNL     1     -14.408  13.677  73.517  1.00  0.00     0.000 HD 
HETATM    9  O   UNL     1     -14.212  13.726  72.588  1.00  0.00    -0.710 OA 
BRANCH   7  10
HETATM   10  C   UNL     1     -13.458  15.944  72.913  1.00  0.00    -0.637 C  
HETATM   11  C   UNL     1     -12.508  15.552  74.029  1.00  0.00    -0.789 C  
ENDBRANCH   7  10
ENDBRANCH   5   7
ENDBRANCH   4   5
ENDBRANCH   1   4
BRANCH   3  12
HETATM   12  C   UNL     1     -11.590  12.142  68.509  1.00  0.00    -0.366 A  
HETATM   13  C   UNL     1     -10.801  11.775  67.400  1.00  0.00    -0.299 A  
HETATM   14  C   UNL     1     -10.139  10.536  67.331  1.00  0.00    -0.236 A  
HETATM   15  C   UNL     1     -10.243   9.623  68.376  1.00  0.00    -0.214 A  
HETATM   16  C   UNL     1     -11.686  11.192  69.527  1.00  0.00    -0.405 A  
HETATM   17  C   UNL     1     -12.418  11.272  70.811  1.00  0.00    -0.471 C  
HETATM   18  C   UNL     1     -11.024   9.973  69.456  1.00  0.00    -0.253 A  
HETATM   19  O   UNL     1     -11.192   9.173  70.552  1.00  0.00    -0.252 OA 
HETATM   20  C   UNL     1     -12.065   9.918  71.428  1.00  0.00    -0.413 C  
ENDBRANCH   3  12
TORSDOF 5
ENDMDL
MODEL       12
REMARK 921   NORMALIZED FREE ENERGY PREDICTED BY IDOCK:   -5.71 KCAL/MOL
REMARK 922        TOTAL FREE ENERGY PREDICTED BY IDOCK:   -8.05 KCAL/MOL
REMARK 923 INTER-LIGAND FREE ENERGY PREDICTED BY IDOCK:   -7.25 KCAL/MOL
REMARK 924 INTRA-LIGAND FREE ENERGY PREDICTED BY IDOCK:   -0.80 KCAL/MOL
REMARK 927      BINDING AFFINITY PREDICTED BY RF-SCORE:    0.00 PKD
ROOT
HETATM    1  C   UNL     1     -10.987  12.998  68.690  1.00  0.00    -0.297 C  
HETATM    2  C   UNL     1     -11.777  12.109  67.770  1.00  0.00    -0.390 C  
HETATM    3  C   UNL     1     -11.888  11.914  69.261  1.00  0.00    -0.379 C  
ENDROOT
BRANCH   1   4
HETATM    4  C   UNL     1     -11.351  14.434  68.918  1.00  0.00    -0.274 C  
BRANCH   4   5
HETATM    5  N   UNL     1     -12.652  14.521  69.565  1.00  0.00    -0.560 NA 
HETATM    6  H   UNL     1     -13.468  14.080  69.140  1.00  0.00     0.000 HD 
BRANCH   5   7
HETATM    7  C   UNL     1     -12.766  15.156  70.674  1.00  0.00    -0.398 C  
HETATM    8  H   UNL     1     -12.012  16.594  71.920  1.00  0.00     0.000 HD 
HETATM    9  O   UNL     1     -11.928  16.124  71.099  1.00  0.00    -0.412 OA 
BRANCH   7  10
HETATM   10  C   UNL     1     -13.858  14.881  71.667  1.00  0.00    -0.549 C  
HETATM   11  C   UNL     1     -13.579  13.613  72.454  1.00  0.00    -0.703 C  
ENDBRANCH   7  10
ENDBRANCH   5   7
ENDBRANCH   4   5
ENDBRANCH   1   4
BRANCH   3  12
HETATM   12  C   UNL     1     -11.309  10.702  69.953  1.00  0.00    -0.386 A  
HETATM   13  C   UNL     1      -9.973  10.307  69.740  1.00  0.00    -0.222 A  
HETATM   14  C   UNL     1      -9.379   9.257  70.463  1.00  0.00    -0.316 A  
HETATM   15  C   UNL     1     -10.106   8.569  71.430  1.00  0.00    -0.302 A  
HETATM   16  C   UNL     1     -12.010   9.976  70.916  1.00  0.00    -0.453 A  
HETATM   17  C   UNL     1     -13.407  10.145  71.378  1.00  0.00    -0.413 C  
HETATM   18  C   UNL     1     -11.417   8.945  71.633  1.00  0.00    -0.339 A  
HETATM   19  O   UNL     1     -12.230   8.361  72.565  1.00  0.00    -0.386 OA 
HETATM   20  C   UNL     1     -13.491   9.053  72.445  1.00  0.00    -0.470 C  
ENDBRANCH   3  12
TORSDOF 5
ENDMDL
MODEL       13
REMARK 921   NORMALIZED FREE ENERGY PREDICTED BY IDOCK:   -5.68 KCAL/MOL
REMARK 922        TOTAL FREE ENERGY PREDICTED BY IDOCK:   -8.01 KCAL/MOL
REMARK 923 INTER-LIGAND FREE ENERGY PREDICTED BY IDOCK:   -6.98 KCAL/MOL
REMARK 924 INTRA-LIGAND FREE ENERGY PREDICTED BY IDOCK:   -1.03 KCAL/MOL
REMARK 927      BINDING AFFINITY PREDICTED BY RF-SCORE:    0.00 PKD
ROOT
HETATM    1  C   UNL     1     -11.969  14.027  67.382  1.00  0.00    -0.439 C  
HETATM    2  C   UNL     1     -11.274  15.300  67.776  1.00  0.00    -0.327 C  
HETATM    3  C   UNL     1     -11.264  14.128  68.724  1.00  0.00    -0.294 C  
ENDROOT
BRANCH   1   4
HETATM    4  C   UNL     1     -11.413  13.104  66.341  1.00  0.00    -0.334 C  
BRANCH   4   5
HETATM    5  N   UNL     1     -11.736  11.725  66.675  1.00  0.00    -0.554 NA 
HETATM    6  H   UNL     1     -12.704  11.404  66.657  1.00  0.00     0.000 HD 
BRANCH   5   7
HETATM    7  C   UNL     1     -10.793  10.914  66.993  1.00  0.00    -0.266 C  
HETATM    8  H   UNL     1     -10.275   9.033  67.612  1.00  0.00     0.000 HD 
HETATM    9  O   UNL     1     -10.973   9.634  67.376  1.00  0.00    -0.247 OA 
BRANCH   7  10
HETATM   10  C   UNL     1      -9.343  11.304  66.995  1.00  0.00    -0.183 C  
HETATM   11  C   UNL     1      -8.851  11.581  68.403  1.00  0.00    -0.163 C  
ENDBRANCH   7  10
ENDBRANCH   5   7
ENDBRANCH   4   5
ENDBRANCH   1   4
BRANCH   3  12
HETATM   12  C   UNL     1     -12.044  14.141  70.018  1.00  0.00    -0.409 A  
HETATM   13  C   UNL     1     -12.542  15.344  70.558  1.00  0.00    -0.471 A  
HETATM   14  C   UNL     1     -13.371  15.367  71.695  1.00  0.00    -0.578 A  
HETATM   15  C   UNL     1     -13.733  14.180  72.325  1.00  0.00    -0.623 A  
HETATM   16  C   UNL     1     -12.413  12.975  70.689  1.00  0.00    -0.347 A  
HETATM   17  C   UNL     1     -12.072  11.570  70.375  1.00  0.00    -0.471 C  
HETATM   18  C   UNL     1     -13.239  13.003  71.806  1.00  0.00    -0.392 A  
HETATM   19  O   UNL     1     -13.535  11.771  72.322  1.00  0.00    -0.423 OA 
HETATM   20  C   UNL     1     -12.824  10.835  71.485  1.00  0.00    -0.462 C  
ENDBRANCH   3  12
TORSDOF 5
ENDMDL
MODEL       14
REMARK 921   NORMALIZED FREE ENERGY PREDICTED BY IDOCK:   -5.65 KCAL/MOL
REMARK 922        TOTAL FREE ENERGY PREDICTED BY IDOCK:   -7.97 KCAL/MOL
REMARK 923 INTER-LIGAND FREE ENERGY PREDICTED BY IDOCK:   -7.49 KCAL/MOL
REMARK 924 INTRA-LIGAND FREE ENERGY PREDICTED BY IDOCK:   -0.48 KCAL/MOL
REMARK 927      BINDING AFFINITY PREDICTED BY RF-SCORE:    0.00 PKD
ROOT
HETATM    1  C   UNL     1     -10.765  14.767  68.149  1.00  0.00    -0.247 C  
HETATM    2  C   UNL     1      -9.927  13.569  68.497  1.00  0.00    -0.202 C  
HETATM    3  C   UNL     1     -11.425  13.490  68.644  1.00  0.00    -0.343 C  
ENDROOT
BRANCH   1   4
HETATM    4  C   UNL     1     -10.993  15.196  66.732  1.00  0.00    -0.321 C  
BRANCH   4   5
HETATM    5  N   UNL     1      -9.930  16.096  66.308  1.00  0.00    -0.296 NA 
HETATM    6  H   UNL     1      -8.954  15.804  66.370  1.00  0.00     0.000 HD 
BRANCH   5   7
HETATM    7  C   UNL     1     -10.229  17.259  65.855  1.00  0.00    -0.261 C  
HETATM    8  H   UNL     1     -11.262  18.353  64.468  1.00  0.00     0.000 HD 
HETATM    9  O   UNL     1     -11.040  17.493  64.804  1.00  0.00    -0.959 OA 
BRANCH   7  10
HETATM   10  C   UNL     1      -9.685  18.530  66.441  1.00  0.00    -0.347 C  
HETATM   11  C   UNL     1     -10.680  19.164  67.395  1.00  0.00    -0.578 C  
ENDBRANCH   7  10
ENDBRANCH   5   7
ENDBRANCH   4   5
ENDBRANCH   1   4
BRANCH   3  12
HETATM   12  C   UNL     1     -12.093  13.429  69.997  1.00  0.00    -0.404 A  
HETATM   13  C   UNL     1     -12.572  14.595  70.629  1.00  0.00    -0.419 A  
HETATM   14  C   UNL     1     -13.302  14.548  71.830  1.00  0.00    -0.450 A  
HETATM   15  C   UNL     1     -13.582  13.327  72.436  1.00  0.00    -0.694 A  
HETATM   16  C   UNL     1     -12.377  12.227  70.646  1.00  0.00    -0.375 A  
HETATM   17  C   UNL     1     -12.030  10.845  70.244  1.00  0.00    -0.448 C  
HETATM   18  C   UNL     1     -13.106  12.186  71.828  1.00  0.00    -0.352 A  
HETATM   19  O   UNL     1     -13.328  10.927  72.313  1.00  0.00    -0.380 OA 
HETATM   20  C   UNL     1     -12.669  10.045  71.380  1.00  0.00    -0.415 C  
ENDBRANCH   3  12
TORSDOF 5
ENDMDL
MODEL       15
REMARK 921   NORMALIZED FREE ENERGY PREDICTED BY IDOCK:   -5.65 KCAL/MOL
REMARK 922        TOTAL FREE ENERGY PREDICTED BY IDOCK:   -7.97 KCAL/MOL
REMARK 923 INTER-LIGAND FREE ENERGY PREDICTED BY IDOCK:   -7.17 KCAL/MOL
REMARK 924 INTRA-LIGAND FREE ENERGY PREDICTED BY IDOCK:   -0.80 KCAL/MOL
REMARK 927      BINDING AFFINITY PREDICTED BY RF-SCORE:    0.00 PKD
ROOT
HETATM    1  C   UNL     1     -11.438  10.946  70.374  1.00  0.00    -0.367 C  
HETATM    2  C   UNL     1     -12.538  10.485  71.289  1.00  0.00    -0.531 C  
HETATM    3  C   UNL     1     -12.732  11.736  70.471  1.00  0.00    -0.132 C  
ENDROOT
BRANCH   1   4
HETATM    4  C   UNL     1     -11.117  10.238  69.093  1.00  0.00    -0.235 C  
BRANCH   4   5
HETATM    5  N   UNL     1     -11.944  10.761  68.015  1.00  0.00    -0.773 NA 
HETATM    6  H   UNL     1     -12.947  10.580  68.002  1.00  0.00     0.000 HD 
BRANCH   5   7
HETATM    7  C   UNL     1     -11.401  11.454  67.081  1.00  0.00    -0.255 C  
HETATM    8  H   UNL     1     -11.662  12.797  65.559  1.00  0.00     0.000 HD 
HETATM    9  O   UNL     1     -12.064  12.285  66.251  1.00  0.00    -0.626 OA 
BRANCH   7  10
HETATM   10  C   UNL     1      -9.931  11.408  66.777  1.00  0.00    -0.238 C  
HETATM   11  C   UNL     1      -9.347  12.805  66.679  1.00  0.00    -0.242 C  
ENDBRANCH   7  10
ENDBRANCH   5   7
ENDBRANCH   4   5
ENDBRANCH   1   4
BRANCH   3  12
HETATM   12  C   UNL     1     -12.766  13.107  71.104  1.00  0.00    -0.386 A  
HETATM   13  C   UNL     1     -13.359  13.314  72.366  1.00  0.00    -0.616 A  
HETATM   14  C   UNL     1     -13.296  14.554  73.028  1.00  0.00    -0.510 A  
HETATM   15  C   UNL     1     -12.630  15.629  72.446  1.00  0.00    -0.510 A  
HETATM   16  C   UNL     1     -12.125  14.213  70.546  1.00  0.00    -0.420 A  
HETATM   17  C   UNL     1     -11.405  14.322  69.257  1.00  0.00    -0.322 C  
HETATM   18  C   UNL     1     -12.059  15.433  71.207  1.00  0.00    -0.366 A  
HETATM   19  O   UNL     1     -11.363  16.403  70.539  1.00  0.00    -0.363 OA 
HETATM   20  C   UNL     1     -10.942  15.779  69.307  1.00  0.00    -0.281 C  
ENDBRANCH   3  12
TORSDOF 5
ENDMDL
MODEL       16
REMARK 921   NORMALIZED FREE ENERGY PREDICTED BY IDOCK:   -5.61 KCAL/MOL
REMARK 922        TOTAL FREE ENERGY PREDICTED BY IDOCK:   -7.93 KCAL/MOL
REMARK 923 INTER-LIGAND FREE ENERGY PREDICTED BY IDOCK:   -7.46 KCAL/MOL
REMARK 924 INTRA-LIGAND FREE ENERGY PREDICTED BY IDOCK:   -0.47 KCAL/MOL
REMARK 927      BINDING AFFINITY PREDICTED BY RF-SCORE:    0.00 PKD
ROOT
HETATM    1  C   UNL     1     -11.324  15.023  69.255  1.00  0.00    -0.311 C  
HETATM    2  C   UNL     1     -11.205  15.813  67.983  1.00  0.00    -0.338 C  
HETATM    3  C   UNL     1     -11.944  14.500  67.970  1.00  0.00    -0.305 C  
ENDROOT
BRANCH   1   4
HETATM    4  C   UNL     1     -12.227  15.444  70.375  1.00  0.00    -0.391 C  
BRANCH   4   5
HETATM    5  N   UNL     1     -12.286  14.400  71.387  1.00  0.00    -0.350 NA 
HETATM    6  H   UNL     1     -11.619  13.628  71.368  1.00  0.00     0.000 HD 
BRANCH   5   7
HETATM    7  C   UNL     1     -13.182  14.457  72.303  1.00  0.00    -0.406 C  
HETATM    8  H   UNL     1     -14.722  13.516  73.267  1.00  0.00     0.000 HD 
HETATM    9  O   UNL     1     -14.058  13.473  72.589  1.00  0.00    -0.762 OA 
BRANCH   7  10
HETATM   10  C   UNL     1     -13.382  15.662  73.178  1.00  0.00    -0.660 C  
HETATM   11  C   UNL     1     -12.400  15.671  74.334  1.00  0.00    -0.802 C  
ENDBRANCH   7  10
ENDBRANCH   5   7
ENDBRANCH   4   5
ENDBRANCH   1   4
BRANCH   3  12
HETATM   12  C   UNL     1     -11.391  13.278  67.276  1.00  0.00    -0.347 A  
HETATM   13  C   UNL     1     -10.771  12.242  68.004  1.00  0.00    -0.245 A  
HETATM   14  C   UNL     1     -10.357  11.043  67.393  1.00  0.00    -0.242 A  
HETATM   15  C   UNL     1     -10.555  10.843  66.031  1.00  0.00    -0.254 A  
HETATM   16  C   UNL     1     -11.554  13.047  65.910  1.00  0.00    -0.405 A  
HETATM   17  C   UNL     1     -12.169  13.918  64.883  1.00  0.00    -0.445 C  
HETATM   18  C   UNL     1     -11.150  11.859  65.314  1.00  0.00    -0.299 A  
HETATM   19  O   UNL     1     -11.416  11.777  63.975  1.00  0.00    -0.366 OA 
HETATM   20  C   UNL     1     -12.037  13.036  63.640  1.00  0.00    -0.531 C  
ENDBRANCH   3  12
TORSDOF 5
ENDMDL
MODEL       17
REMARK 921   NORMALIZED FREE ENERGY PREDICTED BY IDOCK:   -5.58 KCAL/MOL
REMARK 922        TOTAL FREE ENERGY PREDICTED BY IDOCK:   -7.88 KCAL/MOL
REMARK 923 INTER-LIGAND FREE ENERGY PREDICTED BY IDOCK:   -7.43 KCAL/MOL
REMARK 924 INTRA-LIGAND FREE ENERGY PREDICTED BY IDOCK:   -0.45 KCAL/MOL
REMARK 927      BINDING AFFINITY PREDICTED BY RF-SCORE:    0.00 PKD
ROOT
HETATM    1  C   UNL     1     -11.057  16.090  69.590  1.00  0.00    -0.331 C  
HETATM    2  C   UNL     1     -10.390  15.335  68.475  1.00  0.00    -0.231 C  
HETATM    3  C   UNL     1      -9.734  16.577  69.023  1.00  0.00    -0.258 C  
ENDROOT
BRANCH   1   4
HETATM    4  C   UNL     1     -11.094  15.569  70.995  1.00  0.00    -0.340 C  
BRANCH   4   5
HETATM    5  N   UNL     1     -12.004  16.371  71.799  1.00  0.00    -0.659 NA 
HETATM    6  H   UNL     1     -12.193  17.341  71.548  1.00  0.00     0.000 HD 
BRANCH   5   7
HETATM    7  C   UNL     1     -12.568  15.848  72.827  1.00  0.00    -0.470 C  
HETATM    8  H   UNL     1     -13.395  16.144  74.675  1.00  0.00     0.000 HD 
HETATM    9  O   UNL     1     -12.978  16.531  73.914  1.00  0.00    -0.636 OA 
BRANCH   7  10
HETATM   10  C   UNL     1     -12.830  14.375  72.955  1.00  0.00    -0.521 C  
HETATM   11  C   UNL     1     -14.152  13.994  72.316  1.00  0.00    -0.633 C  
ENDBRANCH   7  10
ENDBRANCH   5   7
ENDBRANCH   4   5
ENDBRANCH   1   4
BRANCH   3  12
HETATM   12  C   UNL     1      -9.650  17.855  68.223  1.00  0.00    -0.312 A  
HETATM   13  C   UNL     1     -10.763  18.346  67.511  1.00  0.00    -0.399 A  
HETATM   14  C   UNL     1     -10.743  19.593  66.859  1.00  0.00    -0.570 A  
HETATM   15  C   UNL     1      -9.605  20.392  66.905  1.00  0.00    -0.546 A  
HETATM   16  C   UNL     1      -8.522  18.677  68.228  1.00  0.00    -0.350 A  
HETATM   17  C   UNL     1      -7.213  18.459  68.883  1.00  0.00    -0.286 C  
HETATM   18  C   UNL     1      -8.511  19.910  67.589  1.00  0.00    -0.326 A  
HETATM   19  O   UNL     1      -7.341  20.606  67.722  1.00  0.00    -0.290 OA 
HETATM   20  C   UNL     1      -6.483  19.749  68.505  1.00  0.00    -0.275 C  
ENDBRANCH   3  12
TORSDOF 5
ENDMDL
MODEL       18
REMARK 921   NORMALIZED FREE ENERGY PREDICTED BY IDOCK:   -5.58 KCAL/MOL
REMARK 922        TOTAL FREE ENERGY PREDICTED BY IDOCK:   -7.88 KCAL/MOL
REMARK 923 INTER-LIGAND FREE ENERGY PREDICTED BY IDOCK:   -6.86 KCAL/MOL
REMARK 924 INTRA-LIGAND FREE ENERGY PREDICTED BY IDOCK:   -1.03 KCAL/MOL
REMARK 927      BINDING AFFINITY PREDICTED BY RF-SCORE:    0.00 PKD
ROOT
HETATM    1  C   UNL     1     -10.199  11.409  66.563  1.00  0.00    -0.259 C  
HETATM    2  C   UNL     1      -9.888  10.371  67.604  1.00  0.00    -0.197 C  
HETATM    3  C   UNL     1     -11.204  11.105  67.662  1.00  0.00    -0.364 C  
ENDROOT
BRANCH   1   4
HETATM    4  C   UNL     1     -10.541  11.045  65.150  1.00  0.00    -0.226 C  
BRANCH   4   5
HETATM    5  N   UNL     1     -10.872  12.244  64.393  1.00  0.00    -0.307 NA 
HETATM    6  H   UNL     1     -10.190  12.654  63.756  1.00  0.00     0.000 HD 
BRANCH   5   7
HETATM    7  C   UNL     1     -12.030  12.780  64.533  1.00  0.00    -0.393 C  
HETATM    8  H   UNL     1     -14.056  12.582  64.325  1.00  0.00     0.000 HD 
HETATM    9  O   UNL     1     -13.199  12.185  64.222  1.00  0.00    -0.768 OA 
BRANCH   7  10
HETATM   10  C   UNL     1     -12.228  14.174  65.055  1.00  0.00    -0.450 C  
HETATM   11  C   UNL     1     -10.911  14.924  65.133  1.00  0.00    -0.410 C  
ENDBRANCH   7  10
ENDBRANCH   5   7
ENDBRANCH   4   5
ENDBRANCH   1   4
BRANCH   3  12
HETATM   12  C   UNL     1     -11.508  12.113  68.744  1.00  0.00    -0.359 A  
HETATM   13  C   UNL     1     -11.312  13.493  68.533  1.00  0.00    -0.327 A  
HETATM   14  C   UNL     1     -11.701  14.458  69.481  1.00  0.00    -0.362 A  
HETATM   15  C   UNL     1     -12.305  14.069  70.672  1.00  0.00    -0.446 A  
HETATM   16  C   UNL     1     -12.099  11.763  69.959  1.00  0.00    -0.387 A  
HETATM   17  C   UNL     1     -12.446  10.420  70.474  1.00  0.00    -0.403 C  
HETATM   18  C   UNL     1     -12.487  12.720  70.888  1.00  0.00    -0.283 A  
HETATM   19  O   UNL     1     -13.084  12.213  72.009  1.00  0.00    -0.448 OA 
HETATM   20  C   UNL     1     -13.075  10.781  71.821  1.00  0.00    -0.468 C  
ENDBRANCH   3  12
TORSDOF 5
ENDMDL
MODEL       19
REMARK 921   NORMALIZED FREE ENERGY PREDICTED BY IDOCK:   -5.55 KCAL/MOL
REMARK 922        TOTAL FREE ENERGY PREDICTED BY IDOCK:   -7.84 KCAL/MOL
REMARK 923 INTER-LIGAND FREE ENERGY PREDICTED BY IDOCK:   -7.48 KCAL/MOL
REMARK 924 INTRA-LIGAND FREE ENERGY PREDICTED BY IDOCK:   -0.36 KCAL/MOL
REMARK 927      BINDING AFFINITY PREDICTED BY RF-SCORE:    0.00 PKD
ROOT
HETATM    1  C   UNL     1     -10.682  13.402  67.484  1.00  0.00    -0.263 C  
HETATM    2  C   UNL     1     -11.875  14.316  67.447  1.00  0.00    -0.441 C  
HETATM    3  C   UNL     1     -11.248  13.973  68.774  1.00  0.00    -0.298 C  
ENDROOT
BRANCH   1   4
HETATM    4  C   UNL     1      -9.324  13.845  67.032  1.00  0.00    -0.251 C  
BRANCH   4   5
HETATM    5  N   UNL     1      -9.444  14.699  65.858  1.00  0.00    -0.491 NA 
HETATM    6  H   UNL     1      -9.418  14.293  64.923  1.00  0.00     0.000 HD 
BRANCH   5   7
HETATM    7  C   UNL     1      -9.582  15.966  66.009  1.00  0.00    -0.350 C  
HETATM    8  H   UNL     1     -10.522  17.680  65.403  1.00  0.00     0.000 HD 
HETATM    9  O   UNL     1     -10.419  16.741  65.292  1.00  0.00    -0.630 OA 
BRANCH   7  10
HETATM   10  C   UNL     1      -8.798  16.761  67.013  1.00  0.00    -0.227 C  
HETATM   11  C   UNL     1      -7.662  17.516  66.349  1.00  0.00    -0.332 C  
ENDBRANCH   7  10
ENDBRANCH   5   7
ENDBRANCH   4   5
ENDBRANCH   1   4
BRANCH   3  12
HETATM   12  C   UNL     1     -11.944  13.088  69.781  1.00  0.00    -0.377 A  
HETATM   13  C   UNL     1     -11.726  11.695  69.803  1.00  0.00    -0.425 A  
HETATM   14  C   UNL     1     -12.269  10.869  70.804  1.00  0.00    -0.483 A  
HETATM   15  C   UNL     1     -13.045  11.415  71.822  1.00  0.00    -0.523 A  
HETATM   16  C   UNL     1     -12.742  13.594  70.806  1.00  0.00    -0.338 A  
HETATM   17  C   UNL     1     -13.146  14.993  71.070  1.00  0.00    -0.482 C  
HETATM   18  C   UNL     1     -13.269  12.775  71.797  1.00  0.00    -0.374 A  
HETATM   19  O   UNL     1     -13.998  13.433  72.749  1.00  0.00    -0.724 OA 
HETATM   20  C   UNL     1     -13.974  14.819  72.344  1.00  0.00    -0.473 C  
ENDBRANCH   3  12
TORSDOF 5
ENDMDL
MODEL       20
REMARK 921   NORMALIZED FREE ENERGY PREDICTED BY IDOCK:   -5.53 KCAL/MOL
REMARK 922        TOTAL FREE ENERGY PREDICTED BY IDOCK:   -7.82 KCAL/MOL
REMARK 923 INTER-LIGAND FREE ENERGY PREDICTED BY IDOCK:   -7.13 KCAL/MOL
REMARK 924 INTRA-LIGAND FREE ENERGY PREDICTED BY IDOCK:   -0.69 KCAL/MOL
REMARK 927      BINDING AFFINITY PREDICTED BY RF-SCORE:    0.00 PKD
ROOT
HETATM    1  C   UNL     1     -10.518  14.412  66.292  1.00  0.00    -0.292 C  
HETATM    2  C   UNL     1     -11.960  14.391  65.866  1.00  0.00    -0.367 C  
HETATM    3  C   UNL     1     -11.617  14.705  67.300  1.00  0.00    -0.404 C  
ENDROOT
BRANCH   1   4
HETATM    4  C   UNL     1      -9.586  15.516  65.896  1.00  0.00    -0.348 C  
BRANCH   4   5
HETATM    5  N   UNL     1     -10.335  16.604  65.285  1.00  0.00    -0.636 NA 
HETATM    6  H   UNL     1     -10.831  16.457  64.406  1.00  0.00     0.000 HD 
BRANCH   5   7
HETATM    7  C   UNL     1     -10.368  17.751  65.859  1.00  0.00    -0.254 C  
HETATM    8  H   UNL     1     -10.824  19.741  65.709  1.00  0.00     0.000 HD 
HETATM    9  O   UNL     1     -10.800  18.891  65.284  1.00  0.00    -0.559 OA 
BRANCH   7  10
HETATM   10  C   UNL     1      -9.900  17.974  67.269  1.00  0.00    -0.306 C  
HETATM   11  C   UNL     1     -10.524  19.222  67.864  1.00  0.00    -0.514 C  
ENDBRANCH   7  10
ENDBRANCH   5   7
ENDBRANCH   4   5
ENDBRANCH   1   4
BRANCH   3  12
HETATM   12  C   UNL     1     -11.924  13.744  68.424  1.00  0.00    -0.395 A  
HETATM   13  C   UNL     1     -11.786  12.351  68.251  1.00  0.00    -0.398 A  
HETATM   14  C   UNL     1     -11.950  11.446  69.316  1.00  0.00    -0.400 A  
HETATM   15  C   UNL     1     -12.253  11.910  70.593  1.00  0.00    -0.424 A  
HETATM   16  C   UNL     1     -12.247  14.167  69.713  1.00  0.00    -0.397 A  
HETATM   17  C   UNL     1     -12.449  15.543  70.220  1.00  0.00    -0.403 C  
HETATM   18  C   UNL     1     -12.400  13.269  70.762  1.00  0.00    -0.344 A  
HETATM   19  O   UNL     1     -12.680  13.850  71.968  1.00  0.00    -0.303 OA 
HETATM   20  C   UNL     1     -12.740  15.266  71.696  1.00  0.00    -0.384 C  
ENDBRANCH   3  12
TORSDOF 5
ENDMDL
MODEL       21
REMARK 921   NORMALIZED FREE ENERGY PREDICTED BY IDOCK:   -5.49 KCAL/MOL
REMARK 922        TOTAL FREE ENERGY PREDICTED BY IDOCK:   -7.77 KCAL/MOL
REMARK 923 INTER-LIGAND FREE ENERGY PREDICTED BY IDOCK:   -6.95 KCAL/MOL
REMARK 924 INTRA-LIGAND FREE ENERGY PREDICTED BY IDOCK:   -0.82 KCAL/MOL
REMARK 927      BINDING AFFINITY PREDICTED BY RF-SCORE:    0.00 PKD
ROOT
HETATM    1  C   UNL     1     -11.204  13.322  67.803  1.00  0.00    -0.308 C  
HETATM    2  C   UNL     1      -9.964  12.478  67.699  1.00  0.00    -0.201 C  
HETATM    3  C   UNL     1     -11.292  11.812  67.956  1.00  0.00    -0.355 C  
ENDROOT
BRANCH   1   4
HETATM    4  C   UNL     1     -11.833  13.966  66.605  1.00  0.00    -0.420 C  
BRANCH   4   5
HETATM    5  N   UNL     1     -12.444  12.952  65.759  1.00  0.00    -0.555 NA 
HETATM    6  H   UNL     1     -12.945  12.168  66.177  1.00  0.00     0.000 HD 
BRANCH   5   7
HETATM    7  C   UNL     1     -12.348  13.051  64.483  1.00  0.00    -0.398 C  
HETATM    8  H   UNL     1     -12.534  14.243  62.830  1.00  0.00     0.000 HD 
HETATM    9  O   UNL     1     -12.604  14.169  63.775  1.00  0.00    -0.804 OA 
BRANCH   7  10
HETATM   10  C   UNL     1     -11.949  11.903  63.601  1.00  0.00    -0.578 C  
HETATM   11  C   UNL     1     -10.781  11.136  64.192  1.00  0.00    -0.415 C  
ENDBRANCH   7  10
ENDBRANCH   5   7
ENDBRANCH   4   5
ENDBRANCH   1   4
BRANCH   3  12
HETATM   12  C   UNL     1     -11.624  11.179  69.286  1.00  0.00    -0.388 A  
HETATM   13  C   UNL     1     -12.472  11.823  70.211  1.00  0.00    -0.237 A  
HETATM   14  C   UNL     1     -12.890  11.201  71.401  1.00  0.00    -0.544 A  
HETATM   15  C   UNL     1     -12.475   9.908  71.702  1.00  0.00    -0.507 A  
HETATM   16  C   UNL     1     -11.215   9.892  69.633  1.00  0.00    -0.251 A  
HETATM   17  C   UNL     1     -10.346   8.956  68.885  1.00  0.00    -0.229 C  
HETATM   18  C   UNL     1     -11.637   9.280  70.806  1.00  0.00    -0.285 A  
HETATM   19  O   UNL     1     -11.175   8.004  70.978  1.00  0.00    -0.256 OA 
HETATM   20  C   UNL     1     -10.349   7.747  69.822  1.00  0.00    -0.221 C  
ENDBRANCH   3  12
TORSDOF 5
ENDMDL
MODEL       22
REMARK 921   NORMALIZED FREE ENERGY PREDICTED BY IDOCK:   -5.49 KCAL/MOL
REMARK 922        TOTAL FREE ENERGY PREDICTED BY IDOCK:   -7.76 KCAL/MOL
REMARK 923 INTER-LIGAND FREE ENERGY PREDICTED BY IDOCK:   -6.83 KCAL/MOL
REMARK 924 INTRA-LIGAND FREE ENERGY PREDICTED BY IDOCK:   -0.93 KCAL/MOL
REMARK 927      BINDING AFFINITY PREDICTED BY RF-SCORE:    0.00 PKD
ROOT
HETATM    1  C   UNL     1     -11.001  14.581  68.824  1.00  0.00    -0.262 C  
HETATM    2  C   UNL     1     -11.726  15.601  69.657  1.00  0.00    -0.373 C  
HETATM    3  C   UNL     1     -11.039  16.037  68.387  1.00  0.00    -0.351 C  
ENDROOT
BRANCH   1   4
HETATM    4  C   UNL     1     -11.728  13.561  68.001  1.00  0.00    -0.359 C  
BRANCH   4   5
HETATM    5  N   UNL     1     -12.487  14.220  66.949  1.00  0.00    -0.543 NA 
HETATM    6  H   UNL     1     -13.189  14.922  67.184  1.00  0.00     0.000 HD 
BRANCH   5   7
HETATM    7  C   UNL     1     -12.268  13.911  65.723  1.00  0.00    -0.460 C  
HETATM    8  H   UNL     1     -12.931  12.947  64.044  1.00  0.00     0.000 HD 
HETATM    9  O   UNL     1     -13.093  13.175  64.952  1.00  0.00    -0.744 OA 
BRANCH   7  10
HETATM   10  C   UNL     1     -11.027  14.326  64.984  1.00  0.00    -0.394 C  
HETATM   11  C   UNL     1     -10.881  15.836  64.960  1.00  0.00    -0.461 C  
ENDBRANCH   7  10
ENDBRANCH   5   7
ENDBRANCH   4   5
ENDBRANCH   1   4
BRANCH   3  12
HETATM   12  C   UNL     1      -9.793  16.891  68.406  1.00  0.00    -0.266 A  
HETATM   13  C   UNL     1      -8.556  16.368  68.834  1.00  0.00    -0.250 A  
HETATM   14  C   UNL     1      -7.362  17.108  68.747  1.00  0.00    -0.241 A  
HETATM   15  C   UNL     1      -7.369  18.397  68.223  1.00  0.00    -0.285 A  
HETATM   16  C   UNL     1      -9.762  18.193  67.906  1.00  0.00    -0.302 A  
HETATM   17  C   UNL     1     -10.873  19.014  67.374  1.00  0.00    -0.496 C  
HETATM   18  C   UNL     1      -8.579  18.915  67.815  1.00  0.00    -0.292 A  
HETATM   19  O   UNL     1      -8.717  20.161  67.268  1.00  0.00    -0.327 OA 
HETATM   20  C   UNL     1     -10.127  20.291  66.985  1.00  0.00    -0.427 C  
ENDBRANCH   3  12
TORSDOF 5
ENDMDL
MODEL       23
REMARK 921   NORMALIZED FREE ENERGY PREDICTED BY IDOCK:   -5.48 KCAL/MOL
REMARK 922        TOTAL FREE ENERGY PREDICTED BY IDOCK:   -7.75 KCAL/MOL
REMARK 923 INTER-LIGAND FREE ENERGY PREDICTED BY IDOCK:   -7.42 KCAL/MOL
REMARK 924 INTRA-LIGAND FREE ENERGY PREDICTED BY IDOCK:   -0.33 KCAL/MOL
REMARK 927      BINDING AFFINITY PREDICTED BY RF-SCORE:    0.00 PKD
ROOT
HETATM    1  C   UNL     1     -13.184  10.133  71.090  1.00  0.00    -0.438 C  
HETATM    2  C   UNL     1     -12.308  10.473  69.917  1.00  0.00    -0.247 C  
HETATM    3  C   UNL     1     -12.230  11.314  71.166  1.00  0.00    -0.351 C  
ENDROOT
BRANCH   1   4
HETATM    4  C   UNL     1     -12.927   8.939  71.958  1.00  0.00    -0.399 C  
BRANCH   4   5
HETATM    5  N   UNL     1     -13.063   7.718  71.177  1.00  0.00    -0.547 NA 
HETATM    6  H   UNL     1     -13.900   7.557  70.616  1.00  0.00     0.000 HD 
BRANCH   5   7
HETATM    7  C   UNL     1     -12.123   6.845  71.199  1.00  0.00    -0.381 C  
HETATM    8  H   UNL     1     -10.934   5.622  72.330  1.00  0.00     0.000 HD 
HETATM    9  O   UNL     1     -11.631   6.268  72.314  1.00  0.00    -0.293 OA 
BRANCH   7  10
HETATM   10  C   UNL     1     -11.426   6.361  69.960  1.00  0.00    -0.496 C  
HETATM   11  C   UNL     1     -10.347   5.348  70.296  1.00  0.00    -0.357 C  
ENDBRANCH   7  10
ENDBRANCH   5   7
ENDBRANCH   4   5
ENDBRANCH   1   4
BRANCH   3  12
HETATM   12  C   UNL     1     -12.745  12.733  71.206  1.00  0.00    -0.364 A  
HETATM   13  C   UNL     1     -13.654  13.153  72.199  1.00  0.00    -0.637 A  
HETATM   14  C   UNL     1     -14.053  14.496  72.328  1.00  0.00    -0.594 A  
HETATM   15  C   UNL     1     -13.548  15.465  71.467  1.00  0.00    -0.604 A  
HETATM   16  C   UNL     1     -12.278  13.731  70.351  1.00  0.00    -0.433 A  
HETATM   17  C   UNL     1     -11.320  13.623  69.227  1.00  0.00    -0.323 C  
HETATM   18  C   UNL     1     -12.669  15.056  70.488  1.00  0.00    -0.357 A  
HETATM   19  O   UNL     1     -12.090  15.914  69.592  1.00  0.00    -0.327 OA 
HETATM   20  C   UNL     1     -11.250  15.079  68.767  1.00  0.00    -0.277 C  
ENDBRANCH   3  12
TORSDOF 5
ENDMDL
MODEL       24
REMARK 921   NORMALIZED FREE ENERGY PREDICTED BY IDOCK:   -5.47 KCAL/MOL
REMARK 922        TOTAL FREE ENERGY PREDICTED BY IDOCK:   -7.74 KCAL/MOL
REMARK 923 INTER-LIGAND FREE ENERGY PREDICTED BY IDOCK:   -7.05 KCAL/MOL
REMARK 924 INTRA-LIGAND FREE ENERGY PREDICTED BY IDOCK:   -0.70 KCAL/MOL
REMARK 927      BINDING AFFINITY PREDICTED BY RF-SCORE:    0.00 PKD
ROOT
HETATM    1  C   UNL     1     -12.113  13.936  67.339  1.00  0.00    -0.380 C  
HETATM    2  C   UNL     1     -11.492  15.204  67.856  1.00  0.00    -0.344 C  
HETATM    3  C   UNL     1     -11.351  13.933  68.654  1.00  0.00    -0.310 C  
ENDROOT
BRANCH   1   4
HETATM    4  C   UNL     1     -11.544  13.188  66.172  1.00  0.00    -0.355 C  
BRANCH   4   5
HETATM    5  N   UNL     1     -11.567  11.757  66.440  1.00  0.00    -0.485 NA 
HETATM    6  H   UNL     1     -12.451  11.281  66.616  1.00  0.00     0.000 HD 
BRANCH   5   7
HETATM    7  C   UNL     1     -10.465  11.098  66.452  1.00  0.00    -0.260 C  
HETATM    8  H   UNL     1      -8.645  10.804  67.339  1.00  0.00     0.000 HD 
HETATM    9  O   UNL     1      -9.460  11.292  67.330  1.00  0.00    -0.171 OA 
BRANCH   7  10
HETATM   10  C   UNL     1     -10.145  10.020  65.457  1.00  0.00    -0.325 C  
HETATM   11  C   UNL     1      -9.945  10.597  64.068  1.00  0.00    -0.401 C  
ENDBRANCH   7  10
ENDBRANCH   5   7
ENDBRANCH   4   5
ENDBRANCH   1   4
BRANCH   3  12
HETATM   12  C   UNL     1     -12.065  13.733  69.970  1.00  0.00    -0.416 A  
HETATM   13  C   UNL     1     -12.656  14.817  70.652  1.00  0.00    -0.414 A  
HETATM   14  C   UNL     1     -13.427  14.637  71.815  1.00  0.00    -0.459 A  
HETATM   15  C   UNL     1     -13.635  13.361  72.331  1.00  0.00    -0.708 A  
HETATM   16  C   UNL     1     -12.280  12.474  70.530  1.00  0.00    -0.382 A  
HETATM   17  C   UNL     1     -11.812  11.151  70.057  1.00  0.00    -0.441 C  
HETATM   18  C   UNL     1     -13.049  12.302  71.674  1.00  0.00    -0.306 A  
HETATM   19  O   UNL     1     -13.192  11.000  72.069  1.00  0.00    -0.499 OA 
HETATM   20  C   UNL     1     -12.431  10.233  71.112  1.00  0.00    -0.391 C  
ENDBRANCH   3  12
TORSDOF 5
ENDMDL
MODEL       25
REMARK 921   NORMALIZED FREE ENERGY PREDICTED BY IDOCK:   -5.40 KCAL/MOL
REMARK 922        TOTAL FREE ENERGY PREDICTED BY IDOCK:   -7.66 KCAL/MOL
REMARK 923 INTER-LIGAND FREE ENERGY PREDICTED BY IDOCK:   -6.97 KCAL/MOL
REMARK 924 INTRA-LIGAND FREE ENERGY PREDICTED BY IDOCK:   -0.69 KCAL/MOL
REMARK 927      BINDING AFFINITY PREDICTED BY RF-SCORE:    0.00 PKD
ROOT
HETATM    1  C   UNL     1     -11.818  11.701  68.206  1.00  0.00    -0.335 C  
HETATM    2  C   UNL     1     -11.428  12.727  69.232  1.00  0.00    -0.349 C  
HETATM    3  C   UNL     1     -10.991  11.296  69.415  1.00  0.00    -0.282 C  
ENDROOT
BRANCH   1   4
HETATM    4  C   UNL     1     -11.186  11.651  66.848  1.00  0.00    -0.313 C  
BRANCH   4   5
HETATM    5  N   UNL     1     -12.118  12.145  65.846  1.00  0.00    -0.571 NA 
HETATM    6  H   UNL     1     -12.775  11.508  65.395  1.00  0.00     0.000 HD 
BRANCH   5   7
HETATM    7  C   UNL     1     -12.110  13.390  65.534  1.00  0.00    -0.428 C  
HETATM    8  H   UNL     1     -13.189  15.023  64.938  1.00  0.00     0.000 HD 
HETATM    9  O   UNL     1     -13.195  14.102  65.170  1.00  0.00    -0.743 OA 
BRANCH   7  10
HETATM   10  C   UNL     1     -10.859  14.221  65.518  1.00  0.00    -0.325 C  
HETATM   11  C   UNL     1     -10.911  15.312  66.572  1.00  0.00    -0.311 C  
ENDBRANCH   7  10
ENDBRANCH   5   7
ENDBRANCH   4   5
ENDBRANCH   1   4
BRANCH   3  12
HETATM   12  C   UNL     1     -11.569  10.416  70.498  1.00  0.00    -0.433 A  
HETATM   13  C   UNL     1     -12.936  10.480  70.839  1.00  0.00    -0.455 A  
HETATM   14  C   UNL     1     -13.520   9.589  71.758  1.00  0.00    -0.480 A  
HETATM   15  C   UNL     1     -12.752   8.600  72.364  1.00  0.00    -0.423 A  
HETATM   16  C   UNL     1     -10.830   9.423  71.141  1.00  0.00    -0.427 A  
HETATM   17  C   UNL     1      -9.395   9.090  70.998  1.00  0.00    -0.339 C  
HETATM   18  C   UNL     1     -11.413   8.542  72.042  1.00  0.00    -0.361 A  
HETATM   19  O   UNL     1     -10.557   7.606  72.554  1.00  0.00    -0.234 OA 
HETATM   20  C   UNL     1      -9.278   7.903  71.955  1.00  0.00    -0.155 C  
ENDBRANCH   3  12
TORSDOF 5
ENDMDL
MODEL       26
REMARK 921   NORMALIZED FREE ENERGY PREDICTED BY IDOCK:   -5.40 KCAL/MOL
REMARK 922        TOTAL FREE ENERGY PREDICTED BY IDOCK:   -7.65 KCAL/MOL
REMARK 923 INTER-LIGAND FREE ENERGY PREDICTED BY IDOCK:   -7.41 KCAL/MOL
REMARK 924 INTRA-LIGAND FREE ENERGY PREDICTED BY IDOCK:   -0.24 KCAL/MOL
REMARK 927      BINDING AFFINITY PREDICTED BY RF-SCORE:    0.00 PKD
ROOT
HETATM    1  C   UNL     1     -10.937  14.016  68.180  1.00  0.00    -0.268 C  
HETATM    2  C   UNL     1      -9.893  12.940  68.282  1.00  0.00    -0.228 C  
HETATM    3  C   UNL     1     -11.352  12.559  68.302  1.00  0.00    -0.331 C  
ENDROOT
BRANCH   1   4
HETATM    4  C   UNL     1     -11.213  14.741  66.898  1.00  0.00    -0.347 C  
BRANCH   4   5
HETATM    5  N   UNL     1     -12.486  14.306  66.344  1.00  0.00    -0.506 NA 
HETATM    6  H   UNL     1     -13.322  14.286  66.929  1.00  0.00     0.000 HD 
BRANCH   5   7
HETATM    7  C   UNL     1     -12.552  13.948  65.113  1.00  0.00    -0.434 C  
HETATM    8  H   UNL     1     -12.722  14.528  63.158  1.00  0.00     0.000 HD 
HETATM    9  O   UNL     1     -12.673  14.793  64.069  1.00  0.00    -0.786 OA 
BRANCH   7  10
HETATM   10  C   UNL     1     -12.519  12.512  64.676  1.00  0.00    -0.539 C  
HETATM   11  C   UNL     1     -11.093  12.010  64.546  1.00  0.00    -0.384 C  
ENDBRANCH   7  10
ENDBRANCH   5   7
ENDBRANCH   4   5
ENDBRANCH   1   4
BRANCH   3  12
HETATM   12  C   UNL     1     -12.024  12.039  69.550  1.00  0.00    -0.346 A  
HETATM   13  C   UNL     1     -12.073  10.658  69.833  1.00  0.00    -0.372 A  
HETATM   14  C   UNL     1     -12.586  10.161  71.045  1.00  0.00    -0.478 A  
HETATM   15  C   UNL     1     -13.064  11.034  72.017  1.00  0.00    -0.449 A  
HETATM   16  C   UNL     1     -12.531  12.880  70.541  1.00  0.00    -0.294 A  
HETATM   17  C   UNL     1     -12.614  14.357  70.558  1.00  0.00    -0.417 C  
HETATM   18  C   UNL     1     -13.029  12.383  71.739  1.00  0.00    -0.316 A  
HETATM   19  O   UNL     1     -13.452  13.343  72.618  1.00  0.00    -0.568 OA 
HETATM   20  C   UNL     1     -13.235  14.596  71.935  1.00  0.00    -0.349 C  
ENDBRANCH   3  12
TORSDOF 5
ENDMDL
MODEL       27
REMARK 921   NORMALIZED FREE ENERGY PREDICTED BY IDOCK:   -5.37 KCAL/MOL
REMARK 922        TOTAL FREE ENERGY PREDICTED BY IDOCK:   -7.61 KCAL/MOL
REMARK 923 INTER-LIGAND FREE ENERGY PREDICTED BY IDOCK:   -6.91 KCAL/MOL
REMARK 924 INTRA-LIGAND FREE ENERGY PREDICTED BY IDOCK:   -0.70 KCAL/MOL
REMARK 927      BINDING AFFINITY PREDICTED BY RF-SCORE:    0.00 PKD
ROOT
HETATM    1  C   UNL     1     -11.651  12.225  67.244  1.00  0.00    -0.427 C  
HETATM    2  C   UNL     1     -11.325  13.671  67.491  1.00  0.00    -0.335 C  
HETATM    3  C   UNL     1     -11.012  12.650  68.555  1.00  0.00    -0.292 C  
ENDROOT
BRANCH   1   4
HETATM    4  C   UNL     1     -10.859  11.380  66.293  1.00  0.00    -0.263 C  
BRANCH   4   5
HETATM    5  N   UNL     1     -10.197  12.224  65.310  1.00  0.00    -0.275 NA 
HETATM    6  H   UNL     1      -9.547  12.951  65.610  1.00  0.00     0.000 HD 
BRANCH   5   7
HETATM    7  C   UNL     1     -10.436  12.048  64.061  1.00  0.00    -0.372 C  
HETATM    8  H   UNL     1      -9.692  11.572  62.216  1.00  0.00     0.000 HD 
HETATM    9  O   UNL     1      -9.515  11.703  63.140  1.00  0.00    -0.345 OA 
BRANCH   7  10
HETATM   10  C   UNL     1     -11.799  12.228  63.456  1.00  0.00    -0.601 C  
HETATM   11  C   UNL     1     -12.344  13.616  63.732  1.00  0.00    -0.357 C  
ENDBRANCH   7  10
ENDBRANCH   5   7
ENDBRANCH   4   5
ENDBRANCH   1   4
BRANCH   3  12
HETATM   12  C   UNL     1     -11.780  12.590  69.855  1.00  0.00    -0.327 A  
HETATM   13  C   UNL     1     -12.362  13.746  70.413  1.00  0.00    -0.423 A  
HETATM   14  C   UNL     1     -13.181  13.694  71.556  1.00  0.00    -0.409 A  
HETATM   15  C   UNL     1     -13.447  12.476  72.175  1.00  0.00    -0.523 A  
HETATM   16  C   UNL     1     -12.055  11.393  70.515  1.00  0.00    -0.487 A  
HETATM   17  C   UNL     1     -11.612  10.020  70.181  1.00  0.00    -0.320 C  
HETATM   18  C   UNL     1     -12.871  11.346  71.638  1.00  0.00    -0.391 A  
HETATM   19  O   UNL     1     -13.070  10.090  72.142  1.00  0.00    -0.433 OA 
HETATM   20  C   UNL     1     -12.298   9.218  71.288  1.00  0.00    -0.328 C  
ENDBRANCH   3  12
TORSDOF 5
ENDMDL
MODEL       28
REMARK 921   NORMALIZED FREE ENERGY PREDICTED BY IDOCK:   -5.36 KCAL/MOL
REMARK 922        TOTAL FREE ENERGY PREDICTED BY IDOCK:   -7.61 KCAL/MOL
REMARK 923 INTER-LIGAND FREE ENERGY PREDICTED BY IDOCK:   -7.04 KCAL/MOL
REMARK 924 INTRA-LIGAND FREE ENERGY PREDICTED BY IDOCK:   -0.57 KCAL/MOL
REMARK 927      BINDING AFFINITY PREDICTED BY RF-SCORE:    0.00 PKD
ROOT
HETATM    1  C   UNL     1     -11.771  10.754  69.376  1.00  0.00    -0.378 C  
HETATM    2  C   UNL     1     -10.453  10.032  69.370  1.00  0.00    -0.252 C  
HETATM    3  C   UNL     1     -10.596  11.317  68.594  1.00  0.00    -0.231 C  
ENDROOT
BRANCH   1   4
HETATM    4  C   UNL     1     -12.266  11.501  70.577  1.00  0.00    -0.377 C  
BRANCH   4   5
HETATM    5  N   UNL     1     -12.124  12.934  70.364  1.00  0.00    -0.471 NA 
HETATM    6  H   UNL     1     -11.591  13.286  69.568  1.00  0.00     0.000 HD 
BRANCH   5   7
HETATM    7  C   UNL     1     -12.675  13.753  71.184  1.00  0.00    -0.362 C  
HETATM    8  H   UNL     1     -13.731  14.003  72.920  1.00  0.00     0.000 HD 
HETATM    9  O   UNL     1     -13.322  13.397  72.312  1.00  0.00    -0.486 OA 
BRANCH   7  10
HETATM   10  C   UNL     1     -12.684  15.240  70.974  1.00  0.00    -0.487 C  
HETATM   11  C   UNL     1     -12.045  15.964  72.145  1.00  0.00    -0.596 C  
ENDBRANCH   7  10
ENDBRANCH   5   7
ENDBRANCH   4   5
ENDBRANCH   1   4
BRANCH   3  12
HETATM   12  C   UNL     1     -10.601  11.342  67.084  1.00  0.00    -0.279 A  
HETATM   13  C   UNL     1      -9.997  10.312  66.334  1.00  0.00    -0.287 A  
HETATM   14  C   UNL     1     -10.094  10.253  64.932  1.00  0.00    -0.346 A  
HETATM   15  C   UNL     1     -10.805  11.224  64.234  1.00  0.00    -0.398 A  
HETATM   16  C   UNL     1     -11.288  12.307  66.347  1.00  0.00    -0.405 A  
HETATM   17  C   UNL     1     -12.029  13.495  66.827  1.00  0.00    -0.453 C  
HETATM   18  C   UNL     1     -11.386  12.239  64.963  1.00  0.00    -0.328 A  
HETATM   19  O   UNL     1     -12.125  13.242  64.398  1.00  0.00    -0.384 OA 
HETATM   20  C   UNL     1     -12.542  14.069  65.505  1.00  0.00    -0.516 C  
ENDBRANCH   3  12
TORSDOF 5
ENDMDL
MODEL       29
REMARK 921   NORMALIZED FREE ENERGY PREDICTED BY IDOCK:   -5.36 KCAL/MOL
REMARK 922        TOTAL FREE ENERGY PREDICTED BY IDOCK:   -7.60 KCAL/MOL
REMARK 923 INTER-LIGAND FREE ENERGY PREDICTED BY IDOCK:   -7.14 KCAL/MOL
REMARK 924 INTRA-LIGAND FREE ENERGY PREDICTED BY IDOCK:   -0.46 KCAL/MOL
REMARK 927      BINDING AFFINITY PREDICTED BY RF-SCORE:    0.00 PKD
ROOT
HETATM    1  C   UNL     1     -11.312  10.365  68.638  1.00  0.00    -0.277 C  
HETATM    2  C   UNL     1      -9.960   9.776  68.345  1.00  0.00    -0.176 C  
HETATM    3  C   UNL     1     -10.297  11.150  67.823  1.00  0.00    -0.215 C  
ENDROOT
BRANCH   1   4
HETATM    4  C   UNL     1     -11.687  10.863  70.000  1.00  0.00    -0.345 C  
BRANCH   4   5
HETATM    5  N   UNL     1     -12.935  10.249  70.429  1.00  0.00    -0.554 NA 
HETATM    6  H   UNL     1     -13.807  10.463  69.944  1.00  0.00     0.000 HD 
BRANCH   5   7
HETATM    7  C   UNL     1     -12.932   9.435  71.421  1.00  0.00    -0.346 C  
HETATM    8  H   UNL     1     -11.824   8.410  72.804  1.00  0.00     0.000 HD 
HETATM    9  O   UNL     1     -11.827   9.013  72.069  1.00  0.00    -0.358 OA 
BRANCH   7  10
HETATM   10  C   UNL     1     -14.183   8.824  71.983  1.00  0.00    -0.493 C  
HETATM   11  C   UNL     1     -14.277   7.349  71.638  1.00  0.00    -0.583 C  
ENDBRANCH   7  10
ENDBRANCH   5   7
ENDBRANCH   4   5
ENDBRANCH   1   4
BRANCH   3  12
HETATM   12  C   UNL     1     -10.512  11.414  66.352  1.00  0.00    -0.299 A  
HETATM   13  C   UNL     1      -9.970  10.560  65.369  1.00  0.00    -0.353 A  
HETATM   14  C   UNL     1     -10.256  10.718  64.001  1.00  0.00    -0.390 A  
HETATM   15  C   UNL     1     -11.102  11.736  63.572  1.00  0.00    -0.503 A  
HETATM   16  C   UNL     1     -11.339  12.434  65.880  1.00  0.00    -0.399 A  
HETATM   17  C   UNL     1     -12.062  13.476  66.643  1.00  0.00    -0.447 C  
HETATM   18  C   UNL     1     -11.624  12.580  64.528  1.00  0.00    -0.348 A  
HETATM   19  O   UNL     1     -12.481  13.606  64.238  1.00  0.00    -0.613 OA 
HETATM   20  C   UNL     1     -12.779  14.215  65.512  1.00  0.00    -0.443 C  
ENDBRANCH   3  12
TORSDOF 5
ENDMDL
MODEL       30
REMARK 921   NORMALIZED FREE ENERGY PREDICTED BY IDOCK:   -5.35 KCAL/MOL
REMARK 922        TOTAL FREE ENERGY PREDICTED BY IDOCK:   -7.59 KCAL/MOL
REMARK 923 INTER-LIGAND FREE ENERGY PREDICTED BY IDOCK:   -7.11 KCAL/MOL
REMARK 924 INTRA-LIGAND FREE ENERGY PREDICTED BY IDOCK:   -0.48 KCAL/MOL
REMARK 927      BINDING AFFINITY PREDICTED BY RF-SCORE:    0.00 PKD
ROOT
HETATM    1  C   UNL     1     -10.893  13.734  67.545  1.00  0.00    -0.274 C  
HETATM    2  C   UNL     1     -11.585  14.978  68.025  1.00  0.00    -0.356 C  
HETATM    3  C   UNL     1     -10.981  14.033  69.032  1.00  0.00    -0.287 C  
ENDROOT
BRANCH   1   4
HETATM    4  C   UNL     1      -9.551  13.775  66.878  1.00  0.00    -0.262 C  
BRANCH   4   5
HETATM    5  N   UNL     1      -9.283  12.504  66.221  1.00  0.00    -0.388 NA 
HETATM    6  H   UNL     1      -8.577  11.870  66.596  1.00  0.00     0.000 HD 
BRANCH   5   7
HETATM    7  C   UNL     1      -9.942  12.185  65.167  1.00  0.00    -0.228 C  
HETATM    8  H   UNL     1     -10.911  12.826  63.482  1.00  0.00     0.000 HD 
HETATM    9  O   UNL     1     -10.423  13.062  64.263  1.00  0.00    -0.395 OA 
BRANCH   7  10
HETATM   10  C   UNL     1     -10.282  10.766  64.812  1.00  0.00    -0.403 C  
HETATM   11  C   UNL     1     -10.347   9.891  66.050  1.00  0.00    -0.202 C  
ENDBRANCH   7  10
ENDBRANCH   5   7
ENDBRANCH   4   5
ENDBRANCH   1   4
BRANCH   3  12
HETATM   12  C   UNL     1     -11.835  13.190  69.950  1.00  0.00    -0.378 A  
HETATM   13  C   UNL     1     -11.761  11.783  69.928  1.00  0.00    -0.399 A  
HETATM   14  C   UNL     1     -12.457  10.983  70.854  1.00  0.00    -0.509 A  
HETATM   15  C   UNL     1     -13.247  11.571  71.837  1.00  0.00    -0.479 A  
HETATM   16  C   UNL     1     -12.653  13.740  70.937  1.00  0.00    -0.428 A  
HETATM   17  C   UNL     1     -12.932  15.164  71.230  1.00  0.00    -0.478 C  
HETATM   18  C   UNL     1     -13.331  12.946  71.853  1.00  0.00    -0.435 A  
HETATM   19  O   UNL     1     -14.059  13.644  72.778  1.00  0.00    -0.711 OA 
HETATM   20  C   UNL     1     -13.866  15.033  72.435  1.00  0.00    -0.493 C  
ENDBRANCH   3  12
TORSDOF 5
ENDMDL
MODEL       31
REMARK 921   NORMALIZED FREE ENERGY PREDICTED BY IDOCK:   -5.29 KCAL/MOL
REMARK 922        TOTAL FREE ENERGY PREDICTED BY IDOCK:   -7.51 KCAL/MOL
REMARK 923 INTER-LIGAND FREE ENERGY PREDICTED BY IDOCK:   -6.92 KCAL/MOL
REMARK 924 INTRA-LIGAND FREE ENERGY PREDICTED BY IDOCK:   -0.59 KCAL/MOL
REMARK 927      BINDING AFFINITY PREDICTED BY RF-SCORE:    0.00 PKD
ROOT
HETATM    1  C   UNL     1     -11.557   8.984  71.774  1.00  0.00    -0.444 C  
HETATM    2  C   UNL     1     -13.006   8.848  72.149  1.00  0.00    -0.473 C  
HETATM    3  C   UNL     1     -12.624   9.717  70.978  1.00  0.00    -0.406 C  
ENDROOT
BRANCH   1   4
HETATM    4  C   UNL     1     -10.797   7.874  71.113  1.00  0.00    -0.234 C  
BRANCH   4   5
HETATM    5  N   UNL     1     -11.589   7.304  70.033  1.00  0.00    -0.510 NA 
HETATM    6  H   UNL     1     -12.541   7.629  69.866  1.00  0.00     0.000 HD 
BRANCH   5   7
HETATM    7  C   UNL     1     -11.080   6.388  69.291  1.00  0.00    -0.373 C  
HETATM    8  H   UNL     1     -10.065   4.614  69.197  1.00  0.00     0.000 HD 
HETATM    9  O   UNL     1     -10.442   5.291  69.747  1.00  0.00    -0.291 OA 
BRANCH   7  10
HETATM   10  C   UNL     1     -11.116   6.437  67.791  1.00  0.00    -0.376 C  
HETATM   11  C   UNL     1     -10.287   7.591  67.258  1.00  0.00    -0.366 C  
ENDBRANCH   7  10
ENDBRANCH   5   7
ENDBRANCH   4   5
ENDBRANCH   1   4
BRANCH   3  12
HETATM   12  C   UNL     1     -12.741  11.222  71.028  1.00  0.00    -0.457 A  
HETATM   13  C   UNL     1     -13.419  11.867  72.082  1.00  0.00    -0.300 A  
HETATM   14  C   UNL     1     -13.437  13.268  72.213  1.00  0.00    -0.679 A  
HETATM   15  C   UNL     1     -12.770  14.069  71.292  1.00  0.00    -0.439 A  
HETATM   16  C   UNL     1     -12.101  12.061  70.115  1.00  0.00    -0.377 A  
HETATM   17  C   UNL     1     -11.305  11.703  68.919  1.00  0.00    -0.328 C  
HETATM   18  C   UNL     1     -12.116  13.443  70.253  1.00  0.00    -0.349 A  
HETATM   19  O   UNL     1     -11.410  14.116  69.295  1.00  0.00    -0.257 OA 
HETATM   20  C   UNL     1     -10.893  13.089  68.422  1.00  0.00    -0.258 C  
ENDBRANCH   3  12
TORSDOF 5
ENDMDL
MODEL       32
REMARK 921   NORMALIZED FREE ENERGY PREDICTED BY IDOCK:   -5.29 KCAL/MOL
REMARK 922        TOTAL FREE ENERGY PREDICTED BY IDOCK:   -7.51 KCAL/MOL
REMARK 923 INTER-LIGAND FREE ENERGY PREDICTED BY IDOCK:   -6.63 KCAL/MOL
REMARK 924 INTRA-LIGAND FREE ENERGY PREDICTED BY IDOCK:   -0.88 KCAL/MOL
REMARK 927      BINDING AFFINITY PREDICTED BY RF-SCORE:    0.00 PKD
ROOT
HETATM    1  C   UNL     1     -11.721  10.452  71.316  1.00  0.00    -0.320 C  
HETATM    2  C   UNL     1     -13.184  10.242  71.588  1.00  0.00    -0.509 C  
HETATM    3  C   UNL     1     -12.758  11.330  70.636  1.00  0.00    -0.314 C  
ENDROOT
BRANCH   1   4
HETATM    4  C   UNL     1     -10.920   9.499  70.481  1.00  0.00    -0.288 C  
BRANCH   4   5
HETATM    5  N   UNL     1      -9.734  10.166  69.966  1.00  0.00    -0.404 NA 
HETATM    6  H   UNL     1      -8.890  10.227  70.535  1.00  0.00     0.000 HD 
BRANCH   5   7
HETATM    7  C   UNL     1      -9.756  10.677  68.789  1.00  0.00    -0.189 C  
HETATM    8  H   UNL     1      -8.942  12.024  67.480  1.00  0.00     0.000 HD 
HETATM    9  O   UNL     1      -8.926  11.645  68.352  1.00  0.00    -0.176 OA 
BRANCH   7  10
HETATM   10  C   UNL     1     -10.745  10.265  67.737  1.00  0.00    -0.324 C  
HETATM   11  C   UNL     1     -10.577  11.088  66.473  1.00  0.00    -0.310 C  
ENDBRANCH   7  10
ENDBRANCH   5   7
ENDBRANCH   4   5
ENDBRANCH   1   4
BRANCH   3  12
HETATM   12  C   UNL     1     -12.893  12.794  70.984  1.00  0.00    -0.262 A  
HETATM   13  C   UNL     1     -13.443  13.204  72.216  1.00  0.00    -0.665 A  
HETATM   14  C   UNL     1     -13.467  14.554  72.611  1.00  0.00    -0.590 A  
HETATM   15  C   UNL     1     -12.936  15.539  71.784  1.00  0.00    -0.528 A  
HETATM   16  C   UNL     1     -12.388  13.812  70.176  1.00  0.00    -0.390 A  
HETATM   17  C   UNL     1     -11.744  13.715  68.847  1.00  0.00    -0.377 C  
HETATM   18  C   UNL     1     -12.408  15.143  70.574  1.00  0.00    -0.358 A  
HETATM   19  O   UNL     1     -11.840  16.011  69.682  1.00  0.00    -0.312 OA 
HETATM   20  C   UNL     1     -11.420  15.185  68.575  1.00  0.00    -0.320 C  
ENDBRANCH   3  12
TORSDOF 5
ENDMDL
MODEL       33
REMARK 921   NORMALIZED FREE ENERGY PREDICTED BY IDOCK:   -5.28 KCAL/MOL
REMARK 922        TOTAL FREE ENERGY PREDICTED BY IDOCK:   -7.50 KCAL/MOL
REMARK 923 INTER-LIGAND FREE ENERGY PREDICTED BY IDOCK:   -6.84 KCAL/MOL
REMARK 924 INTRA-LIGAND FREE ENERGY PREDICTED BY IDOCK:   -0.66 KCAL/MOL
REMARK 927      BINDING AFFINITY PREDICTED BY RF-SCORE:    0.00 PKD
ROOT
HETATM    1  C   UNL     1     -11.751   9.595  71.300  1.00  0.00    -0.458 C  
HETATM    2  C   UNL     1     -13.135   9.468  71.873  1.00  0.00    -0.517 C  
HETATM    3  C   UNL     1     -12.878  10.473  70.779  1.00  0.00    -0.454 C  
ENDROOT
BRANCH   1   4
HETATM    4  C   UNL     1     -11.166   8.556  70.392  1.00  0.00    -0.211 C  
BRANCH   4   5
HETATM    5  N   UNL     1     -11.948   7.331  70.470  1.00  0.00    -0.531 NA 
HETATM    6  H   UNL     1     -12.917   7.318  70.152  1.00  0.00     0.000 HD 
BRANCH   5   7
HETATM    7  C   UNL     1     -11.408   6.266  70.940  1.00  0.00    -0.325 C  
HETATM    8  H   UNL     1     -10.282   4.598  70.570  1.00  0.00     0.000 HD 
HETATM    9  O   UNL     1     -10.681   5.387  70.222  1.00  0.00    -0.285 OA 
BRANCH   7  10
HETATM   10  C   UNL     1     -11.540   5.847  72.376  1.00  0.00    -0.341 C  
HETATM   11  C   UNL     1     -10.516   6.549  73.249  1.00  0.00    -0.280 C  
ENDBRANCH   7  10
ENDBRANCH   5   7
ENDBRANCH   4   5
ENDBRANCH   1   4
BRANCH   3  12
HETATM   12  C   UNL     1     -12.894  11.961  71.040  1.00  0.00    -0.291 A  
HETATM   13  C   UNL     1     -13.470  12.489  72.214  1.00  0.00    -0.490 A  
HETATM   14  C   UNL     1     -13.391  13.857  72.535  1.00  0.00    -0.656 A  
HETATM   15  C   UNL     1     -12.726  14.740  71.690  1.00  0.00    -0.399 A  
HETATM   16  C   UNL     1     -12.254  12.881  70.210  1.00  0.00    -0.362 A  
HETATM   17  C   UNL     1     -11.550  12.649  68.929  1.00  0.00    -0.363 C  
HETATM   18  C   UNL     1     -12.172  14.229  70.536  1.00  0.00    -0.356 A  
HETATM   19  O   UNL     1     -11.479  14.989  69.635  1.00  0.00    -0.260 OA 
HETATM   20  C   UNL     1     -11.078  14.066  68.599  1.00  0.00    -0.264 C  
ENDBRANCH   3  12
TORSDOF 5
ENDMDL
MODEL       34
REMARK 921   NORMALIZED FREE ENERGY PREDICTED BY IDOCK:   -5.25 KCAL/MOL
REMARK 922        TOTAL FREE ENERGY PREDICTED BY IDOCK:   -7.45 KCAL/MOL
REMARK 923 INTER-LIGAND FREE ENERGY PREDICTED BY IDOCK:   -6.91 KCAL/MOL
REMARK 924 INTRA-LIGAND FREE ENERGY PREDICTED BY IDOCK:   -0.55 KCAL/MOL
REMARK 927      BINDING AFFINITY PREDICTED BY RF-SCORE:    0.00 PKD
ROOT
HETATM    1  C   UNL     1     -11.225  14.310  67.010  1.00  0.00    -0.332 C  
HETATM    2  C   UNL     1     -11.221  14.798  68.432  1.00  0.00    -0.298 C  
HETATM    3  C   UNL     1     -11.033  15.788  67.310  1.00  0.00    -0.259 C  
ENDROOT
BRANCH   1   4
HETATM    4  C   UNL     1     -12.482  13.870  66.322  1.00  0.00    -0.409 C  
BRANCH   4   5
HETATM    5  N   UNL     1     -12.220  12.685  65.519  1.00  0.00    -0.564 NA 
HETATM    6  H   UNL     1     -12.203  11.762  65.953  1.00  0.00     0.000 HD 
BRANCH   5   7
HETATM    7  C   UNL     1     -12.010  12.809  64.259  1.00  0.00    -0.405 C  
HETATM    8  H   UNL     1     -12.417  13.840  62.538  1.00  0.00     0.000 HD 
HETATM    9  O   UNL     1     -12.572  13.748  63.471  1.00  0.00    -0.814 OA 
BRANCH   7  10
HETATM   10  C   UNL     1     -11.109  11.891  63.485  1.00  0.00    -0.506 C  
HETATM   11  C   UNL     1     -10.446  10.875  64.397  1.00  0.00    -0.403 C  
ENDBRANCH   7  10
ENDBRANCH   5   7
ENDBRANCH   4   5
ENDBRANCH   1   4
BRANCH   3  12
HETATM   12  C   UNL     1      -9.709  16.471  67.061  1.00  0.00    -0.255 A  
HETATM   13  C   UNL     1      -8.516  15.729  66.944  1.00  0.00    -0.281 A  
HETATM   14  C   UNL     1      -7.293  16.331  66.594  1.00  0.00    -0.204 A  
HETATM   15  C   UNL     1      -7.228  17.698  66.343  1.00  0.00    -0.319 A  
HETATM   16  C   UNL     1      -9.599  17.840  66.821  1.00  0.00    -0.301 A  
HETATM   17  C   UNL     1     -10.652  18.880  66.851  1.00  0.00    -0.495 C  
HETATM   18  C   UNL     1      -8.391  18.427  66.468  1.00  0.00    -0.272 A  
HETATM   19  O   UNL     1      -8.462  19.773  66.231  1.00  0.00    -0.346 OA 
HETATM   20  C   UNL     1      -9.843  20.121  66.469  1.00  0.00    -0.446 C  
ENDBRANCH   3  12
TORSDOF 5
ENDMDL
MODEL       35
REMARK 921   NORMALIZED FREE ENERGY PREDICTED BY IDOCK:   -5.24 KCAL/MOL
REMARK 922        TOTAL FREE ENERGY PREDICTED BY IDOCK:   -7.44 KCAL/MOL
REMARK 923 INTER-LIGAND FREE ENERGY PREDICTED BY IDOCK:   -6.85 KCAL/MOL
REMARK 924 INTRA-LIGAND FREE ENERGY PREDICTED BY IDOCK:   -0.59 KCAL/MOL
REMARK 927      BINDING AFFINITY PREDICTED BY RF-SCORE:    0.00 PKD
ROOT
HETATM    1  C   UNL     1     -13.061  12.088  70.906  1.00  0.00     0.079 C  
HETATM    2  C   UNL     1     -12.784  10.635  70.640  1.00  0.00    -0.445 C  
HETATM    3  C   UNL     1     -11.749  11.666  70.266  1.00  0.00    -0.355 C  
ENDROOT
BRANCH   1   4
HETATM    4  C   UNL     1     -13.037  12.664  72.290  1.00  0.00    -0.261 C  
BRANCH   4   5
HETATM    5  N   UNL     1     -14.160  13.572  72.470  1.00  0.00    -0.758 NA 
HETATM    6  H   UNL     1     -15.055  13.222  72.812  1.00  0.00     0.000 HD 
BRANCH   5   7
HETATM    7  C   UNL     1     -14.017  14.818  72.197  1.00  0.00    -0.490 C  
HETATM    8  H   UNL     1     -14.237  16.315  70.819  1.00  0.00     0.000 HD 
HETATM    9  O   UNL     1     -14.343  15.393  71.022  1.00  0.00    -0.447 OA 
BRANCH   7  10
HETATM   10  C   UNL     1     -13.436  15.807  73.166  1.00  0.00    -0.652 C  
HETATM   11  C   UNL     1     -11.969  16.064  72.877  1.00  0.00    -0.611 C  
ENDBRANCH   7  10
ENDBRANCH   5   7
ENDBRANCH   4   5
ENDBRANCH   1   4
BRANCH   3  12
HETATM   12  C   UNL     1     -11.439  12.000  68.826  1.00  0.00    -0.355 A  
HETATM   13  C   UNL     1     -11.272  10.986  67.860  1.00  0.00    -0.375 A  
HETATM   14  C   UNL     1     -11.102  11.275  66.494  1.00  0.00    -0.280 A  
HETATM   15  C   UNL     1     -11.100  12.593  66.049  1.00  0.00    -0.321 A  
HETATM   16  C   UNL     1     -11.412  13.308  68.343  1.00  0.00    -0.349 A  
HETATM   17  C   UNL     1     -11.567  14.580  69.084  1.00  0.00    -0.331 C  
HETATM   18  C   UNL     1     -11.252  13.587  66.991  1.00  0.00    -0.312 A  
HETATM   19  O   UNL     1     -11.285  14.919  66.680  1.00  0.00    -0.341 OA 
HETATM   20  C   UNL     1     -11.463  15.593  67.944  1.00  0.00    -0.251 C  
ENDBRANCH   3  12
TORSDOF 5
ENDMDL
MODEL       36
REMARK 921   NORMALIZED FREE ENERGY PREDICTED BY IDOCK:   -5.22 KCAL/MOL
REMARK 922        TOTAL FREE ENERGY PREDICTED BY IDOCK:   -7.42 KCAL/MOL
REMARK 923 INTER-LIGAND FREE ENERGY PREDICTED BY IDOCK:   -6.78 KCAL/MOL
REMARK 924 INTRA-LIGAND FREE ENERGY PREDICTED BY IDOCK:   -0.64 KCAL/MOL
REMARK 927      BINDING AFFINITY PREDICTED BY RF-SCORE:    0.00 PKD
ROOT
HETATM    1  C   UNL     1     -10.859  12.767  68.784  1.00  0.00    -0.270 C  
HETATM    2  C   UNL     1      -9.651  12.224  68.073  1.00  0.00    -0.206 C  
HETATM    3  C   UNL     1     -10.733  11.275  68.523  1.00  0.00    -0.235 C  
ENDROOT
BRANCH   1   4
HETATM    4  C   UNL     1     -11.926  13.539  68.069  1.00  0.00    -0.337 C  
BRANCH   4   5
HETATM    5  N   UNL     1     -11.477  13.883  66.728  1.00  0.00    -0.336 NA 
HETATM    6  H   UNL     1     -10.639  14.450  66.595  1.00  0.00     0.000 HD 
BRANCH   5   7
HETATM    7  C   UNL     1     -12.141  13.466  65.712  1.00  0.00    -0.436 C  
HETATM    8  H   UNL     1     -13.732  13.757  64.457  1.00  0.00     0.000 HD 
HETATM    9  O   UNL     1     -13.239  14.065  65.209  1.00  0.00    -0.782 OA 
BRANCH   7  10
HETATM   10  C   UNL     1     -11.781  12.221  64.953  1.00  0.00    -0.409 C  
HETATM   11  C   UNL     1     -12.508  12.160  63.622  1.00  0.00    -0.658 C  
ENDBRANCH   7  10
ENDBRANCH   5   7
ENDBRANCH   4   5
ENDBRANCH   1   4
BRANCH   3  12
HETATM   12  C   UNL     1     -10.518  10.299  69.655  1.00  0.00    -0.286 A  
HETATM   13  C   UNL     1      -9.247   9.745  69.910  1.00  0.00    -0.263 A  
HETATM   14  C   UNL     1      -8.998   8.929  71.030  1.00  0.00    -0.298 A  
HETATM   15  C   UNL     1     -10.016   8.646  71.934  1.00  0.00    -0.392 A  
HETATM   16  C   UNL     1     -11.516   9.976  70.574  1.00  0.00    -0.407 A  
HETATM   17  C   UNL     1     -12.935  10.399  70.598  1.00  0.00    -0.357 C  
HETATM   18  C   UNL     1     -11.263   9.176  71.681  1.00  0.00    -0.377 A  
HETATM   19  O   UNL     1     -12.340   8.987  72.503  1.00  0.00    -0.320 OA 
HETATM   20  C   UNL     1     -13.420   9.711  71.874  1.00  0.00    -0.413 C  
ENDBRANCH   3  12
TORSDOF 5
ENDMDL
MODEL       37
REMARK 921   NORMALIZED FREE ENERGY PREDICTED BY IDOCK:   -5.20 KCAL/MOL
REMARK 922        TOTAL FREE ENERGY PREDICTED BY IDOCK:   -7.40 KCAL/MOL
REMARK 923 INTER-LIGAND FREE ENERGY PREDICTED BY IDOCK:   -6.53 KCAL/MOL
REMARK 924 INTRA-LIGAND FREE ENERGY PREDICTED BY IDOCK:   -0.86 KCAL/MOL
REMARK 927      BINDING AFFINITY PREDICTED BY RF-SCORE:    0.00 PKD
ROOT
HETATM    1  C   UNL     1     -11.505  13.587  64.154  1.00  0.00    -0.394 C  
HETATM    2  C   UNL     1     -12.214  12.470  63.441  1.00  0.00    -0.613 C  
HETATM    3  C   UNL     1     -12.023  12.391  64.935  1.00  0.00    -0.458 C  
ENDROOT
BRANCH   1   4
HETATM    4  C   UNL     1     -12.144  14.925  64.373  1.00  0.00    -0.401 C  
BRANCH   4   5
HETATM    5  N   UNL     1     -11.121  15.958  64.449  1.00  0.00    -0.908 NA 
HETATM    6  H   UNL     1     -10.984  16.604  63.672  1.00  0.00     0.000 HD 
BRANCH   5   7
HETATM    7  C   UNL     1     -10.394  16.051  65.503  1.00  0.00    -0.390 C  
HETATM    8  H   UNL     1      -8.685  16.786  66.356  1.00  0.00     0.000 HD 
HETATM    9  O   UNL     1      -9.224  16.718  65.577  1.00  0.00    -0.443 OA 
BRANCH   7  10
HETATM   10  C   UNL     1     -10.754  15.398  66.806  1.00  0.00    -0.310 C  
HETATM   11  C   UNL     1      -9.550  14.719  67.432  1.00  0.00    -0.210 C  
ENDBRANCH   7  10
ENDBRANCH   5   7
ENDBRANCH   4   5
ENDBRANCH   1   4
BRANCH   3  12
HETATM   12  C   UNL     1     -11.074  11.400  65.567  1.00  0.00    -0.203 A  
HETATM   13  C   UNL     1     -10.209  10.613  64.780  1.00  0.00    -0.401 A  
HETATM   14  C   UNL     1      -9.235   9.773  65.352  1.00  0.00    -0.282 A  
HETATM   15  C   UNL     1      -9.093   9.699  66.734  1.00  0.00    -0.171 A  
HETATM   16  C   UNL     1     -10.914  11.283  66.948  1.00  0.00    -0.348 A  
HETATM   17  C   UNL     1     -11.646  11.973  68.034  1.00  0.00    -0.407 C  
HETATM   18  C   UNL     1      -9.945  10.459  67.506  1.00  0.00    -0.181 A  
HETATM   19  O   UNL     1      -9.896  10.488  68.873  1.00  0.00    -0.183 OA 
HETATM   20  C   UNL     1     -10.942  11.401  69.265  1.00  0.00    -0.229 C  
ENDBRANCH   3  12
TORSDOF 5
ENDMDL
MODEL       38
REMARK 921   NORMALIZED FREE ENERGY PREDICTED BY IDOCK:   -5.19 KCAL/MOL
REMARK 922        TOTAL FREE ENERGY PREDICTED BY IDOCK:   -7.38 KCAL/MOL
REMARK 923 INTER-LIGAND FREE ENERGY PREDICTED BY IDOCK:   -6.91 KCAL/MOL
REMARK 924 INTRA-LIGAND FREE ENERGY PREDICTED BY IDOCK:   -0.47 KCAL/MOL
REMARK 927      BINDING AFFINITY PREDICTED BY RF-SCORE:    0.00 PKD
ROOT
HETATM    1  C   UNL     1     -11.514  15.435  68.022  1.00  0.00    -0.333 C  
HETATM    2  C   UNL     1     -10.769  15.078  66.767  1.00  0.00    -0.308 C  
HETATM    3  C   UNL     1     -10.114  15.976  67.785  1.00  0.00    -0.243 C  
ENDROOT
BRANCH   1   4
HETATM    4  C   UNL     1     -11.730  14.448  69.129  1.00  0.00    -0.317 C  
BRANCH   4   5
HETATM    5  N   UNL     1     -12.831  14.882  69.975  1.00  0.00    -0.601 NA 
HETATM    6  H   UNL     1     -13.793  14.647  69.729  1.00  0.00     0.000 HD 
BRANCH   5   7
HETATM    7  C   UNL     1     -12.584  15.563  71.035  1.00  0.00    -0.454 C  
HETATM    8  H   UNL     1     -11.361  16.910  71.970  1.00  0.00     0.000 HD 
HETATM    9  O   UNL     1     -11.544  16.407  71.186  1.00  0.00    -0.400 OA 
BRANCH   7  10
HETATM   10  C   UNL     1     -13.432  15.487  72.272  1.00  0.00    -0.596 C  
HETATM   11  C   UNL     1     -12.682  14.822  73.412  1.00  0.00    -0.588 C  
ENDBRANCH   7  10
ENDBRANCH   5   7
ENDBRANCH   4   5
ENDBRANCH   1   4
BRANCH   3  12
HETATM   12  C   UNL     1      -9.878  17.444  67.521  1.00  0.00    -0.277 A  
HETATM   13  C   UNL     1     -10.748  18.428  68.034  1.00  0.00    -0.277 A  
HETATM   14  C   UNL     1     -10.482  19.803  67.903  1.00  0.00    -0.531 A  
HETATM   15  C   UNL     1      -9.330  20.238  67.255  1.00  0.00    -0.538 A  
HETATM   16  C   UNL     1      -8.744  17.921  66.862  1.00  0.00    -0.258 A  
HETATM   17  C   UNL     1      -7.644  17.159  66.229  1.00  0.00    -0.352 C  
HETATM   18  C   UNL     1      -8.483  19.280  66.742  1.00  0.00    -0.305 A  
HETATM   19  O   UNL     1      -7.312  19.578  66.101  1.00  0.00    -0.251 OA 
HETATM   20  C   UNL     1      -6.748  18.298  65.741  1.00  0.00    -0.282 C  
ENDBRANCH   3  12
TORSDOF 5
ENDMDL
MODEL       39
REMARK 921   NORMALIZED FREE ENERGY PREDICTED BY IDOCK:   -5.19 KCAL/MOL
REMARK 922        TOTAL FREE ENERGY PREDICTED BY IDOCK:   -7.38 KCAL/MOL
REMARK 923 INTER-LIGAND FREE ENERGY PREDICTED BY IDOCK:   -6.79 KCAL/MOL
REMARK 924 INTRA-LIGAND FREE ENERGY PREDICTED BY IDOCK:   -0.59 KCAL/MOL
REMARK 927      BINDING AFFINITY PREDICTED BY RF-SCORE:    0.00 PKD
ROOT
HETATM    1  C   UNL     1     -11.153  10.209  70.736  1.00  0.00    -0.372 C  
HETATM    2  C   UNL     1     -12.439   9.755  71.366  1.00  0.00    -0.482 C  
HETATM    3  C   UNL     1     -12.456  10.919  70.408  1.00  0.00    -0.411 C  
ENDROOT
BRANCH   1   4
HETATM    4  C   UNL     1     -10.470   9.419  69.661  1.00  0.00    -0.223 C  
BRANCH   4   5
HETATM    5  N   UNL     1     -11.037   9.752  68.362  1.00  0.00    -0.473 NA 
HETATM    6  H   UNL     1     -11.832  10.387  68.296  1.00  0.00     0.000 HD 
BRANCH   5   7
HETATM    7  C   UNL     1     -10.529   9.240  67.301  1.00  0.00    -0.264 C  
HETATM    8  H   UNL     1     -10.098   9.473  65.314  1.00  0.00     0.000 HD 
HETATM    9  O   UNL     1     -10.474   9.851  66.100  1.00  0.00    -0.183 OA 
BRANCH   7  10
HETATM   10  C   UNL     1      -9.938   7.860  67.259  1.00  0.00    -0.280 C  
HETATM   11  C   UNL     1     -11.013   6.808  67.059  1.00  0.00    -0.439 C  
ENDBRANCH   7  10
ENDBRANCH   5   7
ENDBRANCH   4   5
ENDBRANCH   1   4
BRANCH   3  12
HETATM   12  C   UNL     1     -12.714  12.333  70.872  1.00  0.00    -0.277 A  
HETATM   13  C   UNL     1     -13.316  12.593  72.120  1.00  0.00    -0.570 A  
HETATM   14  C   UNL     1     -13.457  13.899  72.625  1.00  0.00    -0.652 A  
HETATM   15  C   UNL     1     -12.992  14.989  71.895  1.00  0.00    -0.429 A  
HETATM   16  C   UNL     1     -12.279  13.453  70.163  1.00  0.00    -0.385 A  
HETATM   17  C   UNL     1     -11.607  13.519  68.846  1.00  0.00    -0.364 C  
HETATM   18  C   UNL     1     -12.414  14.739  70.670  1.00  0.00    -0.345 A  
HETATM   19  O   UNL     1     -11.903  15.721  69.866  1.00  0.00    -0.342 OA 
HETATM   20  C   UNL     1     -11.398  15.027  68.704  1.00  0.00    -0.296 C  
ENDBRANCH   3  12
TORSDOF 5
ENDMDL
MODEL       40
REMARK 921   NORMALIZED FREE ENERGY PREDICTED BY IDOCK:   -5.16 KCAL/MOL
REMARK 922        TOTAL FREE ENERGY PREDICTED BY IDOCK:   -7.34 KCAL/MOL
REMARK 923 INTER-LIGAND FREE ENERGY PREDICTED BY IDOCK:   -6.41 KCAL/MOL
REMARK 924 INTRA-LIGAND FREE ENERGY PREDICTED BY IDOCK:   -0.93 KCAL/MOL
REMARK 927      BINDING AFFINITY PREDICTED BY RF-SCORE:    0.00 PKD
ROOT
HETATM    1  C   UNL     1     -11.547  15.279  67.970  1.00  0.00    -0.325 C  
HETATM    2  C   UNL     1     -11.726  13.940  68.628  1.00  0.00    -0.396 C  
HETATM    3  C   UNL     1     -10.819  14.059  67.429  1.00  0.00    -0.288 C  
ENDROOT
BRANCH   1   4
HETATM    4  C   UNL     1     -10.747  16.377  68.602  1.00  0.00    -0.317 C  
BRANCH   4   5
HETATM    5  N   UNL     1     -10.784  17.566  67.763  1.00  0.00    -0.372 NA 
HETATM    6  H   UNL     1     -11.330  18.380  68.048  1.00  0.00     0.000 HD 
BRANCH   5   7
HETATM    7  C   UNL     1     -10.126  17.584  66.661  1.00  0.00    -0.328 C  
HETATM    8  H   UNL     1     -10.191  17.582  64.616  1.00  0.00     0.000 HD 
HETATM    9  O   UNL     1     -10.678  17.569  65.431  1.00  0.00    -0.612 OA 
BRANCH   7  10
HETATM   10  C   UNL     1      -8.625  17.606  66.605  1.00  0.00    -0.282 C  
HETATM   11  C   UNL     1      -8.069  16.239  66.250  1.00  0.00    -0.267 C  
ENDBRANCH   7  10
ENDBRANCH   5   7
ENDBRANCH   4   5
ENDBRANCH   1   4
BRANCH   3  12
HETATM   12  C   UNL     1     -11.182  13.462  66.090  1.00  0.00    -0.311 A  
HETATM   13  C   UNL     1     -11.947  14.184  65.151  1.00  0.00    -0.390 A  
HETATM   14  C   UNL     1     -12.194  13.696  63.855  1.00  0.00    -0.429 A  
HETATM   15  C   UNL     1     -11.678  12.467  63.456  1.00  0.00    -0.595 A  
HETATM   16  C   UNL     1     -10.699  12.226  65.658  1.00  0.00    -0.302 A  
HETATM   17  C   UNL     1      -9.867  11.243  66.388  1.00  0.00    -0.243 C  
HETATM   18  C   UNL     1     -10.940  11.753  64.375  1.00  0.00    -0.339 A  
HETATM   19  O   UNL     1     -10.365  10.543  64.099  1.00  0.00    -0.313 OA 
HETATM   20  C   UNL     1      -9.694  10.163  65.320  1.00  0.00    -0.300 C  
ENDBRANCH   3  12
TORSDOF 5
ENDMDL
MODEL       41
REMARK 921   NORMALIZED FREE ENERGY PREDICTED BY IDOCK:   -5.16 KCAL/MOL
REMARK 922        TOTAL FREE ENERGY PREDICTED BY IDOCK:   -7.34 KCAL/MOL
REMARK 923 INTER-LIGAND FREE ENERGY PREDICTED BY IDOCK:   -6.88 KCAL/MOL
REMARK 924 INTRA-LIGAND FREE ENERGY PREDICTED BY IDOCK:   -0.46 KCAL/MOL
REMARK 927      BINDING AFFINITY PREDICTED BY RF-SCORE:    0.00 PKD
ROOT
HETATM    1  C   UNL     1     -11.998  11.763  68.618  1.00  0.00    -0.299 C  
HETATM    2  C   UNL     1     -11.926  12.531  69.908  1.00  0.00    -0.371 C  
HETATM    3  C   UNL     1     -11.214  11.207  69.796  1.00  0.00    -0.318 C  
ENDROOT
BRANCH   1   4
HETATM    4  C   UNL     1     -11.253  12.193  67.391  1.00  0.00    -0.302 C  
BRANCH   4   5
HETATM    5  N   UNL     1     -12.137  12.161  66.236  1.00  0.00    -0.589 NA 
HETATM    6  H   UNL     1     -12.754  11.364  66.082  1.00  0.00     0.000 HD 
BRANCH   5   7
HETATM    7  C   UNL     1     -12.136  13.145  65.411  1.00  0.00    -0.433 C  
HETATM    8  H   UNL     1     -13.188  14.679  64.559  1.00  0.00     0.000 HD 
HETATM    9  O   UNL     1     -13.189  13.951  65.170  1.00  0.00    -0.768 OA 
BRANCH   7  10
HETATM   10  C   UNL     1     -10.940  13.515  64.581  1.00  0.00    -0.395 C  
HETATM   11  C   UNL     1     -10.496  12.355  63.710  1.00  0.00    -0.475 C  
ENDBRANCH   7  10
ENDBRANCH   5   7
ENDBRANCH   4   5
ENDBRANCH   1   4
BRANCH   3  12
HETATM   12  C   UNL     1     -11.685   9.981  70.540  1.00  0.00    -0.400 A  
HETATM   13  C   UNL     1     -12.676  10.069  71.539  1.00  0.00    -0.532 A  
HETATM   14  C   UNL     1     -13.216   8.927  72.160  1.00  0.00    -0.478 A  
HETATM   15  C   UNL     1     -12.781   7.657  71.795  1.00  0.00    -0.356 A  
HETATM   16  C   UNL     1     -11.263   8.691  70.217  1.00  0.00    -0.196 A  
HETATM   17  C   UNL     1     -10.259   8.262  69.217  1.00  0.00    -0.207 C  
HETATM   18  C   UNL     1     -11.804   7.568  70.828  1.00  0.00    -0.228 A  
HETATM   19  O   UNL     1     -11.307   6.379  70.370  1.00  0.00    -0.336 OA 
HETATM   20  C   UNL     1     -10.326   6.743  69.375  1.00  0.00    -0.199 C  
ENDBRANCH   3  12
TORSDOF 5
ENDMDL
MODEL       42
REMARK 921   NORMALIZED FREE ENERGY PREDICTED BY IDOCK:   -5.13 KCAL/MOL
REMARK 922        TOTAL FREE ENERGY PREDICTED BY IDOCK:   -7.31 KCAL/MOL
REMARK 923 INTER-LIGAND FREE ENERGY PREDICTED BY IDOCK:   -6.88 KCAL/MOL
REMARK 924 INTRA-LIGAND FREE ENERGY PREDICTED BY IDOCK:   -0.43 KCAL/MOL
REMARK 927      BINDING AFFINITY PREDICTED BY RF-SCORE:    0.00 PKD
ROOT
HETATM    1  C   UNL     1     -10.579  16.395  69.068  1.00  0.00    -0.308 C  
HETATM    2  C   UNL     1     -10.138  14.982  68.807  1.00  0.00    -0.231 C  
HETATM    3  C   UNL     1     -11.600  15.270  69.041  1.00  0.00    -0.360 C  
ENDROOT
BRANCH   1   4
HETATM    4  C   UNL     1     -10.616  17.432  67.986  1.00  0.00    -0.389 C  
BRANCH   4   5
HETATM    5  N   UNL     1      -9.507  18.361  68.148  1.00  0.00    -0.298 NA 
HETATM    6  H   UNL     1      -9.387  18.870  69.024  1.00  0.00     0.000 HD 
BRANCH   5   7
HETATM    7  C   UNL     1      -8.681  18.533  67.182  1.00  0.00    -0.270 C  
HETATM    8  H   UNL     1      -8.414  18.987  65.204  1.00  0.00     0.000 HD 
HETATM    9  O   UNL     1      -9.025  18.860  65.920  1.00  0.00    -0.455 OA 
BRANCH   7  10
HETATM   10  C   UNL     1      -7.196  18.371  67.336  1.00  0.00    -0.210 C  
HETATM   11  C   UNL     1      -6.748  16.983  66.916  1.00  0.00    -0.252 C  
ENDBRANCH   7  10
ENDBRANCH   5   7
ENDBRANCH   4   5
ENDBRANCH   1   4
BRANCH   3  12
HETATM   12  C   UNL     1     -12.309  14.828  70.299  1.00  0.00    -0.400 A  
HETATM   13  C   UNL     1     -12.957  15.757  71.138  1.00  0.00    -0.421 A  
HETATM   14  C   UNL     1     -13.723  15.356  72.247  1.00  0.00    -0.629 A  
HETATM   15  C   UNL     1     -13.870  14.006  72.549  1.00  0.00    -0.610 A  
HETATM   16  C   UNL     1     -12.464  13.486  70.647  1.00  0.00    -0.405 A  
HETATM   17  C   UNL     1     -11.928  12.280  69.975  1.00  0.00    -0.379 C  
HETATM   18  C   UNL     1     -13.228  13.095  71.739  1.00  0.00    -0.403 A  
HETATM   19  O   UNL     1     -13.309  11.741  71.919  1.00  0.00    -0.448 OA 
HETATM   20  C   UNL     1     -12.506  11.176  70.861  1.00  0.00    -0.409 C  
ENDBRANCH   3  12
TORSDOF 5
ENDMDL
MODEL       43
REMARK 921   NORMALIZED FREE ENERGY PREDICTED BY IDOCK:   -5.13 KCAL/MOL
REMARK 922        TOTAL FREE ENERGY PREDICTED BY IDOCK:   -7.31 KCAL/MOL
REMARK 923 INTER-LIGAND FREE ENERGY PREDICTED BY IDOCK:   -6.65 KCAL/MOL
REMARK 924 INTRA-LIGAND FREE ENERGY PREDICTED BY IDOCK:   -0.66 KCAL/MOL
REMARK 927      BINDING AFFINITY PREDICTED BY RF-SCORE:    0.00 PKD
ROOT
HETATM    1  C   UNL     1     -12.523  12.684  64.991  1.00  0.00    -0.556 C  
HETATM    2  C   UNL     1     -12.651  14.128  65.389  1.00  0.00    -0.485 C  
HETATM    3  C   UNL     1     -11.646  13.253  66.094  1.00  0.00    -0.385 C  
ENDROOT
BRANCH   1   4
HETATM    4  C   UNL     1     -11.883  12.267  63.702  1.00  0.00    -0.522 C  
BRANCH   4   5
HETATM    5  N   UNL     1     -10.462  12.025  63.907  1.00  0.00    -0.362 NA 
HETATM    6  H   UNL     1      -9.825  12.807  64.059  1.00  0.00     0.000 HD 
BRANCH   5   7
HETATM    7  C   UNL     1     -10.017  10.822  63.896  1.00  0.00    -0.343 C  
HETATM    8  H   UNL     1      -9.341   9.246  62.778  1.00  0.00     0.000 HD 
HETATM    9  O   UNL     1      -9.671  10.137  62.787  1.00  0.00    -0.260 OA 
BRANCH   7  10
HETATM   10  C   UNL     1      -9.840  10.003  65.142  1.00  0.00    -0.388 C  
HETATM   11  C   UNL     1      -8.873   8.857  64.913  1.00  0.00    -0.161 C  
ENDBRANCH   7  10
ENDBRANCH   5   7
ENDBRANCH   4   5
ENDBRANCH   1   4
BRANCH   3  12
HETATM   12  C   UNL     1     -11.827  12.829  67.533  1.00  0.00    -0.402 A  
HETATM   13  C   UNL     1     -11.879  11.467  67.892  1.00  0.00    -0.239 A  
HETATM   14  C   UNL     1     -11.926  11.048  69.234  1.00  0.00    -0.410 A  
HETATM   15  C   UNL     1     -11.917  11.985  70.263  1.00  0.00    -0.398 A  
HETATM   16  C   UNL     1     -11.839  13.737  68.592  1.00  0.00    -0.409 A  
HETATM   17  C   UNL     1     -11.783  15.215  68.553  1.00  0.00    -0.347 C  
HETATM   18  C   UNL     1     -11.878  13.318  69.916  1.00  0.00    -0.310 A  
HETATM   19  O   UNL     1     -11.846  14.333  70.832  1.00  0.00    -0.311 OA 
HETATM   20  C   UNL     1     -11.803  15.543  70.047  1.00  0.00    -0.359 C  
ENDBRANCH   3  12
TORSDOF 5
ENDMDL
MODEL       44
REMARK 921   NORMALIZED FREE ENERGY PREDICTED BY IDOCK:   -5.11 KCAL/MOL
REMARK 922        TOTAL FREE ENERGY PREDICTED BY IDOCK:   -7.28 KCAL/MOL
REMARK 923 INTER-LIGAND FREE ENERGY PREDICTED BY IDOCK:   -6.67 KCAL/MOL
REMARK 924 INTRA-LIGAND FREE ENERGY PREDICTED BY IDOCK:   -0.61 KCAL/MOL
REMARK 927      BINDING AFFINITY PREDICTED BY RF-SCORE:    0.00 PKD
ROOT
HETATM    1  C   UNL     1     -11.245  11.011  67.524  1.00  0.00    -0.372 C  
HETATM    2  C   UNL     1     -11.539  12.436  67.146  1.00  0.00    -0.435 C  
HETATM    3  C   UNL     1     -11.042  12.127  68.536  1.00  0.00    -0.295 C  
ENDROOT
BRANCH   1   4
HETATM    4  C   UNL     1     -10.045  10.280  67.004  1.00  0.00    -0.218 C  
BRANCH   4   5
HETATM    5  N   UNL     1     -10.254   9.905  65.613  1.00  0.00    -0.232 NA 
HETATM    6  H   UNL     1     -11.029   9.293  65.356  1.00  0.00     0.000 HD 
BRANCH   5   7
HETATM    7  C   UNL     1      -9.458  10.351  64.711  1.00  0.00    -0.273 C  
HETATM    8  H   UNL     1      -7.523  10.683  64.133  1.00  0.00     0.000 HD 
HETATM    9  O   UNL     1      -8.113  10.353  64.801  1.00  0.00    -0.160 OA 
BRANCH   7  10
HETATM   10  C   UNL     1      -9.937  10.957  63.423  1.00  0.00    -0.414 C  
HETATM   11  C   UNL     1     -11.212  11.754  63.632  1.00  0.00    -0.519 C  
ENDBRANCH   7  10
ENDBRANCH   5   7
ENDBRANCH   4   5
ENDBRANCH   1   4
BRANCH   3  12
HETATM   12  C   UNL     1     -11.933  12.253  69.749  1.00  0.00    -0.365 A  
HETATM   13  C   UNL     1     -12.369  11.114  70.457  1.00  0.00    -0.454 A  
HETATM   14  C   UNL     1     -13.099  11.213  71.656  1.00  0.00    -0.529 A  
HETATM   15  C   UNL     1     -13.411  12.460  72.188  1.00  0.00    -0.508 A  
HETATM   16  C   UNL     1     -12.283  13.484  70.304  1.00  0.00    -0.417 A  
HETATM   17  C   UNL     1     -11.974  14.848  69.819  1.00  0.00    -0.366 C  
HETATM   18  C   UNL     1     -12.997  13.575  71.493  1.00  0.00    -0.355 A  
HETATM   19  O   UNL     1     -13.225  14.855  71.919  1.00  0.00    -0.310 OA 
HETATM   20  C   UNL     1     -12.626  15.697  70.911  1.00  0.00    -0.449 C  
ENDBRANCH   3  12
TORSDOF 5
ENDMDL
MODEL       45
REMARK 921   NORMALIZED FREE ENERGY PREDICTED BY IDOCK:   -5.07 KCAL/MOL
REMARK 922        TOTAL FREE ENERGY PREDICTED BY IDOCK:   -7.23 KCAL/MOL
REMARK 923 INTER-LIGAND FREE ENERGY PREDICTED BY IDOCK:   -6.32 KCAL/MOL
REMARK 924 INTRA-LIGAND FREE ENERGY PREDICTED BY IDOCK:   -0.91 KCAL/MOL
REMARK 927      BINDING AFFINITY PREDICTED BY RF-SCORE:    0.00 PKD
ROOT
HETATM    1  C   UNL     1     -10.999  11.338  68.969  1.00  0.00    -0.288 C  
HETATM    2  C   UNL     1     -11.694  11.032  70.266  1.00  0.00    -0.445 C  
HETATM    3  C   UNL     1     -12.105  12.249  69.476  1.00  0.00    -0.260 C  
ENDROOT
BRANCH   1   4
HETATM    4  C   UNL     1     -11.238  10.533  67.727  1.00  0.00    -0.273 C  
BRANCH   4   5
HETATM    5  N   UNL     1     -10.332  10.964  66.673  1.00  0.00    -0.231 NA 
HETATM    6  H   UNL     1      -9.543  10.378  66.401  1.00  0.00     0.000 HD 
BRANCH   5   7
HETATM    7  C   UNL     1     -10.533  12.088  66.087  1.00  0.00    -0.236 C  
HETATM    8  H   UNL     1      -9.849  13.979  65.707  1.00  0.00     0.000 HD 
HETATM    9  O   UNL     1      -9.700  13.147  66.140  1.00  0.00    -0.276 OA 
BRANCH   7  10
HETATM   10  C   UNL     1     -11.757  12.375  65.266  1.00  0.00    -0.437 C  
HETATM   11  C   UNL     1     -12.344  13.732  65.610  1.00  0.00    -0.517 C  
ENDBRANCH   7  10
ENDBRANCH   5   7
ENDBRANCH   4   5
ENDBRANCH   1   4
BRANCH   3  12
HETATM   12  C   UNL     1     -11.806  13.650  69.954  1.00  0.00    -0.389 A  
HETATM   13  C   UNL     1     -10.960  14.507  69.221  1.00  0.00    -0.282 A  
HETATM   14  C   UNL     1     -10.763  15.852  69.583  1.00  0.00    -0.304 A  
HETATM   15  C   UNL     1     -11.414  16.385  70.691  1.00  0.00    -0.179 A  
HETATM   16  C   UNL     1     -12.424  14.216  71.069  1.00  0.00    -0.438 A  
HETATM   17  C   UNL     1     -13.366  13.596  72.028  1.00  0.00    -0.548 C  
HETATM   18  C   UNL     1     -12.232  15.547  71.417  1.00  0.00    -0.393 A  
HETATM   19  O   UNL     1     -12.940  15.953  72.514  1.00  0.00    -0.446 OA 
HETATM   20  C   UNL     1     -13.656  14.779  72.953  1.00  0.00    -0.376 C  
ENDBRANCH   3  12
TORSDOF 5
ENDMDL
MODEL       46
REMARK 921   NORMALIZED FREE ENERGY PREDICTED BY IDOCK:   -5.07 KCAL/MOL
REMARK 922        TOTAL FREE ENERGY PREDICTED BY IDOCK:   -7.22 KCAL/MOL
REMARK 923 INTER-LIGAND FREE ENERGY PREDICTED BY IDOCK:   -6.36 KCAL/MOL
REMARK 924 INTRA-LIGAND FREE ENERGY PREDICTED BY IDOCK:   -0.86 KCAL/MOL
REMARK 927      BINDING AFFINITY PREDICTED BY RF-SCORE:    0.00 PKD
ROOT
HETATM    1  C   UNL     1     -11.633  11.164  68.040  1.00  0.00    -0.337 C  
HETATM    2  C   UNL     1     -10.207  11.069  67.574  1.00  0.00    -0.219 C  
HETATM    3  C   UNL     1     -10.845  12.426  67.731  1.00  0.00    -0.257 C  
ENDROOT
BRANCH   1   4
HETATM    4  C   UNL     1     -12.029  10.888  69.458  1.00  0.00    -0.330 C  
BRANCH   4   5
HETATM    5  N   UNL     1     -11.612  11.989  70.315  1.00  0.00    -0.527 NA 
HETATM    6  H   UNL     1     -10.674  12.380  70.229  1.00  0.00     0.000 HD 
BRANCH   5   7
HETATM    7  C   UNL     1     -12.434  12.465  71.178  1.00  0.00    -0.222 C  
HETATM    8  H   UNL     1     -13.796  12.077  72.655  1.00  0.00     0.000 HD 
HETATM    9  O   UNL     1     -13.188  11.725  72.016  1.00  0.00    -0.506 OA 
BRANCH   7  10
HETATM   10  C   UNL     1     -12.676  13.936  71.353  1.00  0.00    -0.445 C  
HETATM   11  C   UNL     1     -12.125  14.727  70.180  1.00  0.00    -0.382 C  
ENDBRANCH   7  10
ENDBRANCH   5   7
ENDBRANCH   4   5
ENDBRANCH   1   4
BRANCH   3  12
HETATM   12  C   UNL     1     -11.186  13.290  66.540  1.00  0.00    -0.329 A  
HETATM   13  C   UNL     1     -12.306  13.008  65.731  1.00  0.00    -0.477 A  
HETATM   14  C   UNL     1     -12.712  13.865  64.691  1.00  0.00    -0.179 A  
HETATM   15  C   UNL     1     -12.010  15.038  64.433  1.00  0.00    -0.366 A  
HETATM   16  C   UNL     1     -10.498  14.465  66.237  1.00  0.00    -0.292 A  
HETATM   17  C   UNL     1      -9.305  15.043  66.895  1.00  0.00    -0.258 C  
HETATM   18  C   UNL     1     -10.908  15.311  65.214  1.00  0.00    -0.403 A  
HETATM   19  O   UNL     1     -10.146  16.438  65.072  1.00  0.00    -0.486 OA 
HETATM   20  C   UNL     1      -9.119  16.324  66.080  1.00  0.00    -0.341 C  
ENDBRANCH   3  12
TORSDOF 5
ENDMDL
MODEL       47
REMARK 921   NORMALIZED FREE ENERGY PREDICTED BY IDOCK:   -5.06 KCAL/MOL
REMARK 922        TOTAL FREE ENERGY PREDICTED BY IDOCK:   -7.21 KCAL/MOL
REMARK 923 INTER-LIGAND FREE ENERGY PREDICTED BY IDOCK:   -6.82 KCAL/MOL
REMARK 924 INTRA-LIGAND FREE ENERGY PREDICTED BY IDOCK:   -0.39 KCAL/MOL
REMARK 927      BINDING AFFINITY PREDICTED BY RF-SCORE:    0.00 PKD
ROOT
HETATM    1  C   UNL     1     -12.355   9.704  72.048  1.00  0.00    -0.376 C  
HETATM    2  C   UNL     1     -13.518   9.545  71.109  1.00  0.00    -0.280 C  
HETATM    3  C   UNL     1     -12.481  10.604  70.830  1.00  0.00    -0.495 C  
ENDROOT
BRANCH   1   4
HETATM    4  C   UNL     1     -11.232   8.712  72.102  1.00  0.00    -0.367 C  
BRANCH   4   5
HETATM    5  N   UNL     1     -11.422   7.806  73.224  1.00  0.00    -0.609 NA 
HETATM    6  H   UNL     1     -12.085   8.035  73.964  1.00  0.00     0.000 HD 
BRANCH   5   7
HETATM    7  C   UNL     1     -10.749   6.714  73.276  1.00  0.00    -0.287 C  
HETATM    8  H   UNL     1      -9.658   5.416  74.422  1.00  0.00     0.000 HD 
HETATM    9  O   UNL     1     -10.157   6.224  74.383  1.00  0.00    -0.294 OA 
BRANCH   7  10
HETATM   10  C   UNL     1     -10.519   5.837  72.079  1.00  0.00    -0.267 C  
HETATM   11  C   UNL     1     -10.245   4.403  72.492  1.00  0.00    -0.242 C  
ENDBRANCH   7  10
ENDBRANCH   5   7
ENDBRANCH   4   5
ENDBRANCH   1   4
BRANCH   3  12
HETATM   12  C   UNL     1     -12.785  12.076  70.974  1.00  0.00    -0.337 A  
HETATM   13  C   UNL     1     -13.506  12.568  72.081  1.00  0.00    -0.523 A  
HETATM   14  C   UNL     1     -13.696  13.946  72.297  1.00  0.00    -0.660 A  
HETATM   15  C   UNL     1     -13.164  14.877  71.411  1.00  0.00    -0.462 A  
HETATM   16  C   UNL     1     -12.284  13.040  70.099  1.00  0.00    -0.342 A  
HETATM   17  C   UNL     1     -11.487  12.856  68.865  1.00  0.00    -0.350 C  
HETATM   18  C   UNL     1     -12.469  14.399  70.321  1.00  0.00    -0.354 A  
HETATM   19  O   UNL     1     -11.883  15.210  69.389  1.00  0.00    -0.305 OA 
HETATM   20  C   UNL     1     -11.267  14.309  68.444  1.00  0.00    -0.269 C  
ENDBRANCH   3  12
TORSDOF 5
ENDMDL
MODEL       48
REMARK 921   NORMALIZED FREE ENERGY PREDICTED BY IDOCK:   -5.05 KCAL/MOL
REMARK 922        TOTAL FREE ENERGY PREDICTED BY IDOCK:   -7.20 KCAL/MOL
REMARK 923 INTER-LIGAND FREE ENERGY PREDICTED BY IDOCK:   -6.54 KCAL/MOL
REMARK 924 INTRA-LIGAND FREE ENERGY PREDICTED BY IDOCK:   -0.66 KCAL/MOL
REMARK 927      BINDING AFFINITY PREDICTED BY RF-SCORE:    0.00 PKD
ROOT
HETATM    1  C   UNL     1     -10.348   8.698  66.627  1.00  0.00    -0.303 C  
HETATM    2  C   UNL     1      -9.142   8.788  65.735  1.00  0.00    -0.267 C  
HETATM    3  C   UNL     1      -9.701  10.045  66.351  1.00  0.00    -0.266 C  
ENDROOT
BRANCH   1   4
HETATM    4  C   UNL     1     -10.274   8.132  68.013  1.00  0.00    -0.212 C  
BRANCH   4   5
HETATM    5  N   UNL     1     -11.045   8.959  68.930  1.00  0.00    -0.433 NA 
HETATM    6  H   UNL     1     -12.008   9.212  68.709  1.00  0.00     0.000 HD 
BRANCH   5   7
HETATM    7  C   UNL     1     -10.504   9.368  70.019  1.00  0.00    -0.234 C  
HETATM    8  H   UNL     1      -8.834  10.111  70.939  1.00  0.00     0.000 HD 
HETATM    9  O   UNL     1      -9.235   9.809  70.133  1.00  0.00    -0.234 OA 
BRANCH   7  10
HETATM   10  C   UNL     1     -11.227   9.388  71.335  1.00  0.00    -0.452 C  
HETATM   11  C   UNL     1     -12.584  10.056  71.205  1.00  0.00    -0.480 C  
ENDBRANCH   7  10
ENDBRANCH   5   7
ENDBRANCH   4   5
ENDBRANCH   1   4
BRANCH   3  12
HETATM   12  C   UNL     1     -10.405  11.095  65.523  1.00  0.00    -0.326 A  
HETATM   13  C   UNL     1     -10.494  10.980  64.121  1.00  0.00    -0.434 A  
HETATM   14  C   UNL     1     -11.246  11.880  63.343  1.00  0.00    -0.463 A  
HETATM   15  C   UNL     1     -11.938  12.924  63.949  1.00  0.00    -0.550 A  
HETATM   16  C   UNL     1     -11.096  12.165  66.090  1.00  0.00    -0.354 A  
HETATM   17  C   UNL     1     -11.211  12.552  67.514  1.00  0.00    -0.342 C  
HETATM   18  C   UNL     1     -11.843  13.047  65.318  1.00  0.00    -0.376 A  
HETATM   19  O   UNL     1     -12.490  14.017  66.033  1.00  0.00    -0.468 OA 
HETATM   20  C   UNL     1     -12.124  13.775  67.408  1.00  0.00    -0.343 C  
ENDBRANCH   3  12
TORSDOF 5
ENDMDL
MODEL       49
REMARK 921   NORMALIZED FREE ENERGY PREDICTED BY IDOCK:   -5.03 KCAL/MOL
REMARK 922        TOTAL FREE ENERGY PREDICTED BY IDOCK:   -7.18 KCAL/MOL
REMARK 923 INTER-LIGAND FREE ENERGY PREDICTED BY IDOCK:   -6.18 KCAL/MOL
REMARK 924 INTRA-LIGAND FREE ENERGY PREDICTED BY IDOCK:   -0.99 KCAL/MOL
REMARK 927      BINDING AFFINITY PREDICTED BY RF-SCORE:    0.00 PKD
ROOT
HETATM    1  C   UNL     1     -12.117  13.203  68.516  1.00  0.00    -0.217 C  
HETATM    2  C   UNL     1     -11.559  11.822  68.718  1.00  0.00    -0.367 C  
HETATM    3  C   UNL     1     -11.003  12.690  67.618  1.00  0.00    -0.275 C  
ENDROOT
BRANCH   1   4
HETATM    4  C   UNL     1     -11.822  14.328  69.462  1.00  0.00    -0.329 C  
BRANCH   4   5
HETATM    5  N   UNL     1     -11.831  15.595  68.745  1.00  0.00    -0.499 NA 
HETATM    6  H   UNL     1     -12.694  15.942  68.325  1.00  0.00     0.000 HD 
BRANCH   5   7
HETATM    7  C   UNL     1     -10.747  16.273  68.647  1.00  0.00    -0.309 C  
HETATM    8  H   UNL     1      -9.640  17.859  69.317  1.00  0.00     0.000 HD 
HETATM    9  O   UNL     1     -10.443  17.356  69.390  1.00  0.00    -0.303 OA 
BRANCH   7  10
HETATM   10  C   UNL     1      -9.666  15.949  67.656  1.00  0.00    -0.223 C  
HETATM   11  C   UNL     1     -10.146  16.157  66.231  1.00  0.00    -0.337 C  
ENDBRANCH   7  10
ENDBRANCH   5   7
ENDBRANCH   4   5
ENDBRANCH   1   4
BRANCH   3  12
HETATM   12  C   UNL     1     -11.252  12.388  66.159  1.00  0.00    -0.364 A  
HETATM   13  C   UNL     1     -12.193  13.124  65.411  1.00  0.00    -0.510 A  
HETATM   14  C   UNL     1     -12.356  12.941  64.025  1.00  0.00    -0.457 A  
HETATM   15  C   UNL     1     -11.574  12.014  63.342  1.00  0.00    -0.495 A  
HETATM   16  C   UNL     1     -10.502  11.455  65.442  1.00  0.00    -0.336 A  
HETATM   17  C   UNL     1      -9.440  10.544  65.923  1.00  0.00    -0.236 C  
HETATM   18  C   UNL     1     -10.661  11.284  64.073  1.00  0.00    -0.377 A  
HETATM   19  O   UNL     1      -9.823  10.357  63.516  1.00  0.00    -0.309 OA 
HETATM   20  C   UNL     1      -9.046   9.847  64.621  1.00  0.00    -0.242 C  
ENDBRANCH   3  12
TORSDOF 5
ENDMDL
MODEL       50
REMARK 921   NORMALIZED FREE ENERGY PREDICTED BY IDOCK:   -5.02 KCAL/MOL
REMARK 922        TOTAL FREE ENERGY PREDICTED BY IDOCK:   -7.17 KCAL/MOL
REMARK 923 INTER-LIGAND FREE ENERGY PREDICTED BY IDOCK:   -6.29 KCAL/MOL
REMARK 924 INTRA-LIGAND FREE ENERGY PREDICTED BY IDOCK:   -0.87 KCAL/MOL
REMARK 927      BINDING AFFINITY PREDICTED BY RF-SCORE:    0.00 PKD
ROOT
HETATM    1  C   UNL     1      -7.963  16.632  67.869  1.00  0.00    -0.177 C  
HETATM    2  C   UNL     1      -7.272  15.477  67.199  1.00  0.00    -0.208 C  
HETATM    3  C   UNL     1      -8.656  15.872  66.749  1.00  0.00    -0.301 C  
ENDROOT
BRANCH   1   4
HETATM    4  C   UNL     1      -7.553  18.053  67.631  1.00  0.00    -0.217 C  
BRANCH   4   5
HETATM    5  N   UNL     1      -8.269  18.936  68.540  1.00  0.00    -0.343 NA 
HETATM    6  H   UNL     1      -7.942  19.064  69.497  1.00  0.00     0.000 HD 
BRANCH   5   7
HETATM    7  C   UNL     1      -9.316  19.554  68.128  1.00  0.00    -0.350 C  
HETATM    8  H   UNL     1     -11.146  20.342  68.595  1.00  0.00     0.000 HD 
HETATM    9  O   UNL     1     -10.371  19.885  68.900  1.00  0.00    -0.414 OA 
BRANCH   7  10
HETATM   10  C   UNL     1      -9.508  19.976  66.699  1.00  0.00    -0.524 C  
HETATM   11  C   UNL     1     -10.654  19.219  66.053  1.00  0.00    -0.550 C  
ENDBRANCH   7  10
ENDBRANCH   5   7
ENDBRANCH   4   5
ENDBRANCH   1   4
BRANCH   3  12
HETATM   12  C   UNL     1      -9.862  15.004  67.024  1.00  0.00    -0.241 A  
HETATM   13  C   UNL     1     -10.058  14.402  68.283  1.00  0.00    -0.239 A  
HETATM   14  C   UNL     1     -11.230  13.691  68.598  1.00  0.00    -0.308 A  
HETATM   15  C   UNL     1     -12.249  13.565  67.659  1.00  0.00    -0.215 A  
HETATM   16  C   UNL     1     -10.898  14.838  66.104  1.00  0.00    -0.321 A  
HETATM   17  C   UNL     1     -11.005  15.348  64.718  1.00  0.00    -0.411 C  
HETATM   18  C   UNL     1     -12.056  14.141  66.423  1.00  0.00    -0.451 A  
HETATM   19  O   UNL     1     -12.988  14.103  65.422  1.00  0.00    -0.706 OA 
HETATM   20  C   UNL     1     -12.387  14.823  64.325  1.00  0.00    -0.320 C  
ENDBRANCH   3  12
TORSDOF 5
ENDMDL
MODEL       51
REMARK 921   NORMALIZED FREE ENERGY PREDICTED BY IDOCK:   -5.02 KCAL/MOL
REMARK 922        TOTAL FREE ENERGY PREDICTED BY IDOCK:   -7.16 KCAL/MOL
REMARK 923 INTER-LIGAND FREE ENERGY PREDICTED BY IDOCK:   -6.82 KCAL/MOL
REMARK 924 INTRA-LIGAND FREE ENERGY PREDICTED BY IDOCK:   -0.34 KCAL/MOL
REMARK 927      BINDING AFFINITY PREDICTED BY RF-SCORE:    0.00 PKD
ROOT
HETATM    1  C   UNL     1     -11.872  10.971  68.469  1.00  0.00    -0.286 C  
HETATM    2  C   UNL     1     -10.823  10.002  67.998  1.00  0.00    -0.311 C  
HETATM    3  C   UNL     1     -10.792  11.425  67.500  1.00  0.00    -0.291 C  
ENDROOT
BRANCH   1   4
HETATM    4  C   UNL     1     -11.876  11.529  69.860  1.00  0.00    -0.355 C  
BRANCH   4   5
HETATM    5  N   UNL     1     -11.201  10.610  70.765  1.00  0.00    -0.367 NA 
HETATM    6  H   UNL     1     -10.195  10.684  70.917  1.00  0.00     0.000 HD 
BRANCH   5   7
HETATM    7  C   UNL     1     -11.881   9.707  71.373  1.00  0.00    -0.406 C  
HETATM    8  H   UNL     1     -11.991   7.760  71.994  1.00  0.00     0.000 HD 
HETATM    9  O   UNL     1     -11.487   8.429  71.545  1.00  0.00    -0.255 OA 
BRANCH   7  10
HETATM   10  C   UNL     1     -13.239   9.963  71.962  1.00  0.00    -0.555 C  
HETATM   11  C   UNL     1     -14.090   8.707  71.947  1.00  0.00    -0.512 C  
ENDBRANCH   7  10
ENDBRANCH   5   7
ENDBRANCH   4   5
ENDBRANCH   1   4
BRANCH   3  12
HETATM   12  C   UNL     1     -11.123  11.777  66.069  1.00  0.00    -0.363 A  
HETATM   13  C   UNL     1     -12.082  12.764  65.763  1.00  0.00    -0.505 A  
HETATM   14  C   UNL     1     -12.320  13.193  64.444  1.00  0.00    -0.426 A  
HETATM   15  C   UNL     1     -11.598  12.648  63.387  1.00  0.00    -0.536 A  
HETATM   16  C   UNL     1     -10.435  11.242  64.980  1.00  0.00    -0.359 A  
HETATM   17  C   UNL     1      -9.373  10.211  64.964  1.00  0.00    -0.299 C  
HETATM   18  C   UNL     1     -10.668  11.674  63.681  1.00  0.00    -0.435 A  
HETATM   19  O   UNL     1      -9.883  11.075  62.735  1.00  0.00    -0.286 OA 
HETATM   20  C   UNL     1      -9.064  10.139  63.468  1.00  0.00    -0.275 C  
ENDBRANCH   3  12
TORSDOF 5
ENDMDL
MODEL       52
REMARK 921   NORMALIZED FREE ENERGY PREDICTED BY IDOCK:   -5.02 KCAL/MOL
REMARK 922        TOTAL FREE ENERGY PREDICTED BY IDOCK:   -7.16 KCAL/MOL
REMARK 923 INTER-LIGAND FREE ENERGY PREDICTED BY IDOCK:   -6.34 KCAL/MOL
REMARK 924 INTRA-LIGAND FREE ENERGY PREDICTED BY IDOCK:   -0.82 KCAL/MOL
REMARK 927      BINDING AFFINITY PREDICTED BY RF-SCORE:    0.00 PKD
ROOT
HETATM    1  C   UNL     1     -10.632  18.843  67.037  1.00  0.00    -0.510 C  
HETATM    2  C   UNL     1     -10.223  18.836  68.483  1.00  0.00    -0.397 C  
HETATM    3  C   UNL     1      -9.901  17.644  67.619  1.00  0.00    -0.294 C  
ENDROOT
BRANCH   1   4
HETATM    4  C   UNL     1      -9.935  19.688  66.015  1.00  0.00    -0.422 C  
BRANCH   4   5
HETATM    5  N   UNL     1      -8.774  20.333  66.611  1.00  0.00    -0.506 NA 
HETATM    6  H   UNL     1      -8.894  21.021  67.355  1.00  0.00     0.000 HD 
BRANCH   5   7
HETATM    7  C   UNL     1      -7.599  20.031  66.194  1.00  0.00    -0.306 C  
HETATM    8  H   UNL     1      -6.284  19.994  64.626  1.00  0.00     0.000 HD 
HETATM    9  O   UNL     1      -7.154  20.219  64.935  1.00  0.00    -0.239 OA 
BRANCH   7  10
HETATM   10  C   UNL     1      -6.557  19.398  67.071  1.00  0.00    -0.200 C  
HETATM   11  C   UNL     1      -6.757  19.782  68.526  1.00  0.00    -0.331 C  
ENDBRANCH   7  10
ENDBRANCH   5   7
ENDBRANCH   4   5
ENDBRANCH   1   4
BRANCH   3  12
HETATM   12  C   UNL     1     -10.598  16.316  67.799  1.00  0.00    -0.314 A  
HETATM   13  C   UNL     1     -11.098  15.918  69.056  1.00  0.00    -0.294 A  
HETATM   14  C   UNL     1     -11.854  14.743  69.222  1.00  0.00    -0.352 A  
HETATM   15  C   UNL     1     -12.138  13.929  68.130  1.00  0.00    -0.317 A  
HETATM   16  C   UNL     1     -10.887  15.463  66.734  1.00  0.00    -0.306 A  
HETATM   17  C   UNL     1     -10.522  15.599  65.306  1.00  0.00    -0.439 C  
HETATM   18  C   UNL     1     -11.641  14.309  66.902  1.00  0.00    -0.387 A  
HETATM   19  O   UNL     1     -11.865  13.605  65.751  1.00  0.00    -0.339 OA 
HETATM   20  C   UNL     1     -11.180  14.348  64.720  1.00  0.00    -0.387 C  
ENDBRANCH   3  12
TORSDOF 5
ENDMDL
MODEL       53
REMARK 921   NORMALIZED FREE ENERGY PREDICTED BY IDOCK:   -5.01 KCAL/MOL
REMARK 922        TOTAL FREE ENERGY PREDICTED BY IDOCK:   -7.16 KCAL/MOL
REMARK 923 INTER-LIGAND FREE ENERGY PREDICTED BY IDOCK:   -6.32 KCAL/MOL
REMARK 924 INTRA-LIGAND FREE ENERGY PREDICTED BY IDOCK:   -0.83 KCAL/MOL
REMARK 927      BINDING AFFINITY PREDICTED BY RF-SCORE:    0.00 PKD
ROOT
HETATM    1  C   UNL     1     -10.582  11.432  67.948  1.00  0.00    -0.224 C  
HETATM    2  C   UNL     1     -11.563  10.844  68.922  1.00  0.00    -0.378 C  
HETATM    3  C   UNL     1     -11.859  12.180  68.291  1.00  0.00    -0.361 C  
ENDROOT
BRANCH   1   4
HETATM    4  C   UNL     1     -10.412  10.890  66.561  1.00  0.00    -0.253 C  
BRANCH   4   5
HETATM    5  N   UNL     1      -9.875  11.922  65.686  1.00  0.00    -0.239 NA 
HETATM    6  H   UNL     1      -8.996  12.386  65.917  1.00  0.00     0.000 HD 
BRANCH   5   7
HETATM    7  C   UNL     1     -10.514  12.244  64.621  1.00  0.00    -0.303 C  
HETATM    8  H   UNL     1     -10.446  12.556  62.599  1.00  0.00     0.000 HD 
HETATM    9  O   UNL     1      -9.973  12.317  63.388  1.00  0.00    -0.384 OA 
BRANCH   7  10
HETATM   10  C   UNL     1     -11.972  12.604  64.618  1.00  0.00    -0.463 C  
HETATM   11  C   UNL     1     -12.687  11.993  63.428  1.00  0.00    -0.527 C  
ENDBRANCH   7  10
ENDBRANCH   5   7
ENDBRANCH   4   5
ENDBRANCH   1   4
BRANCH   3  12
HETATM   12  C   UNL     1     -11.824  13.464  69.086  1.00  0.00    -0.383 A  
HETATM   13  C   UNL     1     -12.127  13.479  70.463  1.00  0.00    -0.409 A  
HETATM   14  C   UNL     1     -11.984  14.638  71.248  1.00  0.00    -0.401 A  
HETATM   15  C   UNL     1     -11.527  15.822  70.677  1.00  0.00    -0.415 A  
HETATM   16  C   UNL     1     -11.388  14.675  68.548  1.00  0.00    -0.305 A  
HETATM   17  C   UNL     1     -10.985  14.986  67.158  1.00  0.00    -0.329 C  
HETATM   18  C   UNL     1     -11.241  15.814  69.329  1.00  0.00    -0.324 A  
HETATM   19  O   UNL     1     -10.768  16.906  68.655  1.00  0.00    -0.333 OA 
HETATM   20  C   UNL     1     -10.603  16.461  67.291  1.00  0.00    -0.293 C  
ENDBRANCH   3  12
TORSDOF 5
ENDMDL
MODEL       54
REMARK 921   NORMALIZED FREE ENERGY PREDICTED BY IDOCK:   -5.00 KCAL/MOL
REMARK 922        TOTAL FREE ENERGY PREDICTED BY IDOCK:   -7.13 KCAL/MOL
REMARK 923 INTER-LIGAND FREE ENERGY PREDICTED BY IDOCK:   -6.53 KCAL/MOL
REMARK 924 INTRA-LIGAND FREE ENERGY PREDICTED BY IDOCK:   -0.60 KCAL/MOL
REMARK 927      BINDING AFFINITY PREDICTED BY RF-SCORE:    0.00 PKD
ROOT
HETATM    1  C   UNL     1     -11.215  11.119  67.559  1.00  0.00    -0.369 C  
HETATM    2  C   UNL     1     -10.902  12.383  68.310  1.00  0.00    -0.264 C  
HETATM    3  C   UNL     1     -10.655  11.051  68.971  1.00  0.00    -0.258 C  
ENDROOT
BRANCH   1   4
HETATM    4  C   UNL     1     -10.368  10.638  66.421  1.00  0.00    -0.231 C  
BRANCH   4   5
HETATM    5  N   UNL     1      -9.743  11.770  65.752  1.00  0.00    -0.234 NA 
HETATM    6  H   UNL     1      -8.847  12.130  66.080  1.00  0.00     0.000 HD 
BRANCH   5   7
HETATM    7  C   UNL     1     -10.328  12.311  64.747  1.00  0.00    -0.291 C  
HETATM    8  H   UNL     1     -10.848  14.040  63.783  1.00  0.00     0.000 HD 
HETATM    9  O   UNL     1     -10.415  13.639  64.527  1.00  0.00    -0.430 OA 
BRANCH   7  10
HETATM   10  C   UNL     1     -11.020  11.517  63.677  1.00  0.00    -0.482 C  
HETATM   11  C   UNL     1     -12.494  11.869  63.597  1.00  0.00    -0.583 C  
ENDBRANCH   7  10
ENDBRANCH   5   7
ENDBRANCH   4   5
ENDBRANCH   1   4
BRANCH   3  12
HETATM   12  C   UNL     1     -11.499  10.562  70.124  1.00  0.00    -0.405 A  
HETATM   13  C   UNL     1     -12.386  11.427  70.798  1.00  0.00    -0.483 A  
HETATM   14  C   UNL     1     -13.267  10.966  71.793  1.00  0.00    -0.513 A  
HETATM   15  C   UNL     1     -13.292   9.620  72.142  1.00  0.00    -0.545 A  
HETATM   16  C   UNL     1     -11.541   9.224  70.516  1.00  0.00    -0.266 A  
HETATM   17  C   UNL     1     -10.758   8.077  70.004  1.00  0.00    -0.244 C  
HETATM   18  C   UNL     1     -12.419   8.774  71.494  1.00  0.00    -0.326 A  
HETATM   19  O   UNL     1     -12.359   7.428  71.733  1.00  0.00    -0.308 OA 
HETATM   20  C   UNL     1     -11.330   6.937  70.848  1.00  0.00    -0.304 C  
ENDBRANCH   3  12
TORSDOF 5
ENDMDL
MODEL       55
REMARK 921   NORMALIZED FREE ENERGY PREDICTED BY IDOCK:   -4.98 KCAL/MOL
REMARK 922        TOTAL FREE ENERGY PREDICTED BY IDOCK:   -7.11 KCAL/MOL
REMARK 923 INTER-LIGAND FREE ENERGY PREDICTED BY IDOCK:   -6.65 KCAL/MOL
REMARK 924 INTRA-LIGAND FREE ENERGY PREDICTED BY IDOCK:   -0.45 KCAL/MOL
REMARK 927      BINDING AFFINITY PREDICTED BY RF-SCORE:    0.00 PKD
ROOT
HETATM    1  C   UNL     1     -11.085  14.371  68.250  1.00  0.00    -0.275 C  
HETATM    2  C   UNL     1     -11.374  15.291  67.096  1.00  0.00    -0.247 C  
HETATM    3  C   UNL     1     -11.938  13.892  67.086  1.00  0.00    -0.455 C  
ENDROOT
BRANCH   1   4
HETATM    4  C   UNL     1     -11.728  14.549  69.592  1.00  0.00    -0.307 C  
BRANCH   4   5
HETATM    5  N   UNL     1     -11.777  13.274  70.293  1.00  0.00    -0.539 NA 
HETATM    6  H   UNL     1     -11.057  12.570  70.130  1.00  0.00     0.000 HD 
BRANCH   5   7
HETATM    7  C   UNL     1     -12.732  13.043  71.118  1.00  0.00    -0.283 C  
HETATM    8  H   UNL     1     -13.778  11.652  72.196  1.00  0.00     0.000 HD 
HETATM    9  O   UNL     1     -13.070  11.824  71.585  1.00  0.00    -0.441 OA 
BRANCH   7  10
HETATM   10  C   UNL     1     -13.624  14.122  71.661  1.00  0.00    -0.446 C  
HETATM   11  C   UNL     1     -13.135  14.610  73.012  1.00  0.00    -0.616 C  
ENDBRANCH   7  10
ENDBRANCH   5   7
ENDBRANCH   4   5
ENDBRANCH   1   4
BRANCH   3  12
HETATM   12  C   UNL     1     -11.436  12.836  66.131  1.00  0.00    -0.399 A  
HETATM   13  C   UNL     1     -11.168  13.139  64.781  1.00  0.00    -0.347 A  
HETATM   14  C   UNL     1     -10.587  12.204  63.905  1.00  0.00    -0.457 A  
HETATM   15  C   UNL     1     -10.251  10.932  64.357  1.00  0.00    -0.423 A  
HETATM   16  C   UNL     1     -11.102  11.544  66.541  1.00  0.00    -0.341 A  
HETATM   17  C   UNL     1     -11.245  10.924  67.877  1.00  0.00    -0.387 C  
HETATM   18  C   UNL     1     -10.522  10.627  65.674  1.00  0.00    -0.165 A  
HETATM   19  O   UNL     1     -10.223   9.420  66.243  1.00  0.00    -0.274 OA 
HETATM   20  C   UNL     1     -10.664   9.534  67.613  1.00  0.00    -0.250 C  
ENDBRANCH   3  12
TORSDOF 5
ENDMDL
MODEL       56
REMARK 921   NORMALIZED FREE ENERGY PREDICTED BY IDOCK:   -4.97 KCAL/MOL
REMARK 922        TOTAL FREE ENERGY PREDICTED BY IDOCK:   -7.10 KCAL/MOL
REMARK 923 INTER-LIGAND FREE ENERGY PREDICTED BY IDOCK:   -6.32 KCAL/MOL
REMARK 924 INTRA-LIGAND FREE ENERGY PREDICTED BY IDOCK:   -0.77 KCAL/MOL
REMARK 927      BINDING AFFINITY PREDICTED BY RF-SCORE:    0.00 PKD
ROOT
HETATM    1  C   UNL     1     -11.772  14.282  67.766  1.00  0.00    -0.408 C  
HETATM    2  C   UNL     1     -11.575  15.704  68.211  1.00  0.00    -0.326 C  
HETATM    3  C   UNL     1     -11.220  14.580  69.150  1.00  0.00    -0.294 C  
ENDROOT
BRANCH   1   4
HETATM    4  C   UNL     1     -10.877  13.632  66.756  1.00  0.00    -0.290 C  
BRANCH   4   5
HETATM    5  N   UNL     1      -9.504  14.075  66.949  1.00  0.00    -0.255 NA 
HETATM    6  H   UNL     1      -9.263  15.061  66.849  1.00  0.00     0.000 HD 
BRANCH   5   7
HETATM    7  C   UNL     1      -8.598  13.216  67.247  1.00  0.00    -0.210 C  
HETATM    8  H   UNL     1      -6.686  12.885  67.898  1.00  0.00     0.000 HD 
HETATM    9  O   UNL     1      -7.357  13.521  67.678  1.00  0.00    -0.146 OA 
BRANCH   7  10
HETATM   10  C   UNL     1      -8.806  11.733  67.132  1.00  0.00    -0.173 C  
HETATM   11  C   UNL     1      -8.681  11.054  68.483  1.00  0.00    -0.159 C  
ENDBRANCH   7  10
ENDBRANCH   5   7
ENDBRANCH   4   5
ENDBRANCH   1   4
BRANCH   3  12
HETATM   12  C   UNL     1     -12.030  14.292  70.393  1.00  0.00    -0.402 A  
HETATM   13  C   UNL     1     -12.640  15.331  71.124  1.00  0.00    -0.457 A  
HETATM   14  C   UNL     1     -13.496  15.078  72.212  1.00  0.00    -0.521 A  
HETATM   15  C   UNL     1     -13.771  13.770  72.600  1.00  0.00    -0.566 A  
HETATM   16  C   UNL     1     -12.315  12.997  70.826  1.00  0.00    -0.394 A  
HETATM   17  C   UNL     1     -11.848  11.705  70.274  1.00  0.00    -0.414 C  
HETATM   18  C   UNL     1     -13.166  12.752  71.895  1.00  0.00    -0.412 A  
HETATM   19  O   UNL     1     -13.370  11.427  72.167  1.00  0.00    -0.469 OA 
HETATM   20  C   UNL     1     -12.562  10.721  71.201  1.00  0.00    -0.428 C  
ENDBRANCH   3  12
TORSDOF 5
ENDMDL
MODEL       57
REMARK 921   NORMALIZED FREE ENERGY PREDICTED BY IDOCK:   -4.95 KCAL/MOL
REMARK 922        TOTAL FREE ENERGY PREDICTED BY IDOCK:   -7.07 KCAL/MOL
REMARK 923 INTER-LIGAND FREE ENERGY PREDICTED BY IDOCK:   -6.32 KCAL/MOL
REMARK 924 INTRA-LIGAND FREE ENERGY PREDICTED BY IDOCK:   -0.74 KCAL/MOL
REMARK 927      BINDING AFFINITY PREDICTED BY RF-SCORE:    0.00 PKD
ROOT
HETATM    1  C   UNL     1      -9.493  12.391  68.431  1.00  0.00    -0.169 C  
HETATM    2  C   UNL     1     -10.047  11.037  68.085  1.00  0.00    -0.195 C  
HETATM    3  C   UNL     1     -10.996  12.179  68.348  1.00  0.00    -0.271 C  
ENDROOT
BRANCH   1   4
HETATM    4  C   UNL     1      -8.830  13.266  67.410  1.00  0.00    -0.204 C  
BRANCH   4   5
HETATM    5  N   UNL     1      -9.770  13.591  66.348  1.00  0.00    -0.288 NA 
HETATM    6  H   UNL     1     -10.363  12.865  65.946  1.00  0.00     0.000 HD 
BRANCH   5   7
HETATM    7  C   UNL     1      -9.848  14.799  65.921  1.00  0.00    -0.334 C  
HETATM    8  H   UNL     1      -8.903  16.594  65.648  1.00  0.00     0.000 HD 
HETATM    9  O   UNL     1      -8.845  15.699  65.963  1.00  0.00    -0.318 OA 
BRANCH   7  10
HETATM   10  C   UNL     1     -11.100  15.377  65.325  1.00  0.00    -0.367 C  
HETATM   11  C   UNL     1     -12.044  14.283  64.863  1.00  0.00    -0.442 C  
ENDBRANCH   7  10
ENDBRANCH   5   7
ENDBRANCH   4   5
ENDBRANCH   1   4
BRANCH   3  12
HETATM   12  C   UNL     1     -11.861  12.229  69.585  1.00  0.00    -0.393 A  
HETATM   13  C   UNL     1     -12.210  11.053  70.281  1.00  0.00    -0.447 A  
HETATM   14  C   UNL     1     -12.912  11.085  71.500  1.00  0.00    -0.553 A  
HETATM   15  C   UNL     1     -13.285  12.301  72.064  1.00  0.00    -0.508 A  
HETATM   16  C   UNL     1     -12.270  13.425  70.174  1.00  0.00    -0.385 A  
HETATM   17  C   UNL     1     -12.055  14.814  69.709  1.00  0.00    -0.364 C  
HETATM   18  C   UNL     1     -12.956  13.452  71.381  1.00  0.00    -0.328 A  
HETATM   19  O   UNL     1     -13.250  14.707  71.839  1.00  0.00    -0.313 OA 
HETATM   20  C   UNL     1     -12.729  15.602  70.833  1.00  0.00    -0.445 C  
ENDBRANCH   3  12
TORSDOF 5
ENDMDL
MODEL       58
REMARK 921   NORMALIZED FREE ENERGY PREDICTED BY IDOCK:   -4.86 KCAL/MOL
REMARK 922        TOTAL FREE ENERGY PREDICTED BY IDOCK:   -6.95 KCAL/MOL
REMARK 923 INTER-LIGAND FREE ENERGY PREDICTED BY IDOCK:   -6.46 KCAL/MOL
REMARK 924 INTRA-LIGAND FREE ENERGY PREDICTED BY IDOCK:   -0.49 KCAL/MOL
REMARK 927      BINDING AFFINITY PREDICTED BY RF-SCORE:    0.00 PKD
ROOT
HETATM    1  C   UNL     1     -10.947  15.405  67.851  1.00  0.00    -0.310 C  
HETATM    2  C   UNL     1     -10.792  15.209  66.369  1.00  0.00    -0.326 C  
HETATM    3  C   UNL     1      -9.739  15.976  67.127  1.00  0.00    -0.231 C  
ENDROOT
BRANCH   1   4
HETATM    4  C   UNL     1     -10.742  14.288  68.828  1.00  0.00    -0.254 C  
BRANCH   4   5
HETATM    5  N   UNL     1     -11.940  13.464  68.901  1.00  0.00    -0.338 NA 
HETATM    6  H   UNL     1     -12.835  13.880  69.157  1.00  0.00     0.000 HD 
BRANCH   5   7
HETATM    7  C   UNL     1     -11.862  12.210  68.640  1.00  0.00    -0.306 C  
HETATM    8  H   UNL     1     -11.858  10.745  67.211  1.00  0.00     0.000 HD 
HETATM    9  O   UNL     1     -11.915  11.674  67.405  1.00  0.00    -0.621 OA 
BRANCH   7  10
HETATM   10  C   UNL     1     -11.718  11.160  69.705  1.00  0.00    -0.410 C  
HETATM   11  C   UNL     1     -12.490  11.537  70.956  1.00  0.00    -0.458 C  
ENDBRANCH   7  10
ENDBRANCH   5   7
ENDBRANCH   4   5
ENDBRANCH   1   4
BRANCH   3  12
HETATM   12  C   UNL     1      -9.562  17.467  66.959  1.00  0.00    -0.273 A  
HETATM   13  C   UNL     1     -10.473  18.230  66.201  1.00  0.00    -0.403 A  
HETATM   14  C   UNL     1     -10.396  19.633  66.131  1.00  0.00    -0.627 A  
HETATM   15  C   UNL     1      -9.402  20.318  66.823  1.00  0.00    -0.489 A  
HETATM   16  C   UNL     1      -8.569  18.189  67.622  1.00  0.00    -0.252 A  
HETATM   17  C   UNL     1      -7.482  17.694  68.496  1.00  0.00    -0.269 C  
HETATM   18  C   UNL     1      -8.502  19.575  67.555  1.00  0.00    -0.302 A  
HETATM   19  O   UNL     1      -7.493  20.130  68.292  1.00  0.00    -0.276 OA 
HETATM   20  C   UNL     1      -6.808  19.008  68.891  1.00  0.00    -0.314 C  
ENDBRANCH   3  12
TORSDOF 5
ENDMDL
MODEL       59
REMARK 921   NORMALIZED FREE ENERGY PREDICTED BY IDOCK:   -4.85 KCAL/MOL
REMARK 922        TOTAL FREE ENERGY PREDICTED BY IDOCK:   -6.94 KCAL/MOL
REMARK 923 INTER-LIGAND FREE ENERGY PREDICTED BY IDOCK:   -6.16 KCAL/MOL
REMARK 924 INTRA-LIGAND FREE ENERGY PREDICTED BY IDOCK:   -0.78 KCAL/MOL
REMARK 927      BINDING AFFINITY PREDICTED BY RF-SCORE:    0.00 PKD
ROOT
HETATM    1  C   UNL     1      -9.158  15.515  66.396  1.00  0.00    -0.351 C  
HETATM    2  C   UNL     1     -10.458  15.890  65.741  1.00  0.00    -0.386 C  
HETATM    3  C   UNL     1     -10.405  15.729  67.239  1.00  0.00    -0.290 C  
ENDROOT
BRANCH   1   4
HETATM    4  C   UNL     1      -8.022  16.484  66.527  1.00  0.00    -0.310 C  
BRANCH   4   5
HETATM    5  N   UNL     1      -8.431  17.797  66.051  1.00  0.00    -0.522 NA 
HETATM    6  H   UNL     1      -8.913  17.893  65.157  1.00  0.00     0.000 HD 
BRANCH   5   7
HETATM    7  C   UNL     1      -8.182  18.835  66.764  1.00  0.00    -0.278 C  
HETATM    8  H   UNL     1      -6.769  19.980  67.703  1.00  0.00     0.000 HD 
HETATM    9  O   UNL     1      -6.954  19.212  67.174  1.00  0.00    -0.200 OA 
BRANCH   7  10
HETATM   10  C   UNL     1      -9.252  19.766  67.256  1.00  0.00    -0.437 C  
HETATM   11  C   UNL     1     -10.628  19.301  66.818  1.00  0.00    -0.543 C  
ENDBRANCH   7  10
ENDBRANCH   5   7
ENDBRANCH   4   5
ENDBRANCH   1   4
BRANCH   3  12
HETATM   12  C   UNL     1     -11.080  14.575  67.942  1.00  0.00    -0.290 A  
HETATM   13  C   UNL     1     -11.014  13.265  67.424  1.00  0.00    -0.287 A  
HETATM   14  C   UNL     1     -11.532  12.158  68.122  1.00  0.00    -0.375 A  
HETATM   15  C   UNL     1     -12.129  12.329  69.367  1.00  0.00    -0.234 A  
HETATM   16  C   UNL     1     -11.704  14.706  69.183  1.00  0.00    -0.342 A  
HETATM   17  C   UNL     1     -11.922  15.927  69.992  1.00  0.00    -0.297 C  
HETATM   18  C   UNL     1     -12.206  13.609  69.871  1.00  0.00    -0.304 A  
HETATM   19  O   UNL     1     -12.753  13.906  71.089  1.00  0.00    -0.334 OA 
HETATM   20  C   UNL     1     -12.622  15.338  71.218  1.00  0.00    -0.383 C  
ENDBRANCH   3  12
TORSDOF 5
ENDMDL
MODEL       60
REMARK 921   NORMALIZED FREE ENERGY PREDICTED BY IDOCK:   -4.83 KCAL/MOL
REMARK 922        TOTAL FREE ENERGY PREDICTED BY IDOCK:   -6.91 KCAL/MOL
REMARK 923 INTER-LIGAND FREE ENERGY PREDICTED BY IDOCK:   -6.77 KCAL/MOL
REMARK 924 INTRA-LIGAND FREE ENERGY PREDICTED BY IDOCK:   -0.14 KCAL/MOL
REMARK 927      BINDING AFFINITY PREDICTED BY RF-SCORE:    0.00 PKD
ROOT
HETATM    1  C   UNL     1     -11.348  10.222  70.961  1.00  0.00    -0.306 C  
HETATM    2  C   UNL     1     -12.590  10.579  71.727  1.00  0.00    -0.445 C  
HETATM    3  C   UNL     1     -12.381  11.154  70.350  1.00  0.00    -0.430 C  
ENDROOT
BRANCH   1   4
HETATM    4  C   UNL     1     -11.147   8.867  70.353  1.00  0.00    -0.239 C  
BRANCH   4   5
HETATM    5  N   UNL     1     -12.131   7.934  70.882  1.00  0.00    -0.468 NA 
HETATM    6  H   UNL     1     -13.100   7.976  70.568  1.00  0.00     0.000 HD 
BRANCH   5   7
HETATM    7  C   UNL     1     -11.770   7.057  71.747  1.00  0.00    -0.298 C  
HETATM    8  H   UNL     1     -12.319   5.487  72.940  1.00  0.00     0.000 HD 
HETATM    9  O   UNL     1     -12.586   6.137  72.299  1.00  0.00    -0.192 OA 
BRANCH   7  10
HETATM   10  C   UNL     1     -10.368   6.958  72.276  1.00  0.00    -0.219 C  
HETATM   11  C   UNL     1     -10.352   6.955  73.793  1.00  0.00    -0.409 C  
ENDBRANCH   7  10
ENDBRANCH   5   7
ENDBRANCH   4   5
ENDBRANCH   1   4
BRANCH   3  12
HETATM   12  C   UNL     1     -12.082  12.618  70.133  1.00  0.00    -0.368 A  
HETATM   13  C   UNL     1     -11.288  13.049  69.051  1.00  0.00    -0.340 A  
HETATM   14  C   UNL     1     -11.096  14.412  68.760  1.00  0.00    -0.275 A  
HETATM   15  C   UNL     1     -11.700  15.390  69.544  1.00  0.00    -0.364 A  
HETATM   16  C   UNL     1     -12.654  13.629  70.906  1.00  0.00    -0.421 A  
HETATM   17  C   UNL     1     -13.537  13.512  72.088  1.00  0.00    -0.651 C  
HETATM   18  C   UNL     1     -12.467  14.973  70.610  1.00  0.00    -0.365 A  
HETATM   19  O   UNL     1     -13.127  15.834  71.443  1.00  0.00    -0.493 OA 
HETATM   20  C   UNL     1     -13.801  14.986  72.398  1.00  0.00    -0.493 C  
ENDBRANCH   3  12
TORSDOF 5
ENDMDL
MODEL       61
REMARK 921   NORMALIZED FREE ENERGY PREDICTED BY IDOCK:   -4.83 KCAL/MOL
REMARK 922        TOTAL FREE ENERGY PREDICTED BY IDOCK:   -6.91 KCAL/MOL
REMARK 923 INTER-LIGAND FREE ENERGY PREDICTED BY IDOCK:   -6.45 KCAL/MOL
REMARK 924 INTRA-LIGAND FREE ENERGY PREDICTED BY IDOCK:   -0.46 KCAL/MOL
REMARK 927      BINDING AFFINITY PREDICTED BY RF-SCORE:    0.00 PKD
ROOT
HETATM    1  C   UNL     1     -11.320  12.696  68.690  1.00  0.00    -0.331 C  
HETATM    2  C   UNL     1     -11.513  11.638  67.641  1.00  0.00    -0.373 C  
HETATM    3  C   UNL     1     -11.991  11.380  69.047  1.00  0.00    -0.387 C  
ENDROOT
BRANCH   1   4
HETATM    4  C   UNL     1     -12.136  13.953  68.714  1.00  0.00    -0.309 C  
BRANCH   4   5
HETATM    5  N   UNL     1     -11.925  14.707  67.487  1.00  0.00    -0.534 NA 
HETATM    6  H   UNL     1     -12.544  14.573  66.688  1.00  0.00     0.000 HD 
BRANCH   5   7
HETATM    7  C   UNL     1     -10.953  15.543  67.418  1.00  0.00    -0.306 C  
HETATM    8  H   UNL     1     -10.287  17.443  67.783  1.00  0.00     0.000 HD 
HETATM    9  O   UNL     1     -11.006  16.824  67.834  1.00  0.00    -0.337 OA 
BRANCH   7  10
HETATM   10  C   UNL     1      -9.614  15.194  66.835  1.00  0.00    -0.252 C  
HETATM   11  C   UNL     1      -8.977  16.397  66.164  1.00  0.00    -0.367 C  
ENDBRANCH   7  10
ENDBRANCH   5   7
ENDBRANCH   4   5
ENDBRANCH   1   4
BRANCH   3  12
HETATM   12  C   UNL     1     -11.312  10.377  69.950  1.00  0.00    -0.370 A  
HETATM   13  C   UNL     1      -9.925  10.136  69.862  1.00  0.00    -0.250 A  
HETATM   14  C   UNL     1      -9.253   9.298  70.770  1.00  0.00    -0.316 A  
HETATM   15  C   UNL     1      -9.950   8.675  71.801  1.00  0.00    -0.371 A  
HETATM   16  C   UNL     1     -11.978   9.720  70.985  1.00  0.00    -0.440 A  
HETATM   17  C   UNL     1     -13.411   9.768  71.350  1.00  0.00    -0.449 C  
HETATM   18  C   UNL     1     -11.307   8.899  71.883  1.00  0.00    -0.376 A  
HETATM   19  O   UNL     1     -12.100   8.361  72.859  1.00  0.00    -0.277 OA 
HETATM   20  C   UNL     1     -13.428   8.851  72.574  1.00  0.00    -0.412 C  
ENDBRANCH   3  12
TORSDOF 5
ENDMDL
MODEL       62
REMARK 921   NORMALIZED FREE ENERGY PREDICTED BY IDOCK:   -4.78 KCAL/MOL
REMARK 922        TOTAL FREE ENERGY PREDICTED BY IDOCK:   -6.85 KCAL/MOL
REMARK 923 INTER-LIGAND FREE ENERGY PREDICTED BY IDOCK:   -6.57 KCAL/MOL
REMARK 924 INTRA-LIGAND FREE ENERGY PREDICTED BY IDOCK:   -0.29 KCAL/MOL
REMARK 927      BINDING AFFINITY PREDICTED BY RF-SCORE:    0.00 PKD
ROOT
HETATM    1  C   UNL     1     -11.971   8.787  71.900  1.00  0.00    -0.435 C  
HETATM    2  C   UNL     1     -13.050   9.544  72.623  1.00  0.00    -0.178 C  
HETATM    3  C   UNL     1     -12.840   9.783  71.149  1.00  0.00    -0.434 C  
ENDROOT
BRANCH   1   4
HETATM    4  C   UNL     1     -12.099   7.329  71.577  1.00  0.00    -0.331 C  
BRANCH   4   5
HETATM    5  N   UNL     1     -12.190   7.145  70.136  1.00  0.00    -0.539 NA 
HETATM    6  H   UNL     1     -12.954   7.570  69.610  1.00  0.00     0.000 HD 
BRANCH   5   7
HETATM    7  C   UNL     1     -11.302   6.443  69.531  1.00  0.00    -0.393 C  
HETATM    8  H   UNL     1      -9.837   5.022  69.676  1.00  0.00     0.000 HD 
HETATM    9  O   UNL     1     -10.495   5.541  70.124  1.00  0.00    -0.260 OA 
BRANCH   7  10
HETATM   10  C   UNL     1     -11.032   6.558  68.058  1.00  0.00    -0.368 C  
HETATM   11  C   UNL     1      -9.904   7.534  67.780  1.00  0.00    -0.191 C  
ENDBRANCH   7  10
ENDBRANCH   5   7
ENDBRANCH   4   5
ENDBRANCH   1   4
BRANCH   3  12
HETATM   12  C   UNL     1     -12.269  11.079  70.624  1.00  0.00    -0.481 A  
HETATM   13  C   UNL     1     -11.411  11.098  69.505  1.00  0.00    -0.359 A  
HETATM   14  C   UNL     1     -10.964  12.300  68.926  1.00  0.00    -0.265 A  
HETATM   15  C   UNL     1     -11.368  13.525  69.449  1.00  0.00    -0.293 A  
HETATM   16  C   UNL     1     -12.634  12.326  71.130  1.00  0.00    -0.353 A  
HETATM   17  C   UNL     1     -13.519  12.645  72.273  1.00  0.00    -0.541 C  
HETATM   18  C   UNL     1     -12.196  13.510  70.550  1.00  0.00    -0.361 A  
HETATM   19  O   UNL     1     -12.677  14.644  71.145  1.00  0.00    -0.300 OA 
HETATM   20  C   UNL     1     -13.496  14.174  72.237  1.00  0.00    -0.482 C  
ENDBRANCH   3  12
TORSDOF 5
ENDMDL
MODEL       63
REMARK 921   NORMALIZED FREE ENERGY PREDICTED BY IDOCK:   -4.77 KCAL/MOL
REMARK 922        TOTAL FREE ENERGY PREDICTED BY IDOCK:   -6.84 KCAL/MOL
REMARK 923 INTER-LIGAND FREE ENERGY PREDICTED BY IDOCK:   -6.23 KCAL/MOL
REMARK 924 INTRA-LIGAND FREE ENERGY PREDICTED BY IDOCK:   -0.61 KCAL/MOL
REMARK 927      BINDING AFFINITY PREDICTED BY RF-SCORE:    0.00 PKD
ROOT
HETATM    1  C   UNL     1     -11.016  10.015  70.344  1.00  0.00    -0.384 C  
HETATM    2  C   UNL     1     -12.269  10.135  71.166  1.00  0.00    -0.490 C  
HETATM    3  C   UNL     1     -12.208  10.792  69.810  1.00  0.00    -0.359 C  
ENDROOT
BRANCH   1   4
HETATM    4  C   UNL     1     -10.625   8.736  69.668  1.00  0.00    -0.219 C  
BRANCH   4   5
HETATM    5  N   UNL     1     -11.530   7.667  70.065  1.00  0.00    -0.476 NA 
HETATM    6  H   UNL     1     -12.494   7.878  70.322  1.00  0.00     0.000 HD 
BRANCH   5   7
HETATM    7  C   UNL     1     -11.106   6.456  70.091  1.00  0.00    -0.365 C  
HETATM    8  H   UNL     1     -10.567   4.798  69.020  1.00  0.00     0.000 HD 
HETATM    9  O   UNL     1     -10.881   5.694  69.002  1.00  0.00    -0.265 OA 
BRANCH   7  10
HETATM   10  C   UNL     1     -10.819   5.716  71.366  1.00  0.00    -0.290 C  
HETATM   11  C   UNL     1     -11.088   6.587  72.579  1.00  0.00    -0.294 C  
ENDBRANCH   7  10
ENDBRANCH   5   7
ENDBRANCH   4   5
ENDBRANCH   1   4
BRANCH   3  12
HETATM   12  C   UNL     1     -12.156  12.293  69.652  1.00  0.00    -0.277 A  
HETATM   13  C   UNL     1     -12.465  13.152  70.726  1.00  0.00    -0.389 A  
HETATM   14  C   UNL     1     -12.307  14.548  70.637  1.00  0.00    -0.407 A  
HETATM   15  C   UNL     1     -11.828  15.128  69.467  1.00  0.00    -0.358 A  
HETATM   16  C   UNL     1     -11.698  12.915  68.490  1.00  0.00    -0.374 A  
HETATM   17  C   UNL     1     -11.284  12.304  67.207  1.00  0.00    -0.358 C  
HETATM   18  C   UNL     1     -11.537  14.292  68.410  1.00  0.00    -0.320 A  
HETATM   19  O   UNL     1     -11.043  14.737  67.215  1.00  0.00    -0.312 OA 
HETATM   20  C   UNL     1     -10.879  13.547  66.413  1.00  0.00    -0.290 C  
ENDBRANCH   3  12
TORSDOF 5
ENDMDL
MODEL       64
REMARK 921   NORMALIZED FREE ENERGY PREDICTED BY IDOCK:   -4.77 KCAL/MOL
REMARK 922        TOTAL FREE ENERGY PREDICTED BY IDOCK:   -6.83 KCAL/MOL
REMARK 923 INTER-LIGAND FREE ENERGY PREDICTED BY IDOCK:   -6.76 KCAL/MOL
REMARK 924 INTRA-LIGAND FREE ENERGY PREDICTED BY IDOCK:   -0.08 KCAL/MOL
REMARK 927      BINDING AFFINITY PREDICTED BY RF-SCORE:    0.00 PKD
ROOT
HETATM    1  C   UNL     1      -9.778  12.146  68.107  1.00  0.00    -0.208 C  
HETATM    2  C   UNL     1      -9.611  10.874  68.890  1.00  0.00    -0.192 C  
HETATM    3  C   UNL     1     -10.997  11.415  68.646  1.00  0.00    -0.267 C  
ENDROOT
BRANCH   1   4
HETATM    4  C   UNL     1      -9.567  12.202  66.624  1.00  0.00    -0.220 C  
BRANCH   4   5
HETATM    5  N   UNL     1     -10.425  13.222  66.038  1.00  0.00    -0.281 NA 
HETATM    6  H   UNL     1     -10.250  14.209  66.223  1.00  0.00     0.000 HD 
BRANCH   5   7
HETATM    7  C   UNL     1     -11.403  12.868  65.287  1.00  0.00    -0.300 C  
HETATM    8  H   UNL     1     -13.346  12.236  65.173  1.00  0.00     0.000 HD 
HETATM    9  O   UNL     1     -12.622  12.497  65.729  1.00  0.00    -0.569 OA 
BRANCH   7  10
HETATM   10  C   UNL     1     -11.304  12.805  63.790  1.00  0.00    -0.520 C  
HETATM   11  C   UNL     1     -10.317  11.740  63.349  1.00  0.00    -0.481 C  
ENDBRANCH   7  10
ENDBRANCH   5   7
ENDBRANCH   4   5
ENDBRANCH   1   4
BRANCH   3  12
HETATM   12  C   UNL     1     -11.832  12.003  69.758  1.00  0.00    -0.401 A  
HETATM   13  C   UNL     1     -12.388  11.186  70.765  1.00  0.00    -0.504 A  
HETATM   14  C   UNL     1     -13.066  11.724  71.874  1.00  0.00    -0.482 A  
HETATM   15  C   UNL     1     -13.206  13.101  72.013  1.00  0.00    -0.543 A  
HETATM   16  C   UNL     1     -12.011  13.376  69.924  1.00  0.00    -0.408 A  
HETATM   17  C   UNL     1     -11.547  14.487  69.063  1.00  0.00    -0.330 C  
HETATM   18  C   UNL     1     -12.675  13.902  71.025  1.00  0.00    -0.357 A  
HETATM   19  O   UNL     1     -12.731  15.268  71.054  1.00  0.00    -0.356 OA 
HETATM   20  C   UNL     1     -12.060  15.695  69.850  1.00  0.00    -0.341 C  
ENDBRANCH   3  12
TORSDOF 5
ENDMDL
MODEL       65
REMARK 921   NORMALIZED FREE ENERGY PREDICTED BY IDOCK:   -4.75 KCAL/MOL
REMARK 922        TOTAL FREE ENERGY PREDICTED BY IDOCK:   -6.81 KCAL/MOL
REMARK 923 INTER-LIGAND FREE ENERGY PREDICTED BY IDOCK:   -6.16 KCAL/MOL
REMARK 924 INTRA-LIGAND FREE ENERGY PREDICTED BY IDOCK:   -0.65 KCAL/MOL
REMARK 927      BINDING AFFINITY PREDICTED BY RF-SCORE:    0.00 PKD
ROOT
HETATM    1  C   UNL     1     -10.465  15.236  66.415  1.00  0.00    -0.307 C  
HETATM    2  C   UNL     1     -11.053  15.597  65.080  1.00  0.00    -0.399 C  
HETATM    3  C   UNL     1     -11.455  14.302  65.739  1.00  0.00    -0.335 C  
ENDROOT
BRANCH   1   4
HETATM    4  C   UNL     1     -10.873  15.929  67.680  1.00  0.00    -0.312 C  
BRANCH   4   5
HETATM    5  N   UNL     1     -11.485  14.976  68.594  1.00  0.00    -0.295 NA 
HETATM    6  H   UNL     1     -11.656  14.015  68.297  1.00  0.00     0.000 HD 
BRANCH   5   7
HETATM    7  C   UNL     1     -11.809  15.353  69.777  1.00  0.00    -0.347 C  
HETATM    8  H   UNL     1     -11.610  16.758  71.252  1.00  0.00     0.000 HD 
HETATM    9  O   UNL     1     -11.370  16.479  70.375  1.00  0.00    -0.299 OA 
BRANCH   7  10
HETATM   10  C   UNL     1     -12.722  14.561  70.667  1.00  0.00    -0.421 C  
HETATM   11  C   UNL     1     -12.399  13.079  70.607  1.00  0.00    -0.391 C  
ENDBRANCH   7  10
ENDBRANCH   5   7
ENDBRANCH   4   5
ENDBRANCH   1   4
BRANCH   3  12
HETATM   12  C   UNL     1     -11.020  12.961  65.197  1.00  0.00    -0.316 A  
HETATM   13  C   UNL     1     -10.597  12.816  63.860  1.00  0.00    -0.427 A  
HETATM   14  C   UNL     1     -10.074  11.606  63.367  1.00  0.00    -0.468 A  
HETATM   15  C   UNL     1      -9.954  10.500  64.203  1.00  0.00    -0.385 A  
HETATM   16  C   UNL     1     -10.902  11.824  65.997  1.00  0.00    -0.343 A  
HETATM   17  C   UNL     1     -11.242  11.651  67.427  1.00  0.00    -0.358 C  
HETATM   18  C   UNL     1     -10.378  10.634  65.508  1.00  0.00    -0.227 A  
HETATM   19  O   UNL     1     -10.296   9.629  66.432  1.00  0.00    -0.237 OA 
HETATM   20  C   UNL     1     -10.835  10.193  67.646  1.00  0.00    -0.290 C  
ENDBRANCH   3  12
TORSDOF 5
ENDMDL
MODEL       66
REMARK 921   NORMALIZED FREE ENERGY PREDICTED BY IDOCK:   -4.74 KCAL/MOL
REMARK 922        TOTAL FREE ENERGY PREDICTED BY IDOCK:   -6.81 KCAL/MOL
REMARK 923 INTER-LIGAND FREE ENERGY PREDICTED BY IDOCK:   -6.05 KCAL/MOL
REMARK 924 INTRA-LIGAND FREE ENERGY PREDICTED BY IDOCK:   -0.75 KCAL/MOL
REMARK 927      BINDING AFFINITY PREDICTED BY RF-SCORE:    0.00 PKD
ROOT
HETATM    1  C   UNL     1      -9.652  12.331  67.908  1.00  0.00    -0.203 C  
HETATM    2  C   UNL     1      -9.611  10.941  68.478  1.00  0.00    -0.187 C  
HETATM    3  C   UNL     1     -10.933  11.658  68.375  1.00  0.00    -0.265 C  
ENDROOT
BRANCH   1   4
HETATM    4  C   UNL     1      -9.469  12.599  66.445  1.00  0.00    -0.231 C  
BRANCH   4   5
HETATM    5  N   UNL     1      -9.337  14.030  66.213  1.00  0.00    -0.470 NA 
HETATM    6  H   UNL     1      -8.620  14.384  65.581  1.00  0.00     0.000 HD 
BRANCH   5   7
HETATM    7  C   UNL     1     -10.130  14.843  66.811  1.00  0.00    -0.251 C  
HETATM    8  H   UNL     1     -12.042  15.539  67.025  1.00  0.00     0.000 HD 
HETATM    9  O   UNL     1     -11.455  14.937  66.583  1.00  0.00    -0.349 OA 
BRANCH   7  10
HETATM   10  C   UNL     1      -9.665  15.825  67.848  1.00  0.00    -0.216 C  
HETATM   11  C   UNL     1     -10.709  16.898  68.095  1.00  0.00    -0.375 C  
ENDBRANCH   7  10
ENDBRANCH   5   7
ENDBRANCH   4   5
ENDBRANCH   1   4
BRANCH   3  12
HETATM   12  C   UNL     1     -11.672  12.149  69.597  1.00  0.00    -0.396 A  
HETATM   13  C   UNL     1     -11.954  13.518  69.780  1.00  0.00    -0.405 A  
HETATM   14  C   UNL     1     -12.744  13.983  70.847  1.00  0.00    -0.420 A  
HETATM   15  C   UNL     1     -13.282  13.087  71.766  1.00  0.00    -0.486 A  
HETATM   16  C   UNL     1     -12.213  11.285  70.550  1.00  0.00    -0.474 A  
HETATM   17  C   UNL     1     -12.113   9.811  70.636  1.00  0.00    -0.311 C  
HETATM   18  C   UNL     1     -12.998  11.749  71.598  1.00  0.00    -0.362 A  
HETATM   19  O   UNL     1     -13.482  10.769  72.421  1.00  0.00    -0.229 OA 
HETATM   20  C   UNL     1     -12.952   9.538  71.885  1.00  0.00    -0.425 C  
ENDBRANCH   3  12
TORSDOF 5
ENDMDL
MODEL       67
REMARK 921   NORMALIZED FREE ENERGY PREDICTED BY IDOCK:   -4.73 KCAL/MOL
REMARK 922        TOTAL FREE ENERGY PREDICTED BY IDOCK:   -6.79 KCAL/MOL
REMARK 923 INTER-LIGAND FREE ENERGY PREDICTED BY IDOCK:   -6.41 KCAL/MOL
REMARK 924 INTRA-LIGAND FREE ENERGY PREDICTED BY IDOCK:   -0.38 KCAL/MOL
REMARK 927      BINDING AFFINITY PREDICTED BY RF-SCORE:    0.00 PKD
ROOT
HETATM    1  C   UNL     1     -12.389  11.427  69.593  1.00  0.00    -0.236 C  
HETATM    2  C   UNL     1     -12.603  12.020  70.957  1.00  0.00    -0.370 C  
HETATM    3  C   UNL     1     -11.859  10.715  70.827  1.00  0.00    -0.459 C  
ENDROOT
BRANCH   1   4
HETATM    4  C   UNL     1     -11.410  12.006  68.617  1.00  0.00    -0.277 C  
BRANCH   4   5
HETATM    5  N   UNL     1     -11.988  12.019  67.281  1.00  0.00    -0.590 NA 
HETATM    6  H   UNL     1     -12.508  11.211  66.938  1.00  0.00     0.000 HD 
BRANCH   5   7
HETATM    7  C   UNL     1     -11.840  13.054  66.538  1.00  0.00    -0.403 C  
HETATM    8  H   UNL     1     -10.993  14.903  66.309  1.00  0.00     0.000 HD 
HETATM    9  O   UNL     1     -11.103  14.136  66.859  1.00  0.00    -0.296 OA 
BRANCH   7  10
HETATM   10  C   UNL     1     -12.499  13.199  65.196  1.00  0.00    -0.539 C  
HETATM   11  C   UNL     1     -11.944  12.197  64.200  1.00  0.00    -0.497 C  
ENDBRANCH   7  10
ENDBRANCH   5   7
ENDBRANCH   4   5
ENDBRANCH   1   4
BRANCH   3  12
HETATM   12  C   UNL     1     -12.454   9.406  71.290  1.00  0.00    -0.416 A  
HETATM   13  C   UNL     1     -13.844   9.177  71.239  1.00  0.00    -0.213 A  
HETATM   14  C   UNL     1     -14.408   7.926  71.552  1.00  0.00    -0.563 A  
HETATM   15  C   UNL     1     -13.593   6.861  71.922  1.00  0.00    -0.186 A  
HETATM   16  C   UNL     1     -11.674   8.319  71.685  1.00  0.00    -0.341 A  
HETATM   17  C   UNL     1     -10.203   8.230  71.827  1.00  0.00    -0.297 C  
HETATM   18  C   UNL     1     -12.235   7.085  71.984  1.00  0.00    -0.282 A  
HETATM   19  O   UNL     1     -11.328   6.116  72.317  1.00  0.00    -0.271 OA 
HETATM   20  C   UNL     1     -10.043   6.770  72.254  1.00  0.00    -0.173 C  
ENDBRANCH   3  12
TORSDOF 5
ENDMDL
MODEL       68
REMARK 921   NORMALIZED FREE ENERGY PREDICTED BY IDOCK:   -4.72 KCAL/MOL
REMARK 922        TOTAL FREE ENERGY PREDICTED BY IDOCK:   -6.78 KCAL/MOL
REMARK 923 INTER-LIGAND FREE ENERGY PREDICTED BY IDOCK:   -6.12 KCAL/MOL
REMARK 924 INTRA-LIGAND FREE ENERGY PREDICTED BY IDOCK:   -0.66 KCAL/MOL
REMARK 927      BINDING AFFINITY PREDICTED BY RF-SCORE:    0.00 PKD
ROOT
HETATM    1  C   UNL     1     -10.219  15.274  68.337  1.00  0.00    -0.223 C  
HETATM    2  C   UNL     1     -11.517  15.952  68.678  1.00  0.00    -0.391 C  
HETATM    3  C   UNL     1     -10.784  16.348  67.421  1.00  0.00    -0.278 C  
ENDROOT
BRANCH   1   4
HETATM    4  C   UNL     1     -10.164  13.860  67.844  1.00  0.00    -0.241 C  
BRANCH   4   5
HETATM    5  N   UNL     1     -11.492  13.423  67.437  1.00  0.00    -0.315 NA 
HETATM    6  H   UNL     1     -12.322  13.829  67.869  1.00  0.00     0.000 HD 
BRANCH   5   7
HETATM    7  C   UNL     1     -11.611  12.523  66.530  1.00  0.00    -0.388 C  
HETATM    8  H   UNL     1     -11.270  10.583  65.973  1.00  0.00     0.000 HD 
HETATM    9  O   UNL     1     -11.182  11.250  66.645  1.00  0.00    -0.284 OA 
BRANCH   7  10
HETATM   10  C   UNL     1     -12.239  12.788  65.192  1.00  0.00    -0.530 C  
HETATM   11  C   UNL     1     -12.075  14.241  64.786  1.00  0.00    -0.457 C  
ENDBRANCH   7  10
ENDBRANCH   5   7
ENDBRANCH   4   5
ENDBRANCH   1   4
BRANCH   3  12
HETATM   12  C   UNL     1     -10.107  17.691  67.281  1.00  0.00    -0.331 A  
HETATM   13  C   UNL     1     -10.719  18.870  67.752  1.00  0.00    -0.426 A  
HETATM   14  C   UNL     1     -10.058  20.112  67.741  1.00  0.00    -0.540 A  
HETATM   15  C   UNL     1      -8.755  20.211  67.261  1.00  0.00    -0.429 A  
HETATM   16  C   UNL     1      -8.809  17.835  66.790  1.00  0.00    -0.275 A  
HETATM   17  C   UNL     1      -7.900  16.804  66.241  1.00  0.00    -0.334 C  
HETATM   18  C   UNL     1      -8.158  19.062  66.789  1.00  0.00    -0.269 A  
HETATM   19  O   UNL     1      -6.878  19.024  66.309  1.00  0.00    -0.201 OA 
HETATM   20  C   UNL     1      -6.660  17.647  65.935  1.00  0.00    -0.204 C  
ENDBRANCH   3  12
TORSDOF 5
ENDMDL
MODEL       69
REMARK 921   NORMALIZED FREE ENERGY PREDICTED BY IDOCK:   -4.70 KCAL/MOL
REMARK 922        TOTAL FREE ENERGY PREDICTED BY IDOCK:   -6.75 KCAL/MOL
REMARK 923 INTER-LIGAND FREE ENERGY PREDICTED BY IDOCK:   -6.27 KCAL/MOL
REMARK 924 INTRA-LIGAND FREE ENERGY PREDICTED BY IDOCK:   -0.48 KCAL/MOL
REMARK 927      BINDING AFFINITY PREDICTED BY RF-SCORE:    0.00 PKD
ROOT
HETATM    1  C   UNL     1     -12.516  11.061  70.190  1.00  0.00    -0.344 C  
HETATM    2  C   UNL     1     -13.007  10.841  71.594  1.00  0.00    -0.581 C  
HETATM    3  C   UNL     1     -11.654  10.310  71.192  1.00  0.00    -0.385 C  
ENDROOT
BRANCH   1   4
HETATM    4  C   UNL     1     -12.059  12.404  69.708  1.00  0.00    -0.223 C  
BRANCH   4   5
HETATM    5  N   UNL     1     -12.159  13.380  70.783  1.00  0.00    -0.497 NA 
HETATM    6  H   UNL     1     -12.039  13.090  71.753  1.00  0.00     0.000 HD 
BRANCH   5   7
HETATM    7  C   UNL     1     -12.401  14.609  70.502  1.00  0.00    -0.337 C  
HETATM    8  H   UNL     1     -12.209  16.136  69.153  1.00  0.00     0.000 HD 
HETATM    9  O   UNL     1     -12.031  15.226  69.362  1.00  0.00    -0.321 OA 
BRANCH   7  10
HETATM   10  C   UNL     1     -13.124  15.536  71.436  1.00  0.00    -0.580 C  
HETATM   11  C   UNL     1     -13.456  14.846  72.746  1.00  0.00    -0.566 C  
ENDBRANCH   7  10
ENDBRANCH   5   7
ENDBRANCH   4   5
ENDBRANCH   1   4
BRANCH   3  12
HETATM   12  C   UNL     1     -11.390   8.831  71.041  1.00  0.00    -0.332 A  
HETATM   13  C   UNL     1     -11.861   7.903  71.993  1.00  0.00    -0.364 A  
HETATM   14  C   UNL     1     -11.731   6.514  71.811  1.00  0.00    -0.373 A  
HETATM   15  C   UNL     1     -11.126   6.008  70.665  1.00  0.00    -0.371 A  
HETATM   16  C   UNL     1     -10.772   8.285  69.916  1.00  0.00    -0.234 A  
HETATM   17  C   UNL     1     -10.188   8.977  68.745  1.00  0.00    -0.226 C  
HETATM   18  C   UNL     1     -10.653   6.912  69.739  1.00  0.00    -0.233 A  
HETATM   19  O   UNL     1     -10.056   6.542  68.565  1.00  0.00    -0.146 OA 
HETATM   20  C   UNL     1      -9.727   7.784  67.906  1.00  0.00    -0.153 C  
ENDBRANCH   3  12
TORSDOF 5
ENDMDL
MODEL       70
REMARK 921   NORMALIZED FREE ENERGY PREDICTED BY IDOCK:   -4.69 KCAL/MOL
REMARK 922        TOTAL FREE ENERGY PREDICTED BY IDOCK:   -6.74 KCAL/MOL
REMARK 923 INTER-LIGAND FREE ENERGY PREDICTED BY IDOCK:   -6.27 KCAL/MOL
REMARK 924 INTRA-LIGAND FREE ENERGY PREDICTED BY IDOCK:   -0.47 KCAL/MOL
REMARK 927      BINDING AFFINITY PREDICTED BY RF-SCORE:    0.00 PKD
ROOT
HETATM    1  C   UNL     1     -11.361  13.019  63.959  1.00  0.00    -0.458 C  
HETATM    2  C   UNL     1     -12.390  12.052  63.445  1.00  0.00    -0.635 C  
HETATM    3  C   UNL     1     -11.436  11.610  64.525  1.00  0.00    -0.272 C  
ENDROOT
BRANCH   1   4
HETATM    4  C   UNL     1     -11.723  14.173  64.844  1.00  0.00    -0.392 C  
BRANCH   4   5
HETATM    5  N   UNL     1     -11.397  15.428  64.183  1.00  0.00    -0.674 NA 
HETATM    6  H   UNL     1     -11.541  15.533  63.178  1.00  0.00     0.000 HD 
BRANCH   5   7
HETATM    7  C   UNL     1     -10.926  16.403  64.872  1.00  0.00    -0.263 C  
HETATM    8  H   UNL     1     -10.802  18.430  65.128  1.00  0.00     0.000 HD 
HETATM    9  O   UNL     1     -11.151  17.708  64.618  1.00  0.00    -0.906 OA 
BRANCH   7  10
HETATM   10  C   UNL     1     -10.032  16.206  66.063  1.00  0.00    -0.373 C  
HETATM   11  C   UNL     1     -10.474  17.070  67.230  1.00  0.00    -0.301 C  
ENDBRANCH   7  10
ENDBRANCH   5   7
ENDBRANCH   4   5
ENDBRANCH   1   4
BRANCH   3  12
HETATM   12  C   UNL     1     -10.342  10.603  64.261  1.00  0.00    -0.325 A  
HETATM   13  C   UNL     1      -9.795  10.440  62.972  1.00  0.00    -0.192 A  
HETATM   14  C   UNL     1      -8.696   9.596  62.727  1.00  0.00    -0.225 A  
HETATM   15  C   UNL     1      -8.105   8.890  63.770  1.00  0.00    -0.163 A  
HETATM   16  C   UNL     1      -9.734   9.863  65.276  1.00  0.00    -0.383 A  
HETATM   17  C   UNL     1     -10.058   9.819  66.719  1.00  0.00    -0.295 C  
HETATM   18  C   UNL     1      -8.645   9.038  65.030  1.00  0.00    -0.181 A  
HETATM   19  O   UNL     1      -8.145   8.413  66.139  1.00  0.00    -0.099 OA 
HETATM   20  C   UNL     1      -8.993   8.846  67.225  1.00  0.00    -0.128 C  
ENDBRANCH   3  12
TORSDOF 5
ENDMDL
MODEL       71
REMARK 921   NORMALIZED FREE ENERGY PREDICTED BY IDOCK:   -4.69 KCAL/MOL
REMARK 922        TOTAL FREE ENERGY PREDICTED BY IDOCK:   -6.74 KCAL/MOL
REMARK 923 INTER-LIGAND FREE ENERGY PREDICTED BY IDOCK:   -6.07 KCAL/MOL
REMARK 924 INTRA-LIGAND FREE ENERGY PREDICTED BY IDOCK:   -0.67 KCAL/MOL
REMARK 927      BINDING AFFINITY PREDICTED BY RF-SCORE:    0.00 PKD
ROOT
HETATM    1  C   UNL     1     -10.376  10.267  68.682  1.00  0.00    -0.203 C  
HETATM    2  C   UNL     1     -11.447  10.321  69.735  1.00  0.00    -0.320 C  
HETATM    3  C   UNL     1     -11.668  11.022  68.418  1.00  0.00    -0.329 C  
ENDROOT
BRANCH   1   4
HETATM    4  C   UNL     1     -10.091   9.024  67.896  1.00  0.00    -0.197 C  
BRANCH   4   5
HETATM    5  N   UNL     1     -11.161   8.056  68.093  1.00  0.00    -0.352 NA 
HETATM    6  H   UNL     1     -12.133   8.362  68.118  1.00  0.00     0.000 HD 
BRANCH   5   7
HETATM    7  C   UNL     1     -10.871   6.813  68.233  1.00  0.00    -0.226 C  
HETATM    8  H   UNL     1     -10.396   5.043  67.323  1.00  0.00     0.000 HD 
HETATM    9  O   UNL     1     -10.610   5.963  67.220  1.00  0.00    -0.230 OA 
BRANCH   7  10
HETATM   10  C   UNL     1     -10.806   6.134  69.570  1.00  0.00    -0.428 C  
HETATM   11  C   UNL     1     -11.755   6.781  70.562  1.00  0.00    -0.430 C  
ENDBRANCH   7  10
ENDBRANCH   5   7
ENDBRANCH   4   5
ENDBRANCH   1   4
BRANCH   3  12
HETATM   12  C   UNL     1     -11.686  12.528  68.309  1.00  0.00    -0.390 A  
HETATM   13  C   UNL     1     -11.472  13.345  69.438  1.00  0.00    -0.333 A  
HETATM   14  C   UNL     1     -11.365  14.744  69.339  1.00  0.00    -0.312 A  
HETATM   15  C   UNL     1     -11.464  15.371  68.101  1.00  0.00    -0.352 A  
HETATM   16  C   UNL     1     -11.800  13.196  67.090  1.00  0.00    -0.424 A  
HETATM   17  C   UNL     1     -12.013  12.636  65.736  1.00  0.00    -0.503 C  
HETATM   18  C   UNL     1     -11.685  14.577  66.997  1.00  0.00    -0.393 A  
HETATM   19  O   UNL     1     -11.783  15.070  65.725  1.00  0.00    -0.251 OA 
HETATM   20  C   UNL     1     -12.005  13.911  64.892  1.00  0.00    -0.395 C  
ENDBRANCH   3  12
TORSDOF 5
ENDMDL
MODEL       72
REMARK 921   NORMALIZED FREE ENERGY PREDICTED BY IDOCK:   -4.69 KCAL/MOL
REMARK 922        TOTAL FREE ENERGY PREDICTED BY IDOCK:   -6.73 KCAL/MOL
REMARK 923 INTER-LIGAND FREE ENERGY PREDICTED BY IDOCK:   -5.60 KCAL/MOL
REMARK 924 INTRA-LIGAND FREE ENERGY PREDICTED BY IDOCK:   -1.13 KCAL/MOL
REMARK 927      BINDING AFFINITY PREDICTED BY RF-SCORE:    0.00 PKD
ROOT
HETATM    1  C   UNL     1      -9.239  18.786  66.763  1.00  0.00    -0.321 C  
HETATM    2  C   UNL     1     -10.684  19.175  66.907  1.00  0.00    -0.515 C  
HETATM    3  C   UNL     1     -10.186  17.922  67.581  1.00  0.00    -0.369 C  
ENDROOT
BRANCH   1   4
HETATM    4  C   UNL     1      -8.142  19.522  67.469  1.00  0.00    -0.290 C  
BRANCH   4   5
HETATM    5  N   UNL     1      -6.906  18.755  67.404  1.00  0.00    -0.203 NA 
HETATM    6  H   UNL     1      -6.245  18.908  66.643  1.00  0.00     0.000 HD 
BRANCH   5   7
HETATM    7  C   UNL     1      -6.654  17.884  68.312  1.00  0.00    -0.199 C  
HETATM    8  H   UNL     1      -5.988  17.522  70.213  1.00  0.00     0.000 HD 
HETATM    9  O   UNL     1      -6.175  18.166  69.541  1.00  0.00    -0.241 OA 
BRANCH   7  10
HETATM   10  C   UNL     1      -6.848  16.409  68.108  1.00  0.00    -0.138 C  
HETATM   11  C   UNL     1      -7.677  15.804  69.226  1.00  0.00    -0.224 C  
ENDBRANCH   7  10
ENDBRANCH   5   7
ENDBRANCH   4   5
ENDBRANCH   1   4
BRANCH   3  12
HETATM   12  C   UNL     1     -10.592  16.546  67.108  1.00  0.00    -0.270 A  
HETATM   13  C   UNL     1     -10.243  16.082  65.824  1.00  0.00    -0.401 A  
HETATM   14  C   UNL     1     -10.506  14.763  65.408  1.00  0.00    -0.401 A  
HETATM   15  C   UNL     1     -11.125  13.864  66.271  1.00  0.00    -0.304 A  
HETATM   16  C   UNL     1     -11.228  15.620  67.936  1.00  0.00    -0.328 A  
HETATM   17  C   UNL     1     -11.707  15.787  69.327  1.00  0.00    -0.384 C  
HETATM   18  C   UNL     1     -11.478  14.318  67.523  1.00  0.00    -0.345 A  
HETATM   19  O   UNL     1     -12.075  13.528  68.467  1.00  0.00    -0.359 OA 
HETATM   20  C   UNL     1     -12.260  14.390  69.611  1.00  0.00    -0.307 C  
ENDBRANCH   3  12
TORSDOF 5
ENDMDL
MODEL       73
REMARK 921   NORMALIZED FREE ENERGY PREDICTED BY IDOCK:   -4.65 KCAL/MOL
REMARK 922        TOTAL FREE ENERGY PREDICTED BY IDOCK:   -6.69 KCAL/MOL
REMARK 923 INTER-LIGAND FREE ENERGY PREDICTED BY IDOCK:   -6.10 KCAL/MOL
REMARK 924 INTRA-LIGAND FREE ENERGY PREDICTED BY IDOCK:   -0.58 KCAL/MOL
REMARK 927      BINDING AFFINITY PREDICTED BY RF-SCORE:    0.00 PKD
ROOT
HETATM    1  C   UNL     1     -10.986  11.296  69.479  1.00  0.00    -0.249 C  
HETATM    2  C   UNL     1     -12.349  11.840  69.804  1.00  0.00    -0.175 C  
HETATM    3  C   UNL     1     -11.838  11.925  68.388  1.00  0.00    -0.352 C  
ENDROOT
BRANCH   1   4
HETATM    4  C   UNL     1     -10.708   9.825  69.420  1.00  0.00    -0.228 C  
BRANCH   4   5
HETATM    5  N   UNL     1     -11.736   9.095  70.148  1.00  0.00    -0.465 NA 
HETATM    6  H   UNL     1     -12.622   8.868  69.697  1.00  0.00     0.000 HD 
BRANCH   5   7
HETATM    7  C   UNL     1     -11.519   8.739  71.362  1.00  0.00    -0.297 C  
HETATM    8  H   UNL     1     -10.140   8.249  72.793  1.00  0.00     0.000 HD 
HETATM    9  O   UNL     1     -10.301   8.513  71.894  1.00  0.00    -0.252 OA 
BRANCH   7  10
HETATM   10  C   UNL     1     -12.620   8.507  72.356  1.00  0.00    -0.409 C  
HETATM   11  C   UNL     1     -13.979   8.804  71.749  1.00  0.00    -0.475 C  
ENDBRANCH   7  10
ENDBRANCH   5   7
ENDBRANCH   4   5
ENDBRANCH   1   4
BRANCH   3  12
HETATM   12  C   UNL     1     -11.452  13.242  67.756  1.00  0.00    -0.354 A  
HETATM   13  C   UNL     1     -10.722  14.211  68.475  1.00  0.00    -0.262 A  
HETATM   14  C   UNL     1     -10.249  15.390  67.871  1.00  0.00    -0.239 A  
HETATM   15  C   UNL     1     -10.488  15.635  66.523  1.00  0.00    -0.303 A  
HETATM   16  C   UNL     1     -11.688  13.533  66.413  1.00  0.00    -0.405 A  
HETATM   17  C   UNL     1     -12.403  12.729  65.396  1.00  0.00    -0.528 C  
HETATM   18  C   UNL     1     -11.212  14.696  65.820  1.00  0.00    -0.336 A  
HETATM   19  O   UNL     1     -11.498  14.811  64.487  1.00  0.00    -0.377 OA 
HETATM   20  C   UNL     1     -12.254  13.624  64.164  1.00  0.00    -0.399 C  
ENDBRANCH   3  12
TORSDOF 5
ENDMDL
MODEL       74
REMARK 921   NORMALIZED FREE ENERGY PREDICTED BY IDOCK:   -4.65 KCAL/MOL
REMARK 922        TOTAL FREE ENERGY PREDICTED BY IDOCK:   -6.68 KCAL/MOL
REMARK 923 INTER-LIGAND FREE ENERGY PREDICTED BY IDOCK:   -5.75 KCAL/MOL
REMARK 924 INTRA-LIGAND FREE ENERGY PREDICTED BY IDOCK:   -0.93 KCAL/MOL
REMARK 927      BINDING AFFINITY PREDICTED BY RF-SCORE:    0.00 PKD
ROOT
HETATM    1  C   UNL     1     -10.609  13.207  66.186  1.00  0.00    -0.288 C  
HETATM    2  C   UNL     1     -12.053  12.872  65.938  1.00  0.00    -0.503 C  
HETATM    3  C   UNL     1     -11.436  12.537  67.272  1.00  0.00    -0.416 C  
ENDROOT
BRANCH   1   4
HETATM    4  C   UNL     1     -10.143  14.615  66.398  1.00  0.00    -0.278 C  
BRANCH   4   5
HETATM    5  N   UNL     1     -11.170  15.381  67.090  1.00  0.00    -0.300 NA 
HETATM    6  H   UNL     1     -12.132  15.373  66.751  1.00  0.00     0.000 HD 
BRANCH   5   7
HETATM    7  C   UNL     1     -10.856  16.065  68.129  1.00  0.00    -0.322 C  
HETATM    8  H   UNL     1     -10.285  17.877  68.889  1.00  0.00     0.000 HD 
HETATM    9  O   UNL     1     -10.518  17.370  68.120  1.00  0.00    -0.355 OA 
BRANCH   7  10
HETATM   10  C   UNL     1     -10.807  15.480  69.511  1.00  0.00    -0.267 C  
HETATM   11  C   UNL     1     -12.181  15.018  69.960  1.00  0.00    -0.373 C  
ENDBRANCH   7  10
ENDBRANCH   5   7
ENDBRANCH   4   5
ENDBRANCH   1   4
BRANCH   3  12
HETATM   12  C   UNL     1     -11.167  11.112  67.692  1.00  0.00    -0.364 A  
HETATM   13  C   UNL     1     -10.527  10.203  66.824  1.00  0.00    -0.270 A  
HETATM   14  C   UNL     1     -10.159   8.909  67.236  1.00  0.00    -0.303 A  
HETATM   15  C   UNL     1     -10.416   8.484  68.536  1.00  0.00    -0.205 A  
HETATM   16  C   UNL     1     -11.425  10.642  68.980  1.00  0.00    -0.342 A  
HETATM   17  C   UNL     1     -12.064  11.341  70.117  1.00  0.00    -0.448 C  
HETATM   18  C   UNL     1     -11.052   9.366  69.383  1.00  0.00    -0.076 A  
HETATM   19  O   UNL     1     -11.344   9.076  70.687  1.00  0.00    -0.260 OA 
HETATM   20  C   UNL     1     -11.992  10.261  71.197  1.00  0.00    -0.376 C  
ENDBRANCH   3  12
TORSDOF 5
ENDMDL
MODEL       75
REMARK 921   NORMALIZED FREE ENERGY PREDICTED BY IDOCK:   -4.60 KCAL/MOL
REMARK 922        TOTAL FREE ENERGY PREDICTED BY IDOCK:   -6.61 KCAL/MOL
REMARK 923 INTER-LIGAND FREE ENERGY PREDICTED BY IDOCK:   -6.03 KCAL/MOL
REMARK 924 INTRA-LIGAND FREE ENERGY PREDICTED BY IDOCK:   -0.59 KCAL/MOL
REMARK 927      BINDING AFFINITY PREDICTED BY RF-SCORE:    0.00 PKD
ROOT
HETATM    1  C   UNL     1     -11.180  10.493  70.535  1.00  0.00    -0.348 C  
HETATM    2  C   UNL     1     -12.122  10.044  71.617  1.00  0.00    -0.420 C  
HETATM    3  C   UNL     1     -12.582  11.073  70.615  1.00  0.00    -0.427 C  
ENDROOT
BRANCH   1   4
HETATM    4  C   UNL     1     -10.825   9.617  69.372  1.00  0.00    -0.217 C  
BRANCH   4   5
HETATM    5  N   UNL     1      -9.386   9.407  69.328  1.00  0.00    -0.160 NA 
HETATM    6  H   UNL     1      -8.849   9.695  68.510  1.00  0.00     0.000 HD 
BRANCH   5   7
HETATM    7  C   UNL     1      -8.796   8.857  70.327  1.00  0.00    -0.175 C  
HETATM    8  H   UNL     1      -7.372   9.018  71.788  1.00  0.00     0.000 HD 
HETATM    9  O   UNL     1      -7.809   9.425  71.049  1.00  0.00    -0.289 OA 
BRANCH   7  10
HETATM   10  C   UNL     1      -9.127   7.475  70.813  1.00  0.00    -0.154 C  
HETATM   11  C   UNL     1      -8.555   6.416  69.888  1.00  0.00    -0.138 C  
ENDBRANCH   7  10
ENDBRANCH   5   7
ENDBRANCH   4   5
ENDBRANCH   1   4
BRANCH   3  12
HETATM   12  C   UNL     1     -12.810  12.516  71.001  1.00  0.00    -0.246 A  
HETATM   13  C   UNL     1     -13.417  12.857  72.227  1.00  0.00    -0.631 A  
HETATM   14  C   UNL     1     -13.531  14.191  72.659  1.00  0.00    -0.634 A  
HETATM   15  C   UNL     1     -13.033  15.229  71.877  1.00  0.00    -0.467 A  
HETATM   16  C   UNL     1     -12.342  13.585  70.237  1.00  0.00    -0.370 A  
HETATM   17  C   UNL     1     -11.656  13.564  68.926  1.00  0.00    -0.364 C  
HETATM   18  C   UNL     1     -12.450  14.900  70.672  1.00  0.00    -0.352 A  
HETATM   19  O   UNL     1     -11.908  15.824  69.823  1.00  0.00    -0.343 OA 
HETATM   20  C   UNL     1     -11.410  15.058  68.705  1.00  0.00    -0.291 C  
ENDBRANCH   3  12
TORSDOF 5
ENDMDL
MODEL       76
REMARK 921   NORMALIZED FREE ENERGY PREDICTED BY IDOCK:   -4.59 KCAL/MOL
REMARK 922        TOTAL FREE ENERGY PREDICTED BY IDOCK:   -6.61 KCAL/MOL
REMARK 923 INTER-LIGAND FREE ENERGY PREDICTED BY IDOCK:   -6.01 KCAL/MOL
REMARK 924 INTRA-LIGAND FREE ENERGY PREDICTED BY IDOCK:   -0.60 KCAL/MOL
REMARK 927      BINDING AFFINITY PREDICTED BY RF-SCORE:    0.00 PKD
ROOT
HETATM    1  C   UNL     1     -13.402  11.508  71.572  1.00  0.00    -0.163 C  
HETATM    2  C   UNL     1     -13.276  10.118  72.130  1.00  0.00    -0.463 C  
HETATM    3  C   UNL     1     -12.096  10.743  71.430  1.00  0.00    -0.297 C  
ENDROOT
BRANCH   1   4
HETATM    4  C   UNL     1     -13.437  12.721  72.453  1.00  0.00    -0.409 C  
BRANCH   4   5
HETATM    5  N   UNL     1     -13.991  13.851  71.722  1.00  0.00    -0.372 NA 
HETATM    6  H   UNL     1     -14.794  13.720  71.105  1.00  0.00     0.000 HD 
BRANCH   5   7
HETATM    7  C   UNL     1     -13.464  15.012  71.858  1.00  0.00    -0.402 C  
HETATM    8  H   UNL     1     -13.306  16.710  72.990  1.00  0.00     0.000 HD 
HETATM    9  O   UNL     1     -13.696  15.849  72.889  1.00  0.00    -0.591 OA 
BRANCH   7  10
HETATM   10  C   UNL     1     -12.517  15.604  70.854  1.00  0.00    -0.497 C  
HETATM   11  C   UNL     1     -11.883  14.526  69.994  1.00  0.00    -0.372 C  
ENDBRANCH   7  10
ENDBRANCH   5   7
ENDBRANCH   4   5
ENDBRANCH   1   4
BRANCH   3  12
HETATM   12  C   UNL     1     -11.618  10.257  70.082  1.00  0.00    -0.376 A  
HETATM   13  C   UNL     1     -11.778  11.043  68.923  1.00  0.00    -0.400 A  
HETATM   14  C   UNL     1     -11.235  10.664  67.682  1.00  0.00    -0.361 A  
HETATM   15  C   UNL     1     -10.508   9.484  67.563  1.00  0.00    -0.336 A  
HETATM   16  C   UNL     1     -10.901   9.072  69.917  1.00  0.00    -0.228 A  
HETATM   17  C   UNL     1     -10.553   8.045  70.925  1.00  0.00    -0.233 C  
HETATM   18  C   UNL     1     -10.360   8.707  68.691  1.00  0.00    -0.193 A  
HETATM   19  O   UNL     1      -9.654   7.535  68.709  1.00  0.00    -0.148 OA 
HETATM   20  C   UNL     1      -9.750   7.063  70.070  1.00  0.00    -0.170 C  
ENDBRANCH   3  12
TORSDOF 5
ENDMDL
MODEL       77
REMARK 921   NORMALIZED FREE ENERGY PREDICTED BY IDOCK:   -4.59 KCAL/MOL
REMARK 922        TOTAL FREE ENERGY PREDICTED BY IDOCK:   -6.61 KCAL/MOL
REMARK 923 INTER-LIGAND FREE ENERGY PREDICTED BY IDOCK:   -6.02 KCAL/MOL
REMARK 924 INTRA-LIGAND FREE ENERGY PREDICTED BY IDOCK:   -0.58 KCAL/MOL
REMARK 927      BINDING AFFINITY PREDICTED BY RF-SCORE:    0.00 PKD
ROOT
HETATM    1  C   UNL     1     -10.866  10.685  67.947  1.00  0.00    -0.328 C  
HETATM    2  C   UNL     1     -11.479  11.891  67.292  1.00  0.00    -0.385 C  
HETATM    3  C   UNL     1     -10.954  12.002  68.701  1.00  0.00    -0.281 C  
ENDROOT
BRANCH   1   4
HETATM    4  C   UNL     1      -9.517  10.164  67.555  1.00  0.00    -0.152 C  
BRANCH   4   5
HETATM    5  N   UNL     1      -9.147   9.046  68.410  1.00  0.00    -0.133 NA 
HETATM    6  H   UNL     1      -8.347   9.121  69.038  1.00  0.00     0.000 HD 
BRANCH   5   7
HETATM    7  C   UNL     1      -9.836   7.964  68.369  1.00  0.00    -0.173 C  
HETATM    8  H   UNL     1     -11.050   6.656  69.370  1.00  0.00     0.000 HD 
HETATM    9  O   UNL     1     -10.541   7.457  69.400  1.00  0.00    -0.224 OA 
BRANCH   7  10
HETATM   10  C   UNL     1      -9.928   7.099  67.144  1.00  0.00    -0.270 C  
HETATM   11  C   UNL     1     -11.152   6.204  67.195  1.00  0.00    -0.335 C  
ENDBRANCH   7  10
ENDBRANCH   5   7
ENDBRANCH   4   5
ENDBRANCH   1   4
BRANCH   3  12
HETATM   12  C   UNL     1     -11.875  12.164  69.886  1.00  0.00    -0.392 A  
HETATM   13  C   UNL     1     -12.323  11.047  70.621  1.00  0.00    -0.480 A  
HETATM   14  C   UNL     1     -13.083  11.182  71.798  1.00  0.00    -0.536 A  
HETATM   15  C   UNL     1     -13.414  12.444  72.280  1.00  0.00    -0.428 A  
HETATM   16  C   UNL     1     -12.245  13.410  70.391  1.00  0.00    -0.415 A  
HETATM   17  C   UNL     1     -11.931  14.759  69.868  1.00  0.00    -0.378 C  
HETATM   18  C   UNL     1     -12.989  13.538  71.557  1.00  0.00    -0.355 A  
HETATM   19  O   UNL     1     -13.234  14.830  71.934  1.00  0.00    -0.309 OA 
HETATM   20  C   UNL     1     -12.615  15.641  70.913  1.00  0.00    -0.449 C  
ENDBRANCH   3  12
TORSDOF 5
ENDMDL
MODEL       78
REMARK 921   NORMALIZED FREE ENERGY PREDICTED BY IDOCK:   -4.59 KCAL/MOL
REMARK 922        TOTAL FREE ENERGY PREDICTED BY IDOCK:   -6.61 KCAL/MOL
REMARK 923 INTER-LIGAND FREE ENERGY PREDICTED BY IDOCK:   -5.73 KCAL/MOL
REMARK 924 INTRA-LIGAND FREE ENERGY PREDICTED BY IDOCK:   -0.88 KCAL/MOL
REMARK 927      BINDING AFFINITY PREDICTED BY RF-SCORE:    0.00 PKD
ROOT
HETATM    1  C   UNL     1     -10.950  10.281  67.708  1.00  0.00    -0.360 C  
HETATM    2  C   UNL     1     -11.490  11.651  68.007  1.00  0.00    -0.385 C  
HETATM    3  C   UNL     1     -10.745  10.900  69.081  1.00  0.00    -0.265 C  
ENDROOT
BRANCH   1   4
HETATM    4  C   UNL     1      -9.757  10.069  66.826  1.00  0.00    -0.189 C  
BRANCH   4   5
HETATM    5  N   UNL     1      -9.975   8.916  65.964  1.00  0.00    -0.431 NA 
HETATM    6  H   UNL     1     -10.672   8.954  65.220  1.00  0.00     0.000 HD 
BRANCH   5   7
HETATM    7  C   UNL     1      -9.282   7.851  66.146  1.00  0.00    -0.152 C  
HETATM    8  H   UNL     1      -7.789   6.630  65.463  1.00  0.00     0.000 HD 
HETATM    9  O   UNL     1      -8.301   7.419  65.328  1.00  0.00    -0.139 OA 
BRANCH   7  10
HETATM   10  C   UNL     1      -9.497   6.924  67.308  1.00  0.00    -0.161 C  
HETATM   11  C   UNL     1     -10.962   6.554  67.452  1.00  0.00    -0.458 C  
ENDBRANCH   7  10
ENDBRANCH   5   7
ENDBRANCH   4   5
ENDBRANCH   1   4
BRANCH   3  12
HETATM   12  C   UNL     1     -11.445  10.347  70.300  1.00  0.00    -0.406 A  
HETATM   13  C   UNL     1     -12.621  10.943  70.801  1.00  0.00    -0.470 A  
HETATM   14  C   UNL     1     -13.354  10.376  71.859  1.00  0.00    -0.469 A  
HETATM   15  C   UNL     1     -12.934   9.187  72.448  1.00  0.00    -0.468 A  
HETATM   16  C   UNL     1     -11.047   9.167  70.930  1.00  0.00    -0.356 A  
HETATM   17  C   UNL     1      -9.881   8.303  70.639  1.00  0.00    -0.203 C  
HETATM   18  C   UNL     1     -11.779   8.608  71.969  1.00  0.00    -0.369 A  
HETATM   19  O   UNL     1     -11.273   7.432  72.450  1.00  0.00    -0.260 OA 
HETATM   20  C   UNL     1     -10.079   7.194  71.674  1.00  0.00    -0.185 C  
ENDBRANCH   3  12
TORSDOF 5
ENDMDL
MODEL       79
REMARK 921   NORMALIZED FREE ENERGY PREDICTED BY IDOCK:   -4.58 KCAL/MOL
REMARK 922        TOTAL FREE ENERGY PREDICTED BY IDOCK:   -6.60 KCAL/MOL
REMARK 923 INTER-LIGAND FREE ENERGY PREDICTED BY IDOCK:   -5.99 KCAL/MOL
REMARK 924 INTRA-LIGAND FREE ENERGY PREDICTED BY IDOCK:   -0.60 KCAL/MOL
REMARK 927      BINDING AFFINITY PREDICTED BY RF-SCORE:    0.00 PKD
ROOT
HETATM    1  C   UNL     1     -10.805   9.351  67.462  1.00  0.00    -0.208 C  
HETATM    2  C   UNL     1     -10.176  10.715  67.383  1.00  0.00    -0.243 C  
HETATM    3  C   UNL     1     -10.265  10.017  68.717  1.00  0.00    -0.201 C  
ENDROOT
BRANCH   1   4
HETATM    4  C   UNL     1     -10.118   8.126  66.941  1.00  0.00    -0.297 C  
BRANCH   4   5
HETATM    5  N   UNL     1     -11.065   7.023  66.856  1.00  0.00    -0.627 NA 
HETATM    6  H   UNL     1     -12.042   7.201  66.625  1.00  0.00     0.000 HD 
BRANCH   5   7
HETATM    7  C   UNL     1     -10.661   5.825  67.074  1.00  0.00    -0.300 C  
HETATM    8  H   UNL     1     -10.355   3.947  66.320  1.00  0.00     0.000 HD 
HETATM    9  O   UNL     1     -10.654   4.834  66.159  1.00  0.00    -0.309 OA 
BRANCH   7  10
HETATM   10  C   UNL     1     -10.153   5.362  68.409  1.00  0.00    -0.235 C  
HETATM   11  C   UNL     1      -9.465   4.014  68.298  1.00  0.00    -0.216 C  
ENDBRANCH   7  10
ENDBRANCH   5   7
ENDBRANCH   4   5
ENDBRANCH   1   4
BRANCH   3  12
HETATM   12  C   UNL     1     -11.192  10.497  69.808  1.00  0.00    -0.361 A  
HETATM   13  C   UNL     1     -11.621  11.839  69.866  1.00  0.00    -0.351 A  
HETATM   14  C   UNL     1     -12.576  12.279  70.800  1.00  0.00    -0.302 A  
HETATM   15  C   UNL     1     -13.138  11.385  71.705  1.00  0.00    -0.523 A  
HETATM   16  C   UNL     1     -11.764   9.636  70.745  1.00  0.00    -0.390 A  
HETATM   17  C   UNL     1     -11.539   8.186  70.940  1.00  0.00    -0.283 C  
HETATM   18  C   UNL     1     -12.713  10.075  71.660  1.00  0.00    -0.435 A  
HETATM   19  O   UNL     1     -13.201   9.098  72.483  1.00  0.00    -0.444 OA 
HETATM   20  C   UNL     1     -12.497   7.898  72.096  1.00  0.00    -0.267 C  
ENDBRANCH   3  12
TORSDOF 5
ENDMDL
MODEL       80
REMARK 921   NORMALIZED FREE ENERGY PREDICTED BY IDOCK:   -4.57 KCAL/MOL
REMARK 922        TOTAL FREE ENERGY PREDICTED BY IDOCK:   -6.58 KCAL/MOL
REMARK 923 INTER-LIGAND FREE ENERGY PREDICTED BY IDOCK:   -6.35 KCAL/MOL
REMARK 924 INTRA-LIGAND FREE ENERGY PREDICTED BY IDOCK:   -0.24 KCAL/MOL
REMARK 927      BINDING AFFINITY PREDICTED BY RF-SCORE:    0.00 PKD
ROOT
HETATM    1  C   UNL     1     -11.531  11.490  67.680  1.00  0.00    -0.357 C  
HETATM    2  C   UNL     1     -11.571  12.725  66.825  1.00  0.00    -0.431 C  
HETATM    3  C   UNL     1     -10.924  12.789  68.185  1.00  0.00    -0.273 C  
ENDROOT
BRANCH   1   4
HETATM    4  C   UNL     1     -10.623  10.338  67.375  1.00  0.00    -0.270 C  
BRANCH   4   5
HETATM    5  N   UNL     1     -11.059   9.155  68.102  1.00  0.00    -0.482 NA 
HETATM    6  H   UNL     1     -11.711   8.499  67.673  1.00  0.00     0.000 HD 
BRANCH   5   7
HETATM    7  C   UNL     1     -10.616   8.942  69.288  1.00  0.00    -0.207 C  
HETATM    8  H   UNL     1     -10.827   7.919  71.047  1.00  0.00     0.000 HD 
HETATM    9  O   UNL     1     -11.155   8.076  70.169  1.00  0.00    -0.251 OA 
BRANCH   7  10
HETATM   10  C   UNL     1      -9.428   9.662  69.859  1.00  0.00    -0.260 C  
HETATM   11  C   UNL     1      -8.151   8.871  69.643  1.00  0.00    -0.104 C  
ENDBRANCH   7  10
ENDBRANCH   5   7
ENDBRANCH   4   5
ENDBRANCH   1   4
BRANCH   3  12
HETATM   12  C   UNL     1     -11.547  13.550  69.331  1.00  0.00    -0.369 A  
HETATM   13  C   UNL     1     -11.566  14.959  69.348  1.00  0.00    -0.337 A  
HETATM   14  C   UNL     1     -12.246  15.686  70.343  1.00  0.00    -0.429 A  
HETATM   15  C   UNL     1     -12.933  15.022  71.353  1.00  0.00    -0.445 A  
HETATM   16  C   UNL     1     -12.232  12.921  70.372  1.00  0.00    -0.381 A  
HETATM   17  C   UNL     1     -12.408  11.475  70.632  1.00  0.00    -0.457 C  
HETATM   18  C   UNL     1     -12.907  13.644  71.347  1.00  0.00    -0.360 A  
HETATM   19  O   UNL     1     -13.557  12.876  72.273  1.00  0.00    -0.560 OA 
HETATM   20  C   UNL     1     -13.272  11.512  71.894  1.00  0.00    -0.374 C  
ENDBRANCH   3  12
TORSDOF 5
ENDMDL
MODEL       81
REMARK 921   NORMALIZED FREE ENERGY PREDICTED BY IDOCK:   -4.56 KCAL/MOL
REMARK 922        TOTAL FREE ENERGY PREDICTED BY IDOCK:   -6.57 KCAL/MOL
REMARK 923 INTER-LIGAND FREE ENERGY PREDICTED BY IDOCK:   -5.98 KCAL/MOL
REMARK 924 INTRA-LIGAND FREE ENERGY PREDICTED BY IDOCK:   -0.59 KCAL/MOL
REMARK 927      BINDING AFFINITY PREDICTED BY RF-SCORE:    0.00 PKD
ROOT
HETATM    1  C   UNL     1     -11.095  13.727  67.376  1.00  0.00    -0.312 C  
HETATM    2  C   UNL     1     -12.203  14.088  66.426  1.00  0.00    -0.492 C  
HETATM    3  C   UNL     1     -11.799  12.643  66.576  1.00  0.00    -0.463 C  
ENDROOT
BRANCH   1   4
HETATM    4  C   UNL     1     -11.277  13.762  68.863  1.00  0.00    -0.272 C  
BRANCH   4   5
HETATM    5  N   UNL     1     -10.189  14.507  69.479  1.00  0.00    -0.428 NA 
HETATM    6  H   UNL     1      -9.363  14.020  69.824  1.00  0.00     0.000 HD 
BRANCH   5   7
HETATM    7  C   UNL     1     -10.277  15.783  69.586  1.00  0.00    -0.289 C  
HETATM    8  H   UNL     1     -11.179  17.377  70.499  1.00  0.00     0.000 HD 
HETATM    9  O   UNL     1     -11.114  16.432  70.420  1.00  0.00    -0.356 OA 
BRANCH   7  10
HETATM   10  C   UNL     1      -9.455  16.732  68.762  1.00  0.00    -0.259 C  
HETATM   11  C   UNL     1     -10.242  17.981  68.413  1.00  0.00    -0.399 C  
ENDBRANCH   7  10
ENDBRANCH   5   7
ENDBRANCH   4   5
ENDBRANCH   1   4
BRANCH   3  12
HETATM   12  C   UNL     1     -11.084  11.895  65.476  1.00  0.00    -0.356 A  
HETATM   13  C   UNL     1     -10.954  12.444  64.184  1.00  0.00    -0.416 A  
HETATM   14  C   UNL     1     -10.191  11.821  63.179  1.00  0.00    -0.376 A  
HETATM   15  C   UNL     1      -9.528  10.626  63.440  1.00  0.00    -0.352 A  
HETATM   16  C   UNL     1     -10.421  10.687  65.691  1.00  0.00    -0.235 A  
HETATM   17  C   UNL     1     -10.350   9.868  66.922  1.00  0.00    -0.300 C  
HETATM   18  C   UNL     1      -9.663  10.080  64.698  1.00  0.00    -0.269 A  
HETATM   19  O   UNL     1      -9.048   8.921  65.083  1.00  0.00    -0.187 OA 
HETATM   20  C   UNL     1      -9.449   8.723  66.456  1.00  0.00    -0.219 C  
ENDBRANCH   3  12
TORSDOF 5
ENDMDL
MODEL       82
REMARK 921   NORMALIZED FREE ENERGY PREDICTED BY IDOCK:   -4.56 KCAL/MOL
REMARK 922        TOTAL FREE ENERGY PREDICTED BY IDOCK:   -6.57 KCAL/MOL
REMARK 923 INTER-LIGAND FREE ENERGY PREDICTED BY IDOCK:   -6.46 KCAL/MOL
REMARK 924 INTRA-LIGAND FREE ENERGY PREDICTED BY IDOCK:   -0.11 KCAL/MOL
REMARK 927      BINDING AFFINITY PREDICTED BY RF-SCORE:    0.00 PKD
ROOT
HETATM    1  C   UNL     1     -11.113  10.380  70.237  1.00  0.00    -0.379 C  
HETATM    2  C   UNL     1     -12.247  10.526  71.213  1.00  0.00    -0.472 C  
HETATM    3  C   UNL     1     -12.239  11.363  69.959  1.00  0.00    -0.377 C  
ENDROOT
BRANCH   1   4
HETATM    4  C   UNL     1     -10.970   9.177  69.355  1.00  0.00    -0.092 C  
BRANCH   4   5
HETATM    5  N   UNL     1     -10.951   9.583  67.958  1.00  0.00    -0.486 NA 
HETATM    6  H   UNL     1     -11.236  10.526  67.693  1.00  0.00     0.000 HD 
BRANCH   5   7
HETATM    7  C   UNL     1     -10.572   8.747  67.061  1.00  0.00    -0.213 C  
HETATM    8  H   UNL     1      -9.639   8.456  65.263  1.00  0.00     0.000 HD 
HETATM    9  O   UNL     1      -9.919   9.074  65.927  1.00  0.00    -0.276 OA 
BRANCH   7  10
HETATM   10  C   UNL     1     -10.831   7.271  67.156  1.00  0.00    -0.378 C  
HETATM   11  C   UNL     1      -9.562   6.512  67.498  1.00  0.00    -0.137 C  
ENDBRANCH   7  10
ENDBRANCH   5   7
ENDBRANCH   4   5
ENDBRANCH   1   4
BRANCH   3  12
HETATM   12  C   UNL     1     -12.001  12.854  69.995  1.00  0.00    -0.380 A  
HETATM   13  C   UNL     1     -11.249  13.499  68.992  1.00  0.00    -0.314 A  
HETATM   14  C   UNL     1     -11.116  14.898  68.941  1.00  0.00    -0.267 A  
HETATM   15  C   UNL     1     -11.739  15.699  69.893  1.00  0.00    -0.372 A  
HETATM   16  C   UNL     1     -12.594  13.690  70.942  1.00  0.00    -0.421 A  
HETATM   17  C   UNL     1     -13.444  13.333  72.099  1.00  0.00    -0.655 C  
HETATM   18  C   UNL     1     -12.466  15.072  70.881  1.00  0.00    -0.345 A  
HETATM   19  O   UNL     1     -13.139  15.747  71.862  1.00  0.00    -0.449 OA 
HETATM   20  C   UNL     1     -13.757  14.719  72.666  1.00  0.00    -0.444 C  
ENDBRANCH   3  12
TORSDOF 5
ENDMDL
MODEL       83
REMARK 921   NORMALIZED FREE ENERGY PREDICTED BY IDOCK:   -4.55 KCAL/MOL
REMARK 922        TOTAL FREE ENERGY PREDICTED BY IDOCK:   -6.56 KCAL/MOL
REMARK 923 INTER-LIGAND FREE ENERGY PREDICTED BY IDOCK:   -6.35 KCAL/MOL
REMARK 924 INTRA-LIGAND FREE ENERGY PREDICTED BY IDOCK:   -0.21 KCAL/MOL
REMARK 927      BINDING AFFINITY PREDICTED BY RF-SCORE:    0.00 PKD
ROOT
HETATM    1  C   UNL     1     -11.626  11.906  67.376  1.00  0.00    -0.367 C  
HETATM    2  C   UNL     1     -11.928  11.991  68.846  1.00  0.00    -0.303 C  
HETATM    3  C   UNL     1     -10.767  11.152  68.378  1.00  0.00    -0.234 C  
ENDROOT
BRANCH   1   4
HETATM    4  C   UNL     1     -11.019  13.049  66.620  1.00  0.00    -0.279 C  
BRANCH   4   5
HETATM    5  N   UNL     1     -12.059  13.795  65.927  1.00  0.00    -0.405 NA 
HETATM    6  H   UNL     1     -12.635  14.466  66.436  1.00  0.00     0.000 HD 
BRANCH   5   7
HETATM    7  C   UNL     1     -12.246  13.604  64.672  1.00  0.00    -0.409 C  
HETATM    8  H   UNL     1     -12.769  14.412  62.866  1.00  0.00     0.000 HD 
HETATM    9  O   UNL     1     -12.630  14.554  63.796  1.00  0.00    -0.825 OA 
BRANCH   7  10
HETATM   10  C   UNL     1     -12.075  12.265  64.014  1.00  0.00    -0.563 C  
HETATM   11  C   UNL     1     -10.720  12.153  63.340  1.00  0.00    -0.461 C  
ENDBRANCH   7  10
ENDBRANCH   5   7
ENDBRANCH   4   5
ENDBRANCH   1   4
BRANCH   3  12
HETATM   12  C   UNL     1     -10.792   9.643  68.449  1.00  0.00    -0.212 A  
HETATM   13  C   UNL     1     -10.636   8.854  67.291  1.00  0.00    -0.304 A  
HETATM   14  C   UNL     1     -10.536   7.452  67.349  1.00  0.00    -0.371 A  
HETATM   15  C   UNL     1     -10.585   6.794  68.574  1.00  0.00    -0.265 A  
HETATM   16  C   UNL     1     -10.856   8.945  69.655  1.00  0.00    -0.186 A  
HETATM   17  C   UNL     1     -11.003   9.471  71.031  1.00  0.00    -0.424 C  
HETATM   18  C   UNL     1     -10.749   7.561  69.707  1.00  0.00    -0.242 A  
HETATM   19  O   UNL     1     -10.793   7.036  70.970  1.00  0.00    -0.231 OA 
HETATM   20  C   UNL     1     -10.967   8.174  71.841  1.00  0.00    -0.275 C  
ENDBRANCH   3  12
TORSDOF 5
ENDMDL
MODEL       84
REMARK 921   NORMALIZED FREE ENERGY PREDICTED BY IDOCK:   -4.54 KCAL/MOL
REMARK 922        TOTAL FREE ENERGY PREDICTED BY IDOCK:   -6.54 KCAL/MOL
REMARK 923 INTER-LIGAND FREE ENERGY PREDICTED BY IDOCK:   -5.94 KCAL/MOL
REMARK 924 INTRA-LIGAND FREE ENERGY PREDICTED BY IDOCK:   -0.60 KCAL/MOL
REMARK 927      BINDING AFFINITY PREDICTED BY RF-SCORE:    0.00 PKD
ROOT
HETATM    1  C   UNL     1     -12.077  14.232  67.760  1.00  0.00    -0.316 C  
HETATM    2  C   UNL     1     -12.379  15.032  68.996  1.00  0.00    -0.056 C  
HETATM    3  C   UNL     1     -11.380  13.906  69.070  1.00  0.00    -0.324 C  
ENDROOT
BRANCH   1   4
HETATM    4  C   UNL     1     -11.267  14.788  66.629  1.00  0.00    -0.346 C  
BRANCH   4   5
HETATM    5  N   UNL     1     -10.154  15.568  67.150  1.00  0.00    -0.250 NA 
HETATM    6  H   UNL     1      -9.433  15.120  67.716  1.00  0.00     0.000 HD 
BRANCH   5   7
HETATM    7  C   UNL     1     -10.087  16.824  66.894  1.00  0.00    -0.286 C  
HETATM    8  H   UNL     1      -9.648  18.280  65.525  1.00  0.00     0.000 HD 
HETATM    9  O   UNL     1      -9.699  17.351  65.715  1.00  0.00    -0.533 OA 
BRANCH   7  10
HETATM   10  C   UNL     1     -10.420  17.884  67.903  1.00  0.00    -0.404 C  
HETATM   11  C   UNL     1     -10.764  19.198  67.226  1.00  0.00    -0.585 C  
ENDBRANCH   7  10
ENDBRANCH   5   7
ENDBRANCH   4   5
ENDBRANCH   1   4
BRANCH   3  12
HETATM   12  C   UNL     1     -11.674  12.624  69.814  1.00  0.00    -0.354 A  
HETATM   13  C   UNL     1     -12.604  12.592  70.873  1.00  0.00    -0.331 A  
HETATM   14  C   UNL     1     -12.982  11.390  71.499  1.00  0.00    -0.505 A  
HETATM   15  C   UNL     1     -12.442  10.178  71.080  1.00  0.00    -0.490 A  
HETATM   16  C   UNL     1     -11.141  11.392  69.437  1.00  0.00    -0.301 A  
HETATM   17  C   UNL     1     -10.162  11.087  68.369  1.00  0.00    -0.198 C  
HETATM   18  C   UNL     1     -11.523  10.208  70.054  1.00  0.00    -0.277 A  
HETATM   19  O   UNL     1     -10.935   9.085  69.540  1.00  0.00    -0.207 OA 
HETATM   20  C   UNL     1     -10.061   9.566  68.496  1.00  0.00    -0.178 C  
ENDBRANCH   3  12
TORSDOF 5
ENDMDL
MODEL       85
REMARK 921   NORMALIZED FREE ENERGY PREDICTED BY IDOCK:   -4.54 KCAL/MOL
REMARK 922        TOTAL FREE ENERGY PREDICTED BY IDOCK:   -6.54 KCAL/MOL
REMARK 923 INTER-LIGAND FREE ENERGY PREDICTED BY IDOCK:   -5.80 KCAL/MOL
REMARK 924 INTRA-LIGAND FREE ENERGY PREDICTED BY IDOCK:   -0.73 KCAL/MOL
REMARK 927      BINDING AFFINITY PREDICTED BY RF-SCORE:    0.00 PKD
ROOT
HETATM    1  C   UNL     1     -11.253  11.035  67.432  1.00  0.00    -0.355 C  
HETATM    2  C   UNL     1     -11.650  12.431  67.043  1.00  0.00    -0.434 C  
HETATM    3  C   UNL     1     -11.069  12.183  68.412  1.00  0.00    -0.289 C  
ENDROOT
BRANCH   1   4
HETATM    4  C   UNL     1     -10.037  10.366  66.867  1.00  0.00    -0.219 C  
BRANCH   4   5
HETATM    5  N   UNL     1      -9.035  11.364  66.521  1.00  0.00    -0.183 NA 
HETATM    6  H   UNL     1      -9.249  12.091  65.838  1.00  0.00     0.000 HD 
BRANCH   5   7
HETATM    7  C   UNL     1      -7.882  11.323  67.081  1.00  0.00    -0.151 C  
HETATM    8  H   UNL     1      -6.377  10.163  67.842  1.00  0.00     0.000 HD 
HETATM    9  O   UNL     1      -7.231  10.194  67.427  1.00  0.00    -0.087 OA 
BRANCH   7  10
HETATM   10  C   UNL     1      -7.105  12.555  67.447  1.00  0.00    -0.146 C  
HETATM   11  C   UNL     1      -8.032  13.710  67.777  1.00  0.00    -0.172 C  
ENDBRANCH   7  10
ENDBRANCH   5   7
ENDBRANCH   4   5
ENDBRANCH   1   4
BRANCH   3  12
HETATM   12  C   UNL     1     -11.907  12.282  69.665  1.00  0.00    -0.393 A  
HETATM   13  C   UNL     1     -12.270  11.131  70.394  1.00  0.00    -0.457 A  
HETATM   14  C   UNL     1     -12.946  11.208  71.626  1.00  0.00    -0.548 A  
HETATM   15  C   UNL     1     -13.276  12.446  72.170  1.00  0.00    -0.491 A  
HETATM   16  C   UNL     1     -12.273  13.502  70.234  1.00  0.00    -0.417 A  
HETATM   17  C   UNL     1     -12.033  14.874  69.734  1.00  0.00    -0.366 C  
HETATM   18  C   UNL     1     -12.933  13.572  71.454  1.00  0.00    -0.339 A  
HETATM   19  O   UNL     1     -13.185  14.844  71.890  1.00  0.00    -0.310 OA 
HETATM   20  C   UNL     1     -12.663  15.703  70.853  1.00  0.00    -0.445 C  
ENDBRANCH   3  12
TORSDOF 5
ENDMDL
MODEL       86
REMARK 921   NORMALIZED FREE ENERGY PREDICTED BY IDOCK:   -4.52 KCAL/MOL
REMARK 922        TOTAL FREE ENERGY PREDICTED BY IDOCK:   -6.52 KCAL/MOL
REMARK 923 INTER-LIGAND FREE ENERGY PREDICTED BY IDOCK:   -6.08 KCAL/MOL
REMARK 924 INTRA-LIGAND FREE ENERGY PREDICTED BY IDOCK:   -0.43 KCAL/MOL
REMARK 927      BINDING AFFINITY PREDICTED BY RF-SCORE:    0.00 PKD
ROOT
HETATM    1  C   UNL     1     -13.034  10.671  71.153  1.00  0.00    -0.483 C  
HETATM    2  C   UNL     1     -13.576   9.449  71.842  1.00  0.00    -0.482 C  
HETATM    3  C   UNL     1     -12.084   9.620  71.703  1.00  0.00    -0.481 C  
ENDROOT
BRANCH   1   4
HETATM    4  C   UNL     1     -13.063  12.025  71.793  1.00  0.00    -0.355 C  
BRANCH   4   5
HETATM    5  N   UNL     1     -12.355  12.985  70.958  1.00  0.00    -0.391 NA 
HETATM    6  H   UNL     1     -11.818  12.667  70.151  1.00  0.00     0.000 HD 
BRANCH   5   7
HETATM    7  C   UNL     1     -12.412  14.235  71.243  1.00  0.00    -0.365 C  
HETATM    8  H   UNL     1     -11.415  16.017  71.382  1.00  0.00     0.000 HD 
HETATM    9  O   UNL     1     -11.373  15.091  71.170  1.00  0.00    -0.312 OA 
BRANCH   7  10
HETATM   10  C   UNL     1     -13.665  14.908  71.724  1.00  0.00    -0.530 C  
HETATM   11  C   UNL     1     -13.408  15.712  72.985  1.00  0.00    -0.668 C  
ENDBRANCH   7  10
ENDBRANCH   5   7
ENDBRANCH   4   5
ENDBRANCH   1   4
BRANCH   3  12
HETATM   12  C   UNL     1     -11.263   8.749  70.781  1.00  0.00    -0.309 A  
HETATM   13  C   UNL     1     -10.683   9.272  69.607  1.00  0.00    -0.244 A  
HETATM   14  C   UNL     1      -9.818   8.512  68.799  1.00  0.00    -0.180 A  
HETATM   15  C   UNL     1      -9.501   7.202  69.145  1.00  0.00    -0.147 A  
HETATM   16  C   UNL     1     -10.937   7.427  71.083  1.00  0.00    -0.265 A  
HETATM   17  C   UNL     1     -11.365   6.600  72.234  1.00  0.00    -0.311 C  
HETATM   18  C   UNL     1     -10.076   6.684  70.285  1.00  0.00    -0.179 A  
HETATM   19  O   UNL     1      -9.830   5.418  70.742  1.00  0.00    -0.170 OA 
HETATM   20  C   UNL     1     -10.618   5.297  71.946  1.00  0.00    -0.209 C  
ENDBRANCH   3  12
TORSDOF 5
ENDMDL
MODEL       87
REMARK 921   NORMALIZED FREE ENERGY PREDICTED BY IDOCK:   -4.52 KCAL/MOL
REMARK 922        TOTAL FREE ENERGY PREDICTED BY IDOCK:   -6.51 KCAL/MOL
REMARK 923 INTER-LIGAND FREE ENERGY PREDICTED BY IDOCK:   -6.00 KCAL/MOL
REMARK 924 INTRA-LIGAND FREE ENERGY PREDICTED BY IDOCK:   -0.51 KCAL/MOL
REMARK 927      BINDING AFFINITY PREDICTED BY RF-SCORE:    0.00 PKD
ROOT
HETATM    1  C   UNL     1     -11.463  12.961  64.523  1.00  0.00    -0.389 C  
HETATM    2  C   UNL     1     -12.351  14.092  64.083  1.00  0.00    -0.372 C  
HETATM    3  C   UNL     1     -11.133  14.391  64.920  1.00  0.00    -0.404 C  
ENDROOT
BRANCH   1   4
HETATM    4  C   UNL     1     -10.552  12.247  63.571  1.00  0.00    -0.448 C  
BRANCH   4   5
HETATM    5  N   UNL     1      -9.368  11.776  64.275  1.00  0.00    -0.436 NA 
HETATM    6  H   UNL     1      -8.438  12.034  63.946  1.00  0.00     0.000 HD 
BRANCH   5   7
HETATM    7  C   UNL     1      -9.503  11.033  65.312  1.00  0.00    -0.223 C  
HETATM    8  H   UNL     1      -9.695  10.936  67.348  1.00  0.00     0.000 HD 
HETATM    9  O   UNL     1      -9.595  11.486  66.579  1.00  0.00    -0.195 OA 
BRANCH   7  10
HETATM   10  C   UNL     1      -9.558   9.534  65.245  1.00  0.00    -0.314 C  
HETATM   11  C   UNL     1     -10.071   8.943  66.545  1.00  0.00    -0.356 C  
ENDBRANCH   7  10
ENDBRANCH   5   7
ENDBRANCH   4   5
ENDBRANCH   1   4
BRANCH   3  12
HETATM   12  C   UNL     1     -11.243  14.847  66.356  1.00  0.00    -0.331 A  
HETATM   13  C   UNL     1     -11.964  14.098  67.308  1.00  0.00    -0.449 A  
HETATM   14  C   UNL     1     -11.980  14.440  68.673  1.00  0.00    -0.332 A  
HETATM   15  C   UNL     1     -11.267  15.544  69.129  1.00  0.00    -0.300 A  
HETATM   16  C   UNL     1     -10.558  15.958  66.850  1.00  0.00    -0.309 A  
HETATM   17  C   UNL     1      -9.711  16.930  66.123  1.00  0.00    -0.296 C  
HETATM   18  C   UNL     1     -10.571  16.286  68.200  1.00  0.00    -0.307 A  
HETATM   19  O   UNL     1      -9.819  17.382  68.523  1.00  0.00    -0.287 OA 
HETATM   20  C   UNL     1      -9.268  17.840  67.270  1.00  0.00    -0.253 C  
ENDBRANCH   3  12
TORSDOF 5
ENDMDL
MODEL       88
REMARK 921   NORMALIZED FREE ENERGY PREDICTED BY IDOCK:   -4.50 KCAL/MOL
REMARK 922        TOTAL FREE ENERGY PREDICTED BY IDOCK:   -6.49 KCAL/MOL
REMARK 923 INTER-LIGAND FREE ENERGY PREDICTED BY IDOCK:   -6.56 KCAL/MOL
REMARK 924 INTRA-LIGAND FREE ENERGY PREDICTED BY IDOCK:    0.06 KCAL/MOL
REMARK 927      BINDING AFFINITY PREDICTED BY RF-SCORE:    0.00 PKD
ROOT
HETATM    1  C   UNL     1      -9.842  15.133  66.542  1.00  0.00    -0.278 C  
HETATM    2  C   UNL     1     -10.746  14.058  66.006  1.00  0.00    -0.294 C  
HETATM    3  C   UNL     1     -11.284  15.041  67.015  1.00  0.00    -0.328 C  
ENDROOT
BRANCH   1   4
HETATM    4  C   UNL     1      -9.428  16.312  65.715  1.00  0.00    -0.194 C  
BRANCH   4   5
HETATM    5  N   UNL     1     -10.434  17.360  65.801  1.00  0.00    -0.551 NA 
HETATM    6  H   UNL     1     -11.283  17.305  65.238  1.00  0.00     0.000 HD 
BRANCH   5   7
HETATM    7  C   UNL     1     -10.247  18.353  66.592  1.00  0.00    -0.394 C  
HETATM    8  H   UNL     1     -10.207  19.035  68.521  1.00  0.00     0.000 HD 
HETATM    9  O   UNL     1     -10.345  18.299  67.936  1.00  0.00    -0.366 OA 
BRANCH   7  10
HETATM   10  C   UNL     1      -9.906  19.733  66.106  1.00  0.00    -0.544 C  
HETATM   11  C   UNL     1      -8.405  19.955  66.093  1.00  0.00    -0.345 C  
ENDBRANCH   7  10
ENDBRANCH   5   7
ENDBRANCH   4   5
ENDBRANCH   1   4
BRANCH   3  12
HETATM   12  C   UNL     1     -11.617  14.630  68.430  1.00  0.00    -0.351 A  
HETATM   13  C   UNL     1     -11.892  15.592  69.424  1.00  0.00    -0.392 A  
HETATM   14  C   UNL     1     -12.322  15.231  70.715  1.00  0.00    -0.433 A  
HETATM   15  C   UNL     1     -12.493  13.892  71.050  1.00  0.00    -0.452 A  
HETATM   16  C   UNL     1     -11.782  13.299  68.812  1.00  0.00    -0.366 A  
HETATM   17  C   UNL     1     -11.588  12.069  68.012  1.00  0.00    -0.407 C  
HETATM   18  C   UNL     1     -12.213  12.949  70.085  1.00  0.00    -0.266 A  
HETATM   19  O   UNL     1     -12.359  11.604  70.284  1.00  0.00    -0.301 OA 
HETATM   20  C   UNL     1     -11.969  10.997  69.034  1.00  0.00    -0.293 C  
ENDBRANCH   3  12
TORSDOF 5
ENDMDL
MODEL       89
REMARK 921   NORMALIZED FREE ENERGY PREDICTED BY IDOCK:   -4.50 KCAL/MOL
REMARK 922        TOTAL FREE ENERGY PREDICTED BY IDOCK:   -6.49 KCAL/MOL
REMARK 923 INTER-LIGAND FREE ENERGY PREDICTED BY IDOCK:   -5.96 KCAL/MOL
REMARK 924 INTRA-LIGAND FREE ENERGY PREDICTED BY IDOCK:   -0.52 KCAL/MOL
REMARK 927      BINDING AFFINITY PREDICTED BY RF-SCORE:    0.00 PKD
ROOT
HETATM    1  C   UNL     1     -11.761  11.715  68.862  1.00  0.00    -0.397 C  
HETATM    2  C   UNL     1     -12.216  10.888  70.032  1.00  0.00    -0.422 C  
HETATM    3  C   UNL     1     -10.894  10.578  69.378  1.00  0.00    -0.291 C  
ENDROOT
BRANCH   1   4
HETATM    4  C   UNL     1     -11.277  13.124  69.023  1.00  0.00    -0.258 C  
BRANCH   4   5
HETATM    5  N   UNL     1     -11.563  13.598  70.369  1.00  0.00    -0.522 NA 
HETATM    6  H   UNL     1     -11.240  13.070  71.179  1.00  0.00     0.000 HD 
BRANCH   5   7
HETATM    7  C   UNL     1     -12.224  14.687  70.529  1.00  0.00    -0.324 C  
HETATM    8  H   UNL     1     -12.361  16.691  70.139  1.00  0.00     0.000 HD 
HETATM    9  O   UNL     1     -11.872  15.885  70.021  1.00  0.00    -0.342 OA 
BRANCH   7  10
HETATM   10  C   UNL     1     -13.488  14.765  71.336  1.00  0.00    -0.477 C  
HETATM   11  C   UNL     1     -13.488  13.744  72.458  1.00  0.00    -0.682 C  
ENDBRANCH   7  10
ENDBRANCH   5   7
ENDBRANCH   4   5
ENDBRANCH   1   4
BRANCH   3  12
HETATM   12  C   UNL     1     -10.681   9.325  68.561  1.00  0.00    -0.185 A  
HETATM   13  C   UNL     1     -10.291   9.393  67.208  1.00  0.00    -0.325 A  
HETATM   14  C   UNL     1      -9.971   8.243  66.464  1.00  0.00    -0.320 A  
HETATM   15  C   UNL     1     -10.027   6.984  67.055  1.00  0.00    -0.273 A  
HETATM   16  C   UNL     1     -10.743   8.045  69.111  1.00  0.00    -0.121 A  
HETATM   17  C   UNL     1     -11.102   7.639  70.489  1.00  0.00    -0.267 C  
HETATM   18  C   UNL     1     -10.419   6.914  68.374  1.00  0.00    -0.204 A  
HETATM   19  O   UNL     1     -10.496   5.740  69.073  1.00  0.00    -0.217 OA 
HETATM   20  C   UNL     1     -10.933   6.122  70.395  1.00  0.00    -0.337 C  
ENDBRANCH   3  12
TORSDOF 5
ENDMDL
MODEL       90
REMARK 921   NORMALIZED FREE ENERGY PREDICTED BY IDOCK:   -4.49 KCAL/MOL
REMARK 922        TOTAL FREE ENERGY PREDICTED BY IDOCK:   -6.47 KCAL/MOL
REMARK 923 INTER-LIGAND FREE ENERGY PREDICTED BY IDOCK:   -5.65 KCAL/MOL
REMARK 924 INTRA-LIGAND FREE ENERGY PREDICTED BY IDOCK:   -0.82 KCAL/MOL
REMARK 927      BINDING AFFINITY PREDICTED BY RF-SCORE:    0.00 PKD
ROOT
HETATM    1  C   UNL     1     -11.855  11.793  68.105  1.00  0.00    -0.324 C  
HETATM    2  C   UNL     1     -11.403  12.816  69.110  1.00  0.00    -0.337 C  
HETATM    3  C   UNL     1     -10.982  11.378  69.278  1.00  0.00    -0.282 C  
ENDROOT
BRANCH   1   4
HETATM    4  C   UNL     1     -11.284  11.730  66.721  1.00  0.00    -0.328 C  
BRANCH   4   5
HETATM    5  N   UNL     1      -9.832  11.651  66.785  1.00  0.00    -0.198 NA 
HETATM    6  H   UNL     1      -9.301  12.355  67.298  1.00  0.00     0.000 HD 
BRANCH   5   7
HETATM    7  C   UNL     1      -9.224  10.689  66.192  1.00  0.00    -0.172 C  
HETATM    8  H   UNL     1      -7.515  10.039  65.272  1.00  0.00     0.000 HD 
HETATM    9  O   UNL     1      -7.965  10.751  65.712  1.00  0.00    -0.161 OA 
BRANCH   7  10
HETATM   10  C   UNL     1      -9.859   9.353  65.937  1.00  0.00    -0.362 C  
HETATM   11  C   UNL     1      -9.341   8.305  66.905  1.00  0.00    -0.222 C  
ENDBRANCH   7  10
ENDBRANCH   5   7
ENDBRANCH   4   5
ENDBRANCH   1   4
BRANCH   3  12
HETATM   12  C   UNL     1     -11.527  10.511  70.388  1.00  0.00    -0.427 A  
HETATM   13  C   UNL     1     -12.899  10.515  70.712  1.00  0.00    -0.454 A  
HETATM   14  C   UNL     1     -13.446   9.630  71.659  1.00  0.00    -0.455 A  
HETATM   15  C   UNL     1     -12.634   8.706  72.310  1.00  0.00    -0.457 A  
HETATM   16  C   UNL     1     -10.743   9.584  71.076  1.00  0.00    -0.411 A  
HETATM   17  C   UNL     1      -9.291   9.322  70.961  1.00  0.00    -0.298 C  
HETATM   18  C   UNL     1     -11.291   8.707  72.005  1.00  0.00    -0.362 A  
HETATM   19  O   UNL     1     -10.393   7.838  72.561  1.00  0.00    -0.223 OA 
HETATM   20  C   UNL     1      -9.124   8.180  71.965  1.00  0.00    -0.180 C  
ENDBRANCH   3  12
TORSDOF 5
ENDMDL
MODEL       91
REMARK 921   NORMALIZED FREE ENERGY PREDICTED BY IDOCK:   -4.49 KCAL/MOL
REMARK 922        TOTAL FREE ENERGY PREDICTED BY IDOCK:   -6.47 KCAL/MOL
REMARK 923 INTER-LIGAND FREE ENERGY PREDICTED BY IDOCK:   -6.04 KCAL/MOL
REMARK 924 INTRA-LIGAND FREE ENERGY PREDICTED BY IDOCK:   -0.43 KCAL/MOL
REMARK 927      BINDING AFFINITY PREDICTED BY RF-SCORE:    0.00 PKD
ROOT
HETATM    1  C   UNL     1      -9.288  17.053  67.163  1.00  0.00    -0.241 C  
HETATM    2  C   UNL     1      -9.850  16.587  68.477  1.00  0.00    -0.243 C  
HETATM    3  C   UNL     1      -9.320  15.571  67.497  1.00  0.00    -0.207 C  
ENDROOT
BRANCH   1   4
HETATM    4  C   UNL     1      -7.961  17.743  67.062  1.00  0.00    -0.218 C  
BRANCH   4   5
HETATM    5  N   UNL     1      -7.845  18.413  65.775  1.00  0.00    -0.510 NA 
HETATM    6  H   UNL     1      -8.056  17.910  64.913  1.00  0.00     0.000 HD 
BRANCH   5   7
HETATM    7  C   UNL     1      -7.476  19.641  65.733  1.00  0.00    -0.290 C  
HETATM    8  H   UNL     1      -6.660  21.157  64.626  1.00  0.00     0.000 HD 
HETATM    9  O   UNL     1      -6.934  20.247  64.657  1.00  0.00    -0.249 OA 
BRANCH   7  10
HETATM   10  C   UNL     1      -7.586  20.570  66.907  1.00  0.00    -0.327 C  
HETATM   11  C   UNL     1      -6.238  21.170  67.262  1.00  0.00    -0.411 C  
ENDBRANCH   7  10
ENDBRANCH   5   7
ENDBRANCH   4   5
ENDBRANCH   1   4
BRANCH   3  12
HETATM   12  C   UNL     1     -10.234  14.622  66.758  1.00  0.00    -0.268 A  
HETATM   13  C   UNL     1     -10.399  14.708  65.360  1.00  0.00    -0.406 A  
HETATM   14  C   UNL     1     -11.149  13.762  64.637  1.00  0.00    -0.391 A  
HETATM   15  C   UNL     1     -11.755  12.695  65.293  1.00  0.00    -0.417 A  
HETATM   16  C   UNL     1     -10.873  13.550  67.380  1.00  0.00    -0.279 A  
HETATM   17  C   UNL     1     -10.887  13.176  68.813  1.00  0.00    -0.278 C  
HETATM   18  C   UNL     1     -11.605  12.615  66.660  1.00  0.00    -0.381 A  
HETATM   19  O   UNL     1     -12.136  11.606  67.416  1.00  0.00    -0.605 OA 
HETATM   20  C   UNL     1     -11.738  11.906  68.771  1.00  0.00    -0.321 C  
ENDBRANCH   3  12
TORSDOF 5
ENDMDL
MODEL       92
REMARK 921   NORMALIZED FREE ENERGY PREDICTED BY IDOCK:   -4.47 KCAL/MOL
REMARK 922        TOTAL FREE ENERGY PREDICTED BY IDOCK:   -6.46 KCAL/MOL
REMARK 923 INTER-LIGAND FREE ENERGY PREDICTED BY IDOCK:   -5.94 KCAL/MOL
REMARK 924 INTRA-LIGAND FREE ENERGY PREDICTED BY IDOCK:   -0.51 KCAL/MOL
REMARK 927      BINDING AFFINITY PREDICTED BY RF-SCORE:    0.00 PKD
ROOT
HETATM    1  C   UNL     1     -10.484  10.943  68.792  1.00  0.00    -0.224 C  
HETATM    2  C   UNL     1     -11.814  11.300  69.396  1.00  0.00    -0.424 C  
HETATM    3  C   UNL     1     -11.632  11.393  67.902  1.00  0.00    -0.337 C  
ENDROOT
BRANCH   1   4
HETATM    4  C   UNL     1     -10.007   9.526  68.695  1.00  0.00    -0.167 C  
BRANCH   4   5
HETATM    5  N   UNL     1     -10.878   8.767  67.810  1.00  0.00    -0.491 NA 
HETATM    6  H   UNL     1     -11.834   9.080  67.636  1.00  0.00     0.000 HD 
BRANCH   5   7
HETATM    7  C   UNL     1     -10.436   7.702  67.248  1.00  0.00    -0.326 C  
HETATM    8  H   UNL     1      -9.069   6.867  65.974  1.00  0.00     0.000 HD 
HETATM    9  O   UNL     1      -9.396   7.656  66.390  1.00  0.00    -0.181 OA 
BRANCH   7  10
HETATM   10  C   UNL     1     -11.047   6.347  67.466  1.00  0.00    -0.401 C  
HETATM   11  C   UNL     1     -11.078   5.990  68.940  1.00  0.00    -0.349 C  
ENDBRANCH   7  10
ENDBRANCH   5   7
ENDBRANCH   4   5
ENDBRANCH   1   4
BRANCH   3  12
HETATM   12  C   UNL     1     -11.590  12.721  67.184  1.00  0.00    -0.426 A  
HETATM   13  C   UNL     1     -11.247  13.908  67.863  1.00  0.00    -0.302 A  
HETATM   14  C   UNL     1     -11.085  15.133  67.191  1.00  0.00    -0.335 A  
HETATM   15  C   UNL     1     -11.258  15.208  65.812  1.00  0.00    -0.287 A  
HETATM   16  C   UNL     1     -11.774  12.841  65.806  1.00  0.00    -0.449 A  
HETATM   17  C   UNL     1     -12.125  11.797  64.818  1.00  0.00    -0.045 C  
HETATM   18  C   UNL     1     -11.606  14.052  65.147  1.00  0.00    -0.342 A  
HETATM   19  O   UNL     1     -11.787  13.990  63.793  1.00  0.00    -0.297 OA 
HETATM   20  C   UNL     1     -12.129  12.613  63.525  1.00  0.00    -0.561 C  
ENDBRANCH   3  12
TORSDOF 5
ENDMDL
MODEL       93
REMARK 921   NORMALIZED FREE ENERGY PREDICTED BY IDOCK:   -4.46 KCAL/MOL
REMARK 922        TOTAL FREE ENERGY PREDICTED BY IDOCK:   -6.44 KCAL/MOL
REMARK 923 INTER-LIGAND FREE ENERGY PREDICTED BY IDOCK:   -6.09 KCAL/MOL
REMARK 924 INTRA-LIGAND FREE ENERGY PREDICTED BY IDOCK:   -0.36 KCAL/MOL
REMARK 927      BINDING AFFINITY PREDICTED BY RF-SCORE:    0.00 PKD
ROOT
HETATM    1  C   UNL     1      -9.579  10.075  67.950  1.00  0.00    -0.163 C  
HETATM    2  C   UNL     1      -9.975  11.142  68.932  1.00  0.00    -0.188 C  
HETATM    3  C   UNL     1     -10.922  10.773  67.819  1.00  0.00    -0.354 C  
ENDROOT
BRANCH   1   4
HETATM    4  C   UNL     1      -9.551   8.623  68.319  1.00  0.00    -0.147 C  
BRANCH   4   5
HETATM    5  N   UNL     1     -10.871   8.197  68.762  1.00  0.00    -0.421 NA 
HETATM    6  H   UNL     1     -11.694   8.400  68.195  1.00  0.00     0.000 HD 
BRANCH   5   7
HETATM    7  C   UNL     1     -10.992   7.564  69.872  1.00  0.00    -0.211 C  
HETATM    8  H   UNL     1     -11.791   5.961  70.861  1.00  0.00     0.000 HD 
HETATM    9  O   UNL     1     -11.701   6.429  70.040  1.00  0.00    -0.429 OA 
BRANCH   7  10
HETATM   10  C   UNL     1     -10.360   8.029  71.152  1.00  0.00    -0.229 C  
HETATM   11  C   UNL     1     -11.412   8.449  72.162  1.00  0.00    -0.442 C  
ENDBRANCH   7  10
ENDBRANCH   5   7
ENDBRANCH   4   5
ENDBRANCH   1   4
BRANCH   3  12
HETATM   12  C   UNL     1     -11.207  11.710  66.669  1.00  0.00    -0.362 A  
HETATM   13  C   UNL     1     -11.907  12.918  66.868  1.00  0.00    -0.444 A  
HETATM   14  C   UNL     1     -12.078  13.861  65.838  1.00  0.00    -0.459 A  
HETATM   15  C   UNL     1     -11.549  13.624  64.573  1.00  0.00    -0.415 A  
HETATM   16  C   UNL     1     -10.709  11.501  65.383  1.00  0.00    -0.335 A  
HETATM   17  C   UNL     1      -9.932  10.356  64.859  1.00  0.00    -0.409 C  
HETATM   18  C   UNL     1     -10.875  12.439  64.372  1.00  0.00    -0.337 A  
HETATM   19  O   UNL     1     -10.294  12.097  63.182  1.00  0.00    -0.389 OA 
HETATM   20  C   UNL     1      -9.703  10.801  63.413  1.00  0.00    -0.351 C  
ENDBRANCH   3  12
TORSDOF 5
ENDMDL
MODEL       94
REMARK 921   NORMALIZED FREE ENERGY PREDICTED BY IDOCK:   -4.46 KCAL/MOL
REMARK 922        TOTAL FREE ENERGY PREDICTED BY IDOCK:   -6.43 KCAL/MOL
REMARK 923 INTER-LIGAND FREE ENERGY PREDICTED BY IDOCK:   -5.89 KCAL/MOL
REMARK 924 INTRA-LIGAND FREE ENERGY PREDICTED BY IDOCK:   -0.54 KCAL/MOL
REMARK 927      BINDING AFFINITY PREDICTED BY RF-SCORE:    0.00 PKD
ROOT
HETATM    1  C   UNL     1      -9.592  11.311  68.093  1.00  0.00    -0.186 C  
HETATM    2  C   UNL     1     -10.623  10.421  67.457  1.00  0.00    -0.312 C  
HETATM    3  C   UNL     1     -10.809  10.864  68.886  1.00  0.00    -0.262 C  
ENDROOT
BRANCH   1   4
HETATM    4  C   UNL     1      -9.457  12.759  67.732  1.00  0.00    -0.205 C  
BRANCH   4   5
HETATM    5  N   UNL     1      -9.208  12.895  66.304  1.00  0.00    -0.432 NA 
HETATM    6  H   UNL     1      -8.324  12.580  65.904  1.00  0.00     0.000 HD 
BRANCH   5   7
HETATM    7  C   UNL     1     -10.110  13.413  65.551  1.00  0.00    -0.266 C  
HETATM    8  H   UNL     1     -10.864  13.619  63.660  1.00  0.00     0.000 HD 
HETATM    9  O   UNL     1     -10.197  13.235  64.218  1.00  0.00    -0.396 OA 
BRANCH   7  10
HETATM   10  C   UNL     1     -11.191  14.316  66.072  1.00  0.00    -0.324 C  
HETATM   11  C   UNL     1     -10.739  15.764  66.081  1.00  0.00    -0.293 C  
ENDBRANCH   7  10
ENDBRANCH   5   7
ENDBRANCH   4   5
ENDBRANCH   1   4
BRANCH   3  12
HETATM   12  C   UNL     1     -10.678   9.902  70.043  1.00  0.00    -0.338 A  
HETATM   13  C   UNL     1      -9.438   9.316  70.368  1.00  0.00    -0.292 A  
HETATM   14  C   UNL     1      -9.267   8.513  71.511  1.00  0.00    -0.288 A  
HETATM   15  C   UNL     1     -10.335   8.276  72.370  1.00  0.00    -0.402 A  
HETATM   16  C   UNL     1     -11.729   9.624  70.918  1.00  0.00    -0.412 A  
HETATM   17  C   UNL     1     -13.133  10.089  70.866  1.00  0.00    -0.381 C  
HETATM   18  C   UNL     1     -11.552   8.838  72.049  1.00  0.00    -0.366 A  
HETATM   19  O   UNL     1     -12.673   8.694  72.820  1.00  0.00    -0.319 OA 
HETATM   20  C   UNL     1     -13.699   9.438  72.128  1.00  0.00    -0.420 C  
ENDBRANCH   3  12
TORSDOF 5
ENDMDL
MODEL       95
REMARK 921   NORMALIZED FREE ENERGY PREDICTED BY IDOCK:   -4.45 KCAL/MOL
REMARK 922        TOTAL FREE ENERGY PREDICTED BY IDOCK:   -6.43 KCAL/MOL
REMARK 923 INTER-LIGAND FREE ENERGY PREDICTED BY IDOCK:   -5.95 KCAL/MOL
REMARK 924 INTRA-LIGAND FREE ENERGY PREDICTED BY IDOCK:   -0.48 KCAL/MOL
REMARK 927      BINDING AFFINITY PREDICTED BY RF-SCORE:    0.00 PKD
ROOT
HETATM    1  C   UNL     1     -12.569  10.280  70.723  1.00  0.00    -0.442 C  
HETATM    2  C   UNL     1     -13.108   9.671  71.987  1.00  0.00    -0.537 C  
HETATM    3  C   UNL     1     -11.643   9.526  71.663  1.00  0.00    -0.451 C  
ENDROOT
BRANCH   1   4
HETATM    4  C   UNL     1     -12.389  11.759  70.564  1.00  0.00    -0.299 C  
BRANCH   4   5
HETATM    5  N   UNL     1     -11.371  12.032  69.560  1.00  0.00    -0.426 NA 
HETATM    6  H   UNL     1     -10.382  11.958  69.798  1.00  0.00     0.000 HD 
BRANCH   5   7
HETATM    7  C   UNL     1     -11.727  12.365  68.373  1.00  0.00    -0.336 C  
HETATM    8  H   UNL     1     -12.282  11.745  66.503  1.00  0.00     0.000 HD 
HETATM    9  O   UNL     1     -12.019  11.499  67.382  1.00  0.00    -0.623 OA 
BRANCH   7  10
HETATM   10  C   UNL     1     -11.847  13.794  67.926  1.00  0.00    -0.413 C  
HETATM   11  C   UNL     1     -11.958  13.889  66.415  1.00  0.00    -0.467 C  
ENDBRANCH   7  10
ENDBRANCH   5   7
ENDBRANCH   4   5
ENDBRANCH   1   4
BRANCH   3  12
HETATM   12  C   UNL     1     -11.040   8.198  71.267  1.00  0.00    -0.287 A  
HETATM   13  C   UNL     1     -10.698   7.921  69.928  1.00  0.00    -0.244 A  
HETATM   14  C   UNL     1     -10.027   6.742  69.556  1.00  0.00    -0.172 A  
HETATM   15  C   UNL     1      -9.672   5.802  70.518  1.00  0.00    -0.225 A  
HETATM   16  C   UNL     1     -10.685   7.222  72.199  1.00  0.00    -0.252 A  
HETATM   17  C   UNL     1     -10.889   7.214  73.665  1.00  0.00    -0.192 C  
HETATM   18  C   UNL     1     -10.016   6.063  71.827  1.00  0.00    -0.170 A  
HETATM   19  O   UNL     1      -9.708   5.228  72.866  1.00  0.00    -0.143 OA 
HETATM   20  C   UNL     1     -10.240   5.881  74.039  1.00  0.00    -0.274 C  
ENDBRANCH   3  12
TORSDOF 5
ENDMDL
MODEL       96
REMARK 921   NORMALIZED FREE ENERGY PREDICTED BY IDOCK:   -4.45 KCAL/MOL
REMARK 922        TOTAL FREE ENERGY PREDICTED BY IDOCK:   -6.43 KCAL/MOL
REMARK 923 INTER-LIGAND FREE ENERGY PREDICTED BY IDOCK:   -5.76 KCAL/MOL
REMARK 924 INTRA-LIGAND FREE ENERGY PREDICTED BY IDOCK:   -0.67 KCAL/MOL
REMARK 927      BINDING AFFINITY PREDICTED BY RF-SCORE:    0.00 PKD
ROOT
HETATM    1  C   UNL     1     -10.047  15.230  66.489  1.00  0.00    -0.280 C  
HETATM    2  C   UNL     1     -10.507  15.665  65.125  1.00  0.00    -0.417 C  
HETATM    3  C   UNL     1      -9.325  16.351  65.761  1.00  0.00    -0.152 C  
ENDROOT
BRANCH   1   4
HETATM    4  C   UNL     1      -9.330  13.933  66.713  1.00  0.00    -0.275 C  
BRANCH   4   5
HETATM    5  N   UNL     1     -10.229  12.817  66.457  1.00  0.00    -0.248 NA 
HETATM    6  H   UNL     1     -11.086  12.712  67.000  1.00  0.00     0.000 HD 
BRANCH   5   7
HETATM    7  C   UNL     1      -9.936  11.966  65.542  1.00  0.00    -0.238 C  
HETATM    8  H   UNL     1      -8.792  10.365  64.982  1.00  0.00     0.000 HD 
HETATM    9  O   UNL     1      -9.009  10.995  65.660  1.00  0.00    -0.197 OA 
BRANCH   7  10
HETATM   10  C   UNL     1     -10.591  11.959  64.191  1.00  0.00    -0.397 C  
HETATM   11  C   UNL     1     -12.005  12.506  64.263  1.00  0.00    -0.484 C  
ENDBRANCH   7  10
ENDBRANCH   5   7
ENDBRANCH   4   5
ENDBRANCH   1   4
BRANCH   3  12
HETATM   12  C   UNL     1      -9.399  17.778  66.252  1.00  0.00    -0.219 A  
HETATM   13  C   UNL     1     -10.607  18.322  66.733  1.00  0.00    -0.338 A  
HETATM   14  C   UNL     1     -10.673  19.606  67.306  1.00  0.00    -0.583 A  
HETATM   15  C   UNL     1      -9.525  20.385  67.420  1.00  0.00    -0.561 A  
HETATM   16  C   UNL     1      -8.276  18.597  66.366  1.00  0.00    -0.295 A  
HETATM   17  C   UNL     1      -6.876  18.321  65.971  1.00  0.00    -0.311 C  
HETATM   18  C   UNL     1      -8.345  19.860  66.939  1.00  0.00    -0.321 A  
HETATM   19  O   UNL     1      -7.147  20.518  67.009  1.00  0.00    -0.263 OA 
HETATM   20  C   UNL     1      -6.193  19.618  66.406  1.00  0.00    -0.175 C  
ENDBRANCH   3  12
TORSDOF 5
ENDMDL
MODEL       97
REMARK 921   NORMALIZED FREE ENERGY PREDICTED BY IDOCK:   -4.45 KCAL/MOL
REMARK 922        TOTAL FREE ENERGY PREDICTED BY IDOCK:   -6.42 KCAL/MOL
REMARK 923 INTER-LIGAND FREE ENERGY PREDICTED BY IDOCK:   -5.92 KCAL/MOL
REMARK 924 INTRA-LIGAND FREE ENERGY PREDICTED BY IDOCK:   -0.50 KCAL/MOL
REMARK 927      BINDING AFFINITY PREDICTED BY RF-SCORE:    0.00 PKD
ROOT
HETATM    1  C   UNL     1     -10.526   8.960  67.137  1.00  0.00    -0.344 C  
HETATM    2  C   UNL     1      -9.282   8.827  66.304  1.00  0.00    -0.261 C  
HETATM    3  C   UNL     1      -9.812  10.201  66.628  1.00  0.00    -0.253 C  
ENDROOT
BRANCH   1   4
HETATM    4  C   UNL     1     -10.532   8.682  68.610  1.00  0.00    -0.177 C  
BRANCH   4   5
HETATM    5  N   UNL     1     -11.096   7.364  68.865  1.00  0.00    -0.439 NA 
HETATM    6  H   UNL     1     -12.080   7.265  69.112  1.00  0.00     0.000 HD 
BRANCH   5   7
HETATM    7  C   UNL     1     -10.344   6.327  68.777  1.00  0.00    -0.205 C  
HETATM    8  H   UNL     1      -9.621   4.820  67.597  1.00  0.00     0.000 HD 
HETATM    9  O   UNL     1     -10.177   5.588  67.662  1.00  0.00    -0.168 OA 
BRANCH   7  10
HETATM   10  C   UNL     1      -9.557   5.786  69.936  1.00  0.00    -0.201 C  
HETATM   11  C   UNL     1      -9.696   4.279  70.038  1.00  0.00    -0.287 C  
ENDBRANCH   7  10
ENDBRANCH   5   7
ENDBRANCH   4   5
ENDBRANCH   1   4
BRANCH   3  12
HETATM   12  C   UNL     1     -10.437  11.086  65.575  1.00  0.00    -0.302 A  
HETATM   13  C   UNL     1     -10.319  10.782  64.203  1.00  0.00    -0.382 A  
HETATM   14  C   UNL     1     -10.992  11.523  63.214  1.00  0.00    -0.308 A  
HETATM   15  C   UNL     1     -11.810  12.591  63.569  1.00  0.00    -0.616 A  
HETATM   16  C   UNL     1     -11.250  12.175  65.889  1.00  0.00    -0.384 A  
HETATM   17  C   UNL     1     -11.584  12.737  67.217  1.00  0.00    -0.420 C  
HETATM   18  C   UNL     1     -11.917  12.897  64.908  1.00  0.00    -0.392 A  
HETATM   19  O   UNL     1     -12.702  13.911  65.386  1.00  0.00    -0.570 OA 
HETATM   20  C   UNL     1     -12.526  13.875  66.819  1.00  0.00    -0.213 C  
ENDBRANCH   3  12
TORSDOF 5
ENDMDL
MODEL       98
REMARK 921   NORMALIZED FREE ENERGY PREDICTED BY IDOCK:   -4.44 KCAL/MOL
REMARK 922        TOTAL FREE ENERGY PREDICTED BY IDOCK:   -6.42 KCAL/MOL
REMARK 923 INTER-LIGAND FREE ENERGY PREDICTED BY IDOCK:   -5.75 KCAL/MOL
REMARK 924 INTRA-LIGAND FREE ENERGY PREDICTED BY IDOCK:   -0.67 KCAL/MOL
REMARK 927      BINDING AFFINITY PREDICTED BY RF-SCORE:    0.00 PKD
ROOT
HETATM    1  C   UNL     1     -11.199  10.559  68.436  1.00  0.00    -0.339 C  
HETATM    2  C   UNL     1      -9.807  10.327  68.951  1.00  0.00    -0.200 C  
HETATM    3  C   UNL     1     -10.010  11.200  67.739  1.00  0.00    -0.193 C  
ENDROOT
BRANCH   1   4
HETATM    4  C   UNL     1     -12.178  11.440  69.151  1.00  0.00    -0.175 C  
BRANCH   4   5
HETATM    5  N   UNL     1     -11.859  11.487  70.571  1.00  0.00    -0.468 NA 
HETATM    6  H   UNL     1     -10.937  11.793  70.881  1.00  0.00     0.000 HD 
BRANCH   5   7
HETATM    7  C   UNL     1     -12.747  11.139  71.430  1.00  0.00    -0.418 C  
HETATM    8  H   UNL     1     -14.005  11.719  72.936  1.00  0.00     0.000 HD 
HETATM    9  O   UNL     1     -13.348  11.976  72.300  1.00  0.00    -0.485 OA 
BRANCH   7  10
HETATM   10  C   UNL     1     -13.223   9.724  71.588  1.00  0.00    -0.514 C  
HETATM   11  C   UNL     1     -12.102   8.817  72.061  1.00  0.00    -0.447 C  
ENDBRANCH   7  10
ENDBRANCH   5   7
ENDBRANCH   4   5
ENDBRANCH   1   4
BRANCH   3  12
HETATM   12  C   UNL     1      -9.583  10.760  66.358  1.00  0.00    -0.226 A  
HETATM   13  C   UNL     1      -8.643   9.725  66.179  1.00  0.00    -0.138 A  
HETATM   14  C   UNL     1      -8.322   9.219  64.906  1.00  0.00    -0.164 A  
HETATM   15  C   UNL     1      -8.938   9.733  63.769  1.00  0.00    -0.272 A  
HETATM   16  C   UNL     1     -10.164  11.262  65.193  1.00  0.00    -0.344 A  
HETATM   17  C   UNL     1     -11.180  12.327  65.041  1.00  0.00    -0.367 C  
HETATM   18  C   UNL     1      -9.848  10.753  63.940  1.00  0.00    -0.332 A  
HETATM   19  O   UNL     1     -10.533  11.329  62.905  1.00  0.00    -0.199 OA 
HETATM   20  C   UNL     1     -11.369  12.331  63.524  1.00  0.00    -0.470 C  
ENDBRANCH   3  12
TORSDOF 5
ENDMDL
MODEL       99
REMARK 921   NORMALIZED FREE ENERGY PREDICTED BY IDOCK:   -4.41 KCAL/MOL
REMARK 922        TOTAL FREE ENERGY PREDICTED BY IDOCK:   -6.37 KCAL/MOL
REMARK 923 INTER-LIGAND FREE ENERGY PREDICTED BY IDOCK:   -6.09 KCAL/MOL
REMARK 924 INTRA-LIGAND FREE ENERGY PREDICTED BY IDOCK:   -0.28 KCAL/MOL
REMARK 927      BINDING AFFINITY PREDICTED BY RF-SCORE:    0.00 PKD
ROOT
HETATM    1  C   UNL     1     -11.402  12.414  69.299  1.00  0.00    -0.315 C  
HETATM    2  C   UNL     1     -11.664  13.839  68.899  1.00  0.00    -0.374 C  
HETATM    3  C   UNL     1     -12.150  12.721  68.012  1.00  0.00    -0.174 C  
ENDROOT
BRANCH   1   4
HETATM    4  C   UNL     1     -12.140  11.754  70.424  1.00  0.00    -0.352 C  
BRANCH   4   5
HETATM    5  N   UNL     1     -12.416  10.364  70.089  1.00  0.00    -0.506 NA 
HETATM    6  H   UNL     1     -12.697  10.109  69.142  1.00  0.00     0.000 HD 
BRANCH   5   7
HETATM    7  C   UNL     1     -12.304   9.461  70.994  1.00  0.00    -0.258 C  
HETATM    8  H   UNL     1     -13.214   7.972  72.063  1.00  0.00     0.000 HD 
HETATM    9  O   UNL     1     -13.297   8.640  71.393  1.00  0.00    -0.308 OA 
BRANCH   7  10
HETATM   10  C   UNL     1     -11.031   9.215  71.751  1.00  0.00    -0.429 C  
HETATM   11  C   UNL     1     -11.131   7.962  72.601  1.00  0.00    -0.447 C  
ENDBRANCH   7  10
ENDBRANCH   5   7
ENDBRANCH   4   5
ENDBRANCH   1   4
BRANCH   3  12
HETATM   12  C   UNL     1     -11.530  12.445  66.663  1.00  0.00    -0.429 A  
HETATM   13  C   UNL     1     -11.438  13.452  65.681  1.00  0.00    -0.335 A  
HETATM   14  C   UNL     1     -10.758  13.252  64.465  1.00  0.00    -0.428 A  
HETATM   15  C   UNL     1     -10.143  12.034  64.196  1.00  0.00    -0.340 A  
HETATM   16  C   UNL     1     -10.917  11.232  66.347  1.00  0.00    -0.285 A  
HETATM   17  C   UNL     1     -10.826   9.995  67.155  1.00  0.00    -0.240 C  
HETATM   18  C   UNL     1     -10.241  11.043  65.148  1.00  0.00    -0.291 A  
HETATM   19  O   UNL     1      -9.666   9.809  65.011  1.00  0.00    -0.298 OA 
HETATM   20  C   UNL     1     -10.007   9.101  66.222  1.00  0.00    -0.282 C  
ENDBRANCH   3  12
TORSDOF 5
ENDMDL
MODEL      100
REMARK 921   NORMALIZED FREE ENERGY PREDICTED BY IDOCK:   -4.40 KCAL/MOL
REMARK 922        TOTAL FREE ENERGY PREDICTED BY IDOCK:   -6.36 KCAL/MOL
REMARK 923 INTER-LIGAND FREE ENERGY PREDICTED BY IDOCK:   -5.61 KCAL/MOL
REMARK 924 INTRA-LIGAND FREE ENERGY PREDICTED BY IDOCK:   -0.74 KCAL/MOL
REMARK 927      BINDING AFFINITY PREDICTED BY RF-SCORE:    0.00 PKD
ROOT
HETATM    1  C   UNL     1     -12.022  12.104  68.553  1.00  0.00    -0.273 C  
HETATM    2  C   UNL     1     -11.891  11.800  70.019  1.00  0.00    -0.422 C  
HETATM    3  C   UNL     1     -10.753  11.462  69.089  1.00  0.00    -0.229 C  
ENDROOT
BRANCH   1   4
HETATM    4  C   UNL     1     -11.955  13.503  68.019  1.00  0.00    -0.337 C  
BRANCH   4   5
HETATM    5  N   UNL     1     -11.209  13.523  66.769  1.00  0.00    -0.303 NA 
HETATM    6  H   UNL     1     -10.190  13.485  66.778  1.00  0.00     0.000 HD 
BRANCH   5   7
HETATM    7  C   UNL     1     -11.842  13.588  65.655  1.00  0.00    -0.369 C  
HETATM    8  H   UNL     1     -13.563  14.116  64.681  1.00  0.00     0.000 HD 
HETATM    9  O   UNL     1     -13.093  14.068  65.506  1.00  0.00    -0.713 OA 
BRANCH   7  10
HETATM   10  C   UNL     1     -11.263  13.110  64.355  1.00  0.00    -0.403 C  
HETATM   11  C   UNL     1     -12.209  12.156  63.650  1.00  0.00    -0.663 C  
ENDBRANCH   7  10
ENDBRANCH   5   7
ENDBRANCH   4   5
ENDBRANCH   1   4
BRANCH   3  12
HETATM   12  C   UNL     1     -10.397  10.034  68.750  1.00  0.00    -0.216 A  
HETATM   13  C   UNL     1     -10.634   8.986  69.662  1.00  0.00    -0.230 A  
HETATM   14  C   UNL     1     -10.422   7.637  69.323  1.00  0.00    -0.220 A  
HETATM   15  C   UNL     1      -9.968   7.294  68.053  1.00  0.00    -0.186 A  
HETATM   16  C   UNL     1      -9.923   9.651  67.495  1.00  0.00    -0.231 A  
HETATM   17  C   UNL     1      -9.590  10.496  66.326  1.00  0.00    -0.232 C  
HETATM   18  C   UNL     1      -9.723   8.317  67.163  1.00  0.00    -0.195 A  
HETATM   19  O   UNL     1      -9.292   8.110  65.882  1.00  0.00    -0.155 OA 
HETATM   20  C   UNL     1      -9.174   9.431  65.310  1.00  0.00    -0.238 C  
ENDBRANCH   3  12
TORSDOF 5
ENDMDL
MODEL      101
REMARK 921   NORMALIZED FREE ENERGY PREDICTED BY IDOCK:   -4.38 KCAL/MOL
REMARK 922        TOTAL FREE ENERGY PREDICTED BY IDOCK:   -6.34 KCAL/MOL
REMARK 923 INTER-LIGAND FREE ENERGY PREDICTED BY IDOCK:   -6.40 KCAL/MOL
REMARK 924 INTRA-LIGAND FREE ENERGY PREDICTED BY IDOCK:    0.07 KCAL/MOL
REMARK 927      BINDING AFFINITY PREDICTED BY RF-SCORE:    0.00 PKD
ROOT
HETATM    1  C   UNL     1     -11.321  14.842  67.680  1.00  0.00    -0.348 C  
HETATM    2  C   UNL     1     -11.663  13.727  68.628  1.00  0.00    -0.391 C  
HETATM    3  C   UNL     1     -10.434  13.611  67.762  1.00  0.00    -0.241 C  
ENDROOT
BRANCH   1   4
HETATM    4  C   UNL     1     -10.780  16.156  68.157  1.00  0.00    -0.315 C  
BRANCH   4   5
HETATM    5  N   UNL     1      -9.827  16.682  67.190  1.00  0.00    -0.251 NA 
HETATM    6  H   UNL     1      -8.849  16.394  67.222  1.00  0.00     0.000 HD 
BRANCH   5   7
HETATM    7  C   UNL     1     -10.227  17.511  66.295  1.00  0.00    -0.355 C  
HETATM    8  H   UNL     1     -10.750  17.815  64.340  1.00  0.00     0.000 HD 
HETATM    9  O   UNL     1     -10.455  17.202  65.003  1.00  0.00    -0.611 OA 
BRANCH   7  10
HETATM   10  C   UNL     1     -10.476  18.964  66.580  1.00  0.00    -0.500 C  
HETATM   11  C   UNL     1      -9.206  19.780  66.429  1.00  0.00    -0.468 C  
ENDBRANCH   7  10
ENDBRANCH   5   7
ENDBRANCH   4   5
ENDBRANCH   1   4
BRANCH   3  12
HETATM   12  C   UNL     1     -10.353  12.628  66.618  1.00  0.00    -0.249 A  
HETATM   13  C   UNL     1      -9.696  11.389  66.764  1.00  0.00    -0.221 A  
HETATM   14  C   UNL     1      -9.712  10.411  65.753  1.00  0.00    -0.285 A  
HETATM   15  C   UNL     1     -10.393  10.641  64.562  1.00  0.00    -0.352 A  
HETATM   16  C   UNL     1     -11.008  12.828  65.402  1.00  0.00    -0.313 A  
HETATM   17  C   UNL     1     -11.789  14.000  64.946  1.00  0.00    -0.402 C  
HETATM   18  C   UNL     1     -11.026  11.855  64.411  1.00  0.00    -0.337 A  
HETATM   19  O   UNL     1     -11.743  12.195  63.297  1.00  0.00    -0.419 OA 
HETATM   20  C   UNL     1     -12.231  13.528  63.560  1.00  0.00    -0.346 C  
ENDBRANCH   3  12
TORSDOF 5
ENDMDL
MODEL      102
REMARK 921   NORMALIZED FREE ENERGY PREDICTED BY IDOCK:   -4.37 KCAL/MOL
REMARK 922        TOTAL FREE ENERGY PREDICTED BY IDOCK:   -6.33 KCAL/MOL
REMARK 923 INTER-LIGAND FREE ENERGY PREDICTED BY IDOCK:   -5.78 KCAL/MOL
REMARK 924 INTRA-LIGAND FREE ENERGY PREDICTED BY IDOCK:   -0.55 KCAL/MOL
REMARK 927      BINDING AFFINITY PREDICTED BY RF-SCORE:    0.00 PKD
ROOT
HETATM    1  C   UNL     1     -12.246  11.055  69.598  1.00  0.00    -0.370 C  
HETATM    2  C   UNL     1     -12.535  11.157  71.070  1.00  0.00    -0.506 C  
HETATM    3  C   UNL     1     -11.325  10.386  70.606  1.00  0.00    -0.411 C  
ENDROOT
BRANCH   1   4
HETATM    4  C   UNL     1     -11.728  12.215  68.804  1.00  0.00    -0.321 C  
BRANCH   4   5
HETATM    5  N   UNL     1     -11.960  11.991  67.385  1.00  0.00    -0.585 NA 
HETATM    6  H   UNL     1     -12.910  11.881  67.030  1.00  0.00     0.000 HD 
BRANCH   5   7
HETATM    7  C   UNL     1     -10.960  11.932  66.582  1.00  0.00    -0.291 C  
HETATM    8  H   UNL     1      -9.050  11.274  66.256  1.00  0.00     0.000 HD 
HETATM    9  O   UNL     1      -9.791  11.318  66.850  1.00  0.00    -0.189 OA 
BRANCH   7  10
HETATM   10  C   UNL     1     -10.964  12.571  65.223  1.00  0.00    -0.329 C  
HETATM   11  C   UNL     1     -12.338  12.498  64.585  1.00  0.00    -0.547 C  
ENDBRANCH   7  10
ENDBRANCH   5   7
ENDBRANCH   4   5
ENDBRANCH   1   4
BRANCH   3  12
HETATM   12  C   UNL     1     -11.247   8.882  70.715  1.00  0.00    -0.321 A  
HETATM   13  C   UNL     1     -12.199   8.153  71.456  1.00  0.00    -0.332 A  
HETATM   14  C   UNL     1     -12.216   6.746  71.473  1.00  0.00    -0.413 A  
HETATM   15  C   UNL     1     -11.279   6.023  70.742  1.00  0.00    -0.340 A  
HETATM   16  C   UNL     1     -10.313   8.121  70.011  1.00  0.00    -0.215 A  
HETATM   17  C   UNL     1      -9.206   8.575  69.141  1.00  0.00    -0.150 C  
HETATM   18  C   UNL     1     -10.340   6.732  70.026  1.00  0.00    -0.199 A  
HETATM   19  O   UNL     1      -9.379   6.139  69.253  1.00  0.00    -0.134 OA 
HETATM   20  C   UNL     1      -8.627   7.234  68.687  1.00  0.00    -0.128 C  
ENDBRANCH   3  12
TORSDOF 5
ENDMDL
MODEL      103
REMARK 921   NORMALIZED FREE ENERGY PREDICTED BY IDOCK:   -4.37 KCAL/MOL
REMARK 922        TOTAL FREE ENERGY PREDICTED BY IDOCK:   -6.32 KCAL/MOL
REMARK 923 INTER-LIGAND FREE ENERGY PREDICTED BY IDOCK:   -5.77 KCAL/MOL
REMARK 924 INTRA-LIGAND FREE ENERGY PREDICTED BY IDOCK:   -0.55 KCAL/MOL
REMARK 927      BINDING AFFINITY PREDICTED BY RF-SCORE:    0.00 PKD
ROOT
HETATM    1  C   UNL     1     -11.990  11.415  68.884  1.00  0.00    -0.371 C  
HETATM    2  C   UNL     1     -12.021  12.107  70.218  1.00  0.00    -0.389 C  
HETATM    3  C   UNL     1     -11.314  10.781  70.088  1.00  0.00    -0.390 C  
ENDROOT
BRANCH   1   4
HETATM    4  C   UNL     1     -11.139  11.904  67.752  1.00  0.00    -0.239 C  
BRANCH   4   5
HETATM    5  N   UNL     1     -11.728  13.101  67.167  1.00  0.00    -0.360 NA 
HETATM    6  H   UNL     1     -12.542  13.028  66.558  1.00  0.00     0.000 HD 
BRANCH   5   7
HETATM    7  C   UNL     1     -11.215  14.248  67.425  1.00  0.00    -0.316 C  
HETATM    8  H   UNL     1      -9.662  15.547  67.128  1.00  0.00     0.000 HD 
HETATM    9  O   UNL     1     -10.042  14.697  66.937  1.00  0.00    -0.249 OA 
BRANCH   7  10
HETATM   10  C   UNL     1     -11.864  15.248  68.339  1.00  0.00    -0.283 C  
HETATM   11  C   UNL     1     -10.843  16.212  68.914  1.00  0.00    -0.305 C  
ENDBRANCH   7  10
ENDBRANCH   5   7
ENDBRANCH   4   5
ENDBRANCH   1   4
BRANCH   3  12
HETATM   12  C   UNL     1     -11.860   9.521  70.717  1.00  0.00    -0.350 A  
HETATM   13  C   UNL     1     -13.124   9.504  71.341  1.00  0.00    -0.449 A  
HETATM   14  C   UNL     1     -13.702   8.316  71.826  1.00  0.00    -0.420 A  
HETATM   15  C   UNL     1     -13.032   7.104  71.697  1.00  0.00    -0.415 A  
HETATM   16  C   UNL     1     -11.211   8.289  70.625  1.00  0.00    -0.270 A  
HETATM   17  C   UNL     1      -9.896   7.970  70.026  1.00  0.00    -0.185 C  
HETATM   18  C   UNL     1     -11.791   7.119  71.099  1.00  0.00    -0.325 A  
HETATM   19  O   UNL     1     -11.040   5.993  70.897  1.00  0.00    -0.291 OA 
HETATM   20  C   UNL     1      -9.838   6.458  70.246  1.00  0.00    -0.168 C  
ENDBRANCH   3  12
TORSDOF 5
ENDMDL
MODEL      104
REMARK 921   NORMALIZED FREE ENERGY PREDICTED BY IDOCK:   -4.36 KCAL/MOL
REMARK 922        TOTAL FREE ENERGY PREDICTED BY IDOCK:   -6.31 KCAL/MOL
REMARK 923 INTER-LIGAND FREE ENERGY PREDICTED BY IDOCK:   -5.80 KCAL/MOL
REMARK 924 INTRA-LIGAND FREE ENERGY PREDICTED BY IDOCK:   -0.51 KCAL/MOL
REMARK 927      BINDING AFFINITY PREDICTED BY RF-SCORE:    0.00 PKD
ROOT
HETATM    1  C   UNL     1     -10.782  17.196  68.063  1.00  0.00    -0.372 C  
HETATM    2  C   UNL     1     -10.053  16.631  69.250  1.00  0.00    -0.257 C  
HETATM    3  C   UNL     1      -9.918  15.955  67.909  1.00  0.00    -0.221 C  
ENDROOT
BRANCH   1   4
HETATM    4  C   UNL     1     -10.350  18.465  67.393  1.00  0.00    -0.391 C  
BRANCH   4   5
HETATM    5  N   UNL     1      -8.981  18.334  66.916  1.00  0.00    -0.271 NA 
HETATM    6  H   UNL     1      -8.652  17.448  66.533  1.00  0.00     0.000 HD 
BRANCH   5   7
HETATM    7  C   UNL     1      -8.190  19.343  66.979  1.00  0.00    -0.272 C  
HETATM    8  H   UNL     1      -7.902  21.269  67.608  1.00  0.00     0.000 HD 
HETATM    9  O   UNL     1      -8.487  20.522  67.561  1.00  0.00    -0.319 OA 
BRANCH   7  10
HETATM   10  C   UNL     1      -6.812  19.341  66.382  1.00  0.00    -0.219 C  
HETATM   11  C   UNL     1      -6.752  20.205  65.136  1.00  0.00    -0.333 C  
ENDBRANCH   7  10
ENDBRANCH   5   7
ENDBRANCH   4   5
ENDBRANCH   1   4
BRANCH   3  12
HETATM   12  C   UNL     1     -10.533  14.604  67.630  1.00  0.00    -0.243 A  
HETATM   13  C   UNL     1     -10.599  13.611  68.629  1.00  0.00    -0.260 A  
HETATM   14  C   UNL     1     -11.274  12.393  68.428  1.00  0.00    -0.316 A  
HETATM   15  C   UNL     1     -11.909  12.132  67.218  1.00  0.00    -0.293 A  
HETATM   16  C   UNL     1     -11.166  14.297  66.425  1.00  0.00    -0.337 A  
HETATM   17  C   UNL     1     -11.286  15.117  65.199  1.00  0.00    -0.392 C  
HETATM   18  C   UNL     1     -11.836  13.095  66.236  1.00  0.00    -0.401 A  
HETATM   19  O   UNL     1     -12.433  12.967  65.012  1.00  0.00    -0.463 OA 
HETATM   20  C   UNL     1     -12.114  14.187  64.311  1.00  0.00    -0.444 C  
ENDBRANCH   3  12
TORSDOF 5
ENDMDL
MODEL      105
REMARK 921   NORMALIZED FREE ENERGY PREDICTED BY IDOCK:   -4.29 KCAL/MOL
REMARK 922        TOTAL FREE ENERGY PREDICTED BY IDOCK:   -6.22 KCAL/MOL
REMARK 923 INTER-LIGAND FREE ENERGY PREDICTED BY IDOCK:   -5.75 KCAL/MOL
REMARK 924 INTRA-LIGAND FREE ENERGY PREDICTED BY IDOCK:   -0.47 KCAL/MOL
REMARK 927      BINDING AFFINITY PREDICTED BY RF-SCORE:    0.00 PKD
ROOT
HETATM    1  C   UNL     1      -9.808  15.942  69.076  1.00  0.00    -0.234 C  
HETATM    2  C   UNL     1     -10.367  15.066  67.991  1.00  0.00    -0.236 C  
HETATM    3  C   UNL     1     -11.290  15.604  69.055  1.00  0.00    -0.332 C  
ENDROOT
BRANCH   1   4
HETATM    4  C   UNL     1      -9.387  17.357  68.820  1.00  0.00    -0.244 C  
BRANCH   4   5
HETATM    5  N   UNL     1      -8.460  17.405  67.698  1.00  0.00    -0.210 NA 
HETATM    6  H   UNL     1      -8.726  17.012  66.795  1.00  0.00     0.000 HD 
BRANCH   5   7
HETATM    7  C   UNL     1      -7.307  17.946  67.852  1.00  0.00    -0.222 C  
HETATM    8  H   UNL     1      -5.323  17.944  67.352  1.00  0.00     0.000 HD 
HETATM    9  O   UNL     1      -6.177  17.544  67.237  1.00  0.00    -0.130 OA 
BRANCH   7  10
HETATM   10  C   UNL     1      -7.065  19.109  68.772  1.00  0.00    -0.366 C  
HETATM   11  C   UNL     1      -6.754  20.372  67.991  1.00  0.00    -0.336 C  
ENDBRANCH   7  10
ENDBRANCH   5   7
ENDBRANCH   4   5
ENDBRANCH   1   4
BRANCH   3  12
HETATM   12  C   UNL     1     -11.902  14.710  70.107  1.00  0.00    -0.365 A  
HETATM   13  C   UNL     1     -12.194  13.357  69.837  1.00  0.00    -0.337 A  
HETATM   14  C   UNL     1     -12.652  12.477  70.835  1.00  0.00    -0.331 A  
HETATM   15  C   UNL     1     -12.827  12.925  72.141  1.00  0.00    -0.233 A  
HETATM   16  C   UNL     1     -12.110  15.124  71.423  1.00  0.00    -0.397 A  
HETATM   17  C   UNL     1     -11.892  16.459  72.026  1.00  0.00    -0.464 C  
HETATM   18  C   UNL     1     -12.555  14.249  72.406  1.00  0.00    -0.233 A  
HETATM   19  O   UNL     1     -12.670  14.806  73.650  1.00  0.00    -0.519 OA 
HETATM   20  C   UNL     1     -12.287  16.187  73.478  1.00  0.00    -0.559 C  
ENDBRANCH   3  12
TORSDOF 5
ENDMDL
MODEL      106
REMARK 921   NORMALIZED FREE ENERGY PREDICTED BY IDOCK:   -4.28 KCAL/MOL
REMARK 922        TOTAL FREE ENERGY PREDICTED BY IDOCK:   -6.21 KCAL/MOL
REMARK 923 INTER-LIGAND FREE ENERGY PREDICTED BY IDOCK:   -5.54 KCAL/MOL
REMARK 924 INTRA-LIGAND FREE ENERGY PREDICTED BY IDOCK:   -0.67 KCAL/MOL
REMARK 927      BINDING AFFINITY PREDICTED BY RF-SCORE:    0.00 PKD
ROOT
HETATM    1  C   UNL     1      -8.115  15.226  68.398  1.00  0.00    -0.137 C  
HETATM    2  C   UNL     1      -6.946  14.458  67.848  1.00  0.00    -0.174 C  
HETATM    3  C   UNL     1      -8.251  14.462  67.092  1.00  0.00    -0.202 C  
ENDROOT
BRANCH   1   4
HETATM    4  C   UNL     1      -8.170  16.723  68.369  1.00  0.00    -0.224 C  
BRANCH   4   5
HETATM    5  N   UNL     1      -8.813  17.173  67.144  1.00  0.00    -0.215 NA 
HETATM    6  H   UNL     1      -8.322  17.111  66.252  1.00  0.00     0.000 HD 
BRANCH   5   7
HETATM    7  C   UNL     1     -10.004  17.650  67.192  1.00  0.00    -0.316 C  
HETATM    8  H   UNL     1     -11.868  17.543  68.030  1.00  0.00     0.000 HD 
HETATM    9  O   UNL     1     -10.986  17.191  67.994  1.00  0.00    -0.362 OA 
BRANCH   7  10
HETATM   10  C   UNL     1     -10.465  18.789  66.330  1.00  0.00    -0.485 C  
HETATM   11  C   UNL     1      -9.514  19.968  66.422  1.00  0.00    -0.512 C  
ENDBRANCH   7  10
ENDBRANCH   5   7
ENDBRANCH   4   5
ENDBRANCH   1   4
BRANCH   3  12
HETATM   12  C   UNL     1      -9.120  13.230  66.993  1.00  0.00    -0.232 A  
HETATM   13  C   UNL     1      -8.784  12.043  67.674  1.00  0.00    -0.166 A  
HETATM   14  C   UNL     1      -9.639  10.925  67.694  1.00  0.00    -0.177 A  
HETATM   15  C   UNL     1     -10.863  10.964  67.034  1.00  0.00    -0.323 A  
HETATM   16  C   UNL     1     -10.346  13.223  66.327  1.00  0.00    -0.290 A  
HETATM   17  C   UNL     1     -10.986  14.300  65.540  1.00  0.00    -0.319 C  
HETATM   18  C   UNL     1     -11.189  12.119  66.357  1.00  0.00    -0.331 A  
HETATM   19  O   UNL     1     -12.368  12.289  65.685  1.00  0.00    -0.619 OA 
HETATM   20  C   UNL     1     -12.298  13.623  65.138  1.00  0.00    -0.452 C  
ENDBRANCH   3  12
TORSDOF 5
ENDMDL
MODEL      107
REMARK 921   NORMALIZED FREE ENERGY PREDICTED BY IDOCK:   -4.28 KCAL/MOL
REMARK 922        TOTAL FREE ENERGY PREDICTED BY IDOCK:   -6.20 KCAL/MOL
REMARK 923 INTER-LIGAND FREE ENERGY PREDICTED BY IDOCK:   -5.77 KCAL/MOL
REMARK 924 INTRA-LIGAND FREE ENERGY PREDICTED BY IDOCK:   -0.43 KCAL/MOL
REMARK 927      BINDING AFFINITY PREDICTED BY RF-SCORE:    0.00 PKD
ROOT
HETATM    1  C   UNL     1     -11.679  12.705  68.439  1.00  0.00    -0.377 C  
HETATM    2  C   UNL     1     -11.871  11.513  69.333  1.00  0.00    -0.417 C  
HETATM    3  C   UNL     1     -10.588  11.652  68.553  1.00  0.00    -0.241 C  
ENDROOT
BRANCH   1   4
HETATM    4  C   UNL     1     -11.419  14.077  68.984  1.00  0.00    -0.296 C  
BRANCH   4   5
HETATM    5  N   UNL     1     -11.297  14.021  70.433  1.00  0.00    -0.496 NA 
HETATM    6  H   UNL     1     -10.579  13.442  70.867  1.00  0.00     0.000 HD 
BRANCH   5   7
HETATM    7  C   UNL     1     -12.100  14.708  71.162  1.00  0.00    -0.342 C  
HETATM    8  H   UNL     1     -13.967  15.520  71.373  1.00  0.00     0.000 HD 
HETATM    9  O   UNL     1     -13.372  15.012  70.833  1.00  0.00    -0.401 OA 
BRANCH   7  10
HETATM   10  C   UNL     1     -11.708  15.286  72.491  1.00  0.00    -0.535 C  
HETATM   11  C   UNL     1     -12.752  14.986  73.550  1.00  0.00    -0.667 C  
ENDBRANCH   7  10
ENDBRANCH   5   7
ENDBRANCH   4   5
ENDBRANCH   1   4
BRANCH   3  12
HETATM   12  C   UNL     1     -10.255  10.743  67.394  1.00  0.00    -0.241 A  
HETATM   13  C   UNL     1     -10.208  11.231  66.072  1.00  0.00    -0.295 A  
HETATM   14  C   UNL     1      -9.784  10.432  64.995  1.00  0.00    -0.362 A  
HETATM   15  C   UNL     1      -9.388   9.116  65.209  1.00  0.00    -0.224 A  
HETATM   16  C   UNL     1      -9.870   9.413  67.564  1.00  0.00    -0.220 A  
HETATM   17  C   UNL     1      -9.798   8.614  68.808  1.00  0.00    -0.180 C  
HETATM   18  C   UNL     1      -9.445   8.631  66.497  1.00  0.00    -0.216 A  
HETATM   19  O   UNL     1      -9.066   7.362  66.840  1.00  0.00    -0.130 OA 
HETATM   20  C   UNL     1      -9.278   7.282  68.266  1.00  0.00    -0.133 C  
ENDBRANCH   3  12
TORSDOF 5
ENDMDL
MODEL      108
REMARK 921   NORMALIZED FREE ENERGY PREDICTED BY IDOCK:   -4.28 KCAL/MOL
REMARK 922        TOTAL FREE ENERGY PREDICTED BY IDOCK:   -6.20 KCAL/MOL
REMARK 923 INTER-LIGAND FREE ENERGY PREDICTED BY IDOCK:   -5.36 KCAL/MOL
REMARK 924 INTRA-LIGAND FREE ENERGY PREDICTED BY IDOCK:   -0.84 KCAL/MOL
REMARK 927      BINDING AFFINITY PREDICTED BY RF-SCORE:    0.00 PKD
ROOT
HETATM    1  C   UNL     1     -11.060  16.569  68.704  1.00  0.00    -0.329 C  
HETATM    2  C   UNL     1     -11.997  15.895  69.667  1.00  0.00    -0.272 C  
HETATM    3  C   UNL     1     -10.796  15.142  69.154  1.00  0.00    -0.251 C  
ENDROOT
BRANCH   1   4
HETATM    4  C   UNL     1     -10.116  17.650  69.135  1.00  0.00    -0.232 C  
BRANCH   4   5
HETATM    5  N   UNL     1      -9.702  18.437  67.983  1.00  0.00    -0.303 NA 
HETATM    6  H   UNL     1     -10.119  19.352  67.809  1.00  0.00     0.000 HD 
BRANCH   5   7
HETATM    7  C   UNL     1      -8.808  17.974  67.188  1.00  0.00    -0.248 C  
HETATM    8  H   UNL     1      -8.329  17.396  65.284  1.00  0.00     0.000 HD 
HETATM    9  O   UNL     1      -8.991  17.739  65.873  1.00  0.00    -0.511 OA 
BRANCH   7  10
HETATM   10  C   UNL     1      -7.422  17.609  67.638  1.00  0.00    -0.206 C  
HETATM   11  C   UNL     1      -7.145  16.133  67.421  1.00  0.00    -0.209 C  
ENDBRANCH   7  10
ENDBRANCH   5   7
ENDBRANCH   4   5
ENDBRANCH   1   4
BRANCH   3  12
HETATM   12  C   UNL     1     -10.930  13.982  68.195  1.00  0.00    -0.268 A  
HETATM   13  C   UNL     1     -10.435  14.063  66.878  1.00  0.00    -0.276 A  
HETATM   14  C   UNL     1     -10.441  12.957  66.008  1.00  0.00    -0.290 A  
HETATM   15  C   UNL     1     -10.941  11.730  66.433  1.00  0.00    -0.341 A  
HETATM   16  C   UNL     1     -11.440  12.741  68.577  1.00  0.00    -0.344 A  
HETATM   17  C   UNL     1     -12.017  12.330  69.877  1.00  0.00    -0.377 C  
HETATM   18  C   UNL     1     -11.437  11.651  67.716  1.00  0.00    -0.302 A  
HETATM   19  O   UNL     1     -11.938  10.500  68.258  1.00  0.00    -0.377 OA 
HETATM   20  C   UNL     1     -12.333  10.859  69.599  1.00  0.00    -0.221 C  
ENDBRANCH   3  12
TORSDOF 5
ENDMDL
MODEL      109
REMARK 921   NORMALIZED FREE ENERGY PREDICTED BY IDOCK:   -4.26 KCAL/MOL
REMARK 922        TOTAL FREE ENERGY PREDICTED BY IDOCK:   -6.18 KCAL/MOL
REMARK 923 INTER-LIGAND FREE ENERGY PREDICTED BY IDOCK:   -5.51 KCAL/MOL
REMARK 924 INTRA-LIGAND FREE ENERGY PREDICTED BY IDOCK:   -0.67 KCAL/MOL
REMARK 927      BINDING AFFINITY PREDICTED BY RF-SCORE:    0.00 PKD
ROOT
HETATM    1  C   UNL     1      -8.873  10.340  65.684  1.00  0.00    -0.186 C  
HETATM    2  C   UNL     1      -8.983  10.134  67.169  1.00  0.00    -0.146 C  
HETATM    3  C   UNL     1     -10.235  10.352  66.358  1.00  0.00    -0.292 C  
ENDROOT
BRANCH   1   4
HETATM    4  C   UNL     1      -8.541   9.219  64.746  1.00  0.00    -0.184 C  
BRANCH   4   5
HETATM    5  N   UNL     1      -8.967   7.950  65.318  1.00  0.00    -0.386 NA 
HETATM    6  H   UNL     1      -9.921   7.834  65.659  1.00  0.00     0.000 HD 
BRANCH   5   7
HETATM    7  C   UNL     1      -8.134   6.976  65.389  1.00  0.00    -0.133 C  
HETATM    8  H   UNL     1      -7.691   5.047  64.870  1.00  0.00     0.000 HD 
HETATM    9  O   UNL     1      -8.308   5.768  64.817  1.00  0.00    -0.135 OA 
BRANCH   7  10
HETATM   10  C   UNL     1      -6.842   7.059  66.150  1.00  0.00    -0.057 C  
HETATM   11  C   UNL     1      -7.090   7.193  67.641  1.00  0.00    -0.089 C  
ENDBRANCH   7  10
ENDBRANCH   5   7
ENDBRANCH   4   5
ENDBRANCH   1   4
BRANCH   3  12
HETATM   12  C   UNL     1     -11.044  11.624  66.463  1.00  0.00    -0.357 A  
HETATM   13  C   UNL     1     -11.228  12.272  67.702  1.00  0.00    -0.346 A  
HETATM   14  C   UNL     1     -11.873  13.518  67.805  1.00  0.00    -0.398 A  
HETATM   15  C   UNL     1     -12.352  14.158  66.666  1.00  0.00    -0.375 A  
HETATM   16  C   UNL     1     -11.555  12.289  65.348  1.00  0.00    -0.412 A  
HETATM   17  C   UNL     1     -11.517  11.887  63.924  1.00  0.00    -0.511 C  
HETATM   18  C   UNL     1     -12.185  13.522  65.455  1.00  0.00    -0.451 A  
HETATM   19  O   UNL     1     -12.594  14.055  64.264  1.00  0.00    -0.670 OA 
HETATM   20  C   UNL     1     -12.222  13.076  63.270  1.00  0.00    -0.382 C  
ENDBRANCH   3  12
TORSDOF 5
ENDMDL
MODEL      110
REMARK 921   NORMALIZED FREE ENERGY PREDICTED BY IDOCK:   -4.24 KCAL/MOL
REMARK 922        TOTAL FREE ENERGY PREDICTED BY IDOCK:   -6.15 KCAL/MOL
REMARK 923 INTER-LIGAND FREE ENERGY PREDICTED BY IDOCK:   -5.52 KCAL/MOL
REMARK 924 INTRA-LIGAND FREE ENERGY PREDICTED BY IDOCK:   -0.64 KCAL/MOL
REMARK 927      BINDING AFFINITY PREDICTED BY RF-SCORE:    0.00 PKD
ROOT
HETATM    1  C   UNL     1     -10.149   7.412  67.370  1.00  0.00    -0.274 C  
HETATM    2  C   UNL     1     -10.469   6.077  66.758  1.00  0.00    -0.329 C  
HETATM    3  C   UNL     1     -11.135   6.476  68.050  1.00  0.00    -0.332 C  
ENDROOT
BRANCH   1   4
HETATM    4  C   UNL     1     -10.656   8.698  66.790  1.00  0.00    -0.153 C  
BRANCH   4   5
HETATM    5  N   UNL     1     -10.293   9.811  67.654  1.00  0.00    -0.214 NA 
HETATM    6  H   UNL     1      -9.322   9.951  67.932  1.00  0.00     0.000 HD 
BRANCH   5   7
HETATM    7  C   UNL     1     -11.204  10.617  68.064  1.00  0.00    -0.307 C  
HETATM    8  H   UNL     1     -12.705  11.915  67.566  1.00  0.00     0.000 HD 
HETATM    9  O   UNL     1     -12.031  11.319  67.263  1.00  0.00    -0.529 OA 
BRANCH   7  10
HETATM   10  C   UNL     1     -11.455  10.897  69.518  1.00  0.00    -0.372 C  
HETATM   11  C   UNL     1     -11.906  12.330  69.730  1.00  0.00    -0.388 C  
ENDBRANCH   7  10
ENDBRANCH   5   7
ENDBRANCH   4   5
ENDBRANCH   1   4
BRANCH   3  12
HETATM   12  C   UNL     1     -10.799   5.806  69.362  1.00  0.00    -0.393 A  
HETATM   13  C   UNL     1     -10.027   4.627  69.403  1.00  0.00    -0.249 A  
HETATM   14  C   UNL     1      -9.602   4.054  70.615  1.00  0.00    -0.260 A  
HETATM   15  C   UNL     1      -9.934   4.648  71.829  1.00  0.00    -0.260 A  
HETATM   16  C   UNL     1     -11.127   6.360  70.599  1.00  0.00    -0.376 A  
HETATM   17  C   UNL     1     -11.906   7.584  70.896  1.00  0.00    -0.293 C  
HETATM   18  C   UNL     1     -10.698   5.794  71.793  1.00  0.00    -0.249 A  
HETATM   19  O   UNL     1     -11.075   6.482  72.914  1.00  0.00    -0.251 OA 
HETATM   20  C   UNL     1     -11.845   7.601  72.424  1.00  0.00    -0.289 C  
ENDBRANCH   3  12
TORSDOF 5
ENDMDL
MODEL      111
REMARK 921   NORMALIZED FREE ENERGY PREDICTED BY IDOCK:   -4.24 KCAL/MOL
REMARK 922        TOTAL FREE ENERGY PREDICTED BY IDOCK:   -6.15 KCAL/MOL
REMARK 923 INTER-LIGAND FREE ENERGY PREDICTED BY IDOCK:   -6.42 KCAL/MOL
REMARK 924 INTRA-LIGAND FREE ENERGY PREDICTED BY IDOCK:    0.26 KCAL/MOL
REMARK 927      BINDING AFFINITY PREDICTED BY RF-SCORE:    0.00 PKD
ROOT
HETATM    1  C   UNL     1     -11.409  15.796  68.567  1.00  0.00    -0.374 C  
HETATM    2  C   UNL     1     -11.120  15.638  67.100  1.00  0.00    -0.218 C  
HETATM    3  C   UNL     1      -9.974  15.802  68.065  1.00  0.00    -0.222 C  
ENDROOT
BRANCH   1   4
HETATM    4  C   UNL     1     -11.873  14.653  69.416  1.00  0.00    -0.329 C  
BRANCH   4   5
HETATM    5  N   UNL     1     -13.096  15.018  70.117  1.00  0.00    -0.629 NA 
HETATM    6  H   UNL     1     -13.870  15.446  69.610  1.00  0.00     0.000 HD 
BRANCH   5   7
HETATM    7  C   UNL     1     -13.193  14.797  71.377  1.00  0.00    -0.371 C  
HETATM    8  H   UNL     1     -14.373  14.182  72.932  1.00  0.00     0.000 HD 
HETATM    9  O   UNL     1     -14.301  14.346  71.999  1.00  0.00    -0.495 OA 
BRANCH   7  10
HETATM   10  C   UNL     1     -12.065  15.036  72.339  1.00  0.00    -0.438 C  
HETATM   11  C   UNL     1     -12.586  15.406  73.716  1.00  0.00    -0.747 C  
ENDBRANCH   7  10
ENDBRANCH   5   7
ENDBRANCH   4   5
ENDBRANCH   1   4
BRANCH   3  12
HETATM   12  C   UNL     1      -9.137  17.058  68.105  1.00  0.00    -0.237 A  
HETATM   13  C   UNL     1      -7.984  17.143  68.912  1.00  0.00    -0.208 A  
HETATM   14  C   UNL     1      -7.124  18.256  68.873  1.00  0.00    -0.286 A  
HETATM   15  C   UNL     1      -7.391  19.321  68.018  1.00  0.00    -0.297 A  
HETATM   16  C   UNL     1      -9.380  18.154  67.277  1.00  0.00    -0.252 A  
HETATM   17  C   UNL     1     -10.484  18.369  66.314  1.00  0.00    -0.421 C  
HETATM   18  C   UNL     1      -8.524  19.248  67.237  1.00  0.00    -0.287 A  
HETATM   19  O   UNL     1      -8.886  20.219  66.345  1.00  0.00    -0.272 OA 
HETATM   20  C   UNL     1     -10.110  19.740  65.748  1.00  0.00    -0.332 C  
ENDBRANCH   3  12
TORSDOF 5
ENDMDL
MODEL      112
REMARK 921   NORMALIZED FREE ENERGY PREDICTED BY IDOCK:   -4.22 KCAL/MOL
REMARK 922        TOTAL FREE ENERGY PREDICTED BY IDOCK:   -6.13 KCAL/MOL
REMARK 923 INTER-LIGAND FREE ENERGY PREDICTED BY IDOCK:   -5.69 KCAL/MOL
REMARK 924 INTRA-LIGAND FREE ENERGY PREDICTED BY IDOCK:   -0.44 KCAL/MOL
REMARK 927      BINDING AFFINITY PREDICTED BY RF-SCORE:    0.00 PKD
ROOT
HETATM    1  C   UNL     1     -10.436  14.618  66.522  1.00  0.00    -0.290 C  
HETATM    2  C   UNL     1     -11.770  14.335  65.890  1.00  0.00    -0.375 C  
HETATM    3  C   UNL     1     -11.705  14.676  67.357  1.00  0.00    -0.413 C  
ENDROOT
BRANCH   1   4
HETATM    4  C   UNL     1      -9.684  15.888  66.261  1.00  0.00    -0.306 C  
BRANCH   4   5
HETATM    5  N   UNL     1      -8.512  15.957  67.121  1.00  0.00    -0.183 NA 
HETATM    6  H   UNL     1      -8.379  15.272  67.865  1.00  0.00     0.000 HD 
BRANCH   5   7
HETATM    7  C   UNL     1      -7.645  16.886  66.937  1.00  0.00    -0.215 C  
HETATM    8  H   UNL     1      -5.819  17.662  67.437  1.00  0.00     0.000 HD 
HETATM    9  O   UNL     1      -6.460  16.974  67.574  1.00  0.00    -0.128 OA 
BRANCH   7  10
HETATM   10  C   UNL     1      -7.857  18.024  65.981  1.00  0.00    -0.177 C  
HETATM   11  C   UNL     1      -6.546  18.478  65.367  1.00  0.00    -0.257 C  
ENDBRANCH   7  10
ENDBRANCH   5   7
ENDBRANCH   4   5
ENDBRANCH   1   4
BRANCH   3  12
HETATM   12  C   UNL     1     -11.982  13.648  68.428  1.00  0.00    -0.391 A  
HETATM   13  C   UNL     1     -11.719  12.280  68.214  1.00  0.00    -0.392 A  
HETATM   14  C   UNL     1     -11.856  11.323  69.236  1.00  0.00    -0.423 A  
HETATM   15  C   UNL     1     -12.258  11.708  70.511  1.00  0.00    -0.451 A  
HETATM   16  C   UNL     1     -12.401  13.991  69.714  1.00  0.00    -0.344 A  
HETATM   17  C   UNL     1     -12.742  15.325  70.259  1.00  0.00    -0.353 C  
HETATM   18  C   UNL     1     -12.528  13.043  70.721  1.00  0.00    -0.302 A  
HETATM   19  O   UNL     1     -12.912  13.550  71.932  1.00  0.00    -0.350 OA 
HETATM   20  C   UNL     1     -13.079  14.967  71.707  1.00  0.00    -0.339 C  
ENDBRANCH   3  12
TORSDOF 5
ENDMDL
MODEL      113
REMARK 921   NORMALIZED FREE ENERGY PREDICTED BY IDOCK:   -4.22 KCAL/MOL
REMARK 922        TOTAL FREE ENERGY PREDICTED BY IDOCK:   -6.13 KCAL/MOL
REMARK 923 INTER-LIGAND FREE ENERGY PREDICTED BY IDOCK:   -5.49 KCAL/MOL
REMARK 924 INTRA-LIGAND FREE ENERGY PREDICTED BY IDOCK:   -0.64 KCAL/MOL
REMARK 927      BINDING AFFINITY PREDICTED BY RF-SCORE:    0.00 PKD
ROOT
HETATM    1  C   UNL     1      -8.863  10.815  68.524  1.00  0.00    -0.149 C  
HETATM    2  C   UNL     1      -8.588   9.391  68.129  1.00  0.00    -0.120 C  
HETATM    3  C   UNL     1     -10.007   9.822  68.400  1.00  0.00    -0.176 C  
ENDROOT
BRANCH   1   4
HETATM    4  C   UNL     1      -8.778  11.945  67.544  1.00  0.00    -0.163 C  
BRANCH   4   5
HETATM    5  N   UNL     1      -9.812  11.803  66.529  1.00  0.00    -0.202 NA 
HETATM    6  H   UNL     1     -10.062  10.879  66.177  1.00  0.00     0.000 HD 
BRANCH   5   7
HETATM    7  C   UNL     1     -10.407  12.848  66.082  1.00  0.00    -0.276 C  
HETATM    8  H   UNL     1     -10.236  14.654  65.134  1.00  0.00     0.000 HD 
HETATM    9  O   UNL     1      -9.796  13.880  65.465  1.00  0.00    -0.270 OA 
BRANCH   7  10
HETATM   10  C   UNL     1     -11.887  13.064  66.209  1.00  0.00    -0.466 C  
HETATM   11  C   UNL     1     -12.620  12.596  64.965  1.00  0.00    -0.504 C  
ENDBRANCH   7  10
ENDBRANCH   5   7
ENDBRANCH   4   5
ENDBRANCH   1   4
BRANCH   3  12
HETATM   12  C   UNL     1     -10.766   9.349  69.617  1.00  0.00    -0.251 A  
HETATM   13  C   UNL     1     -10.573   8.054  70.140  1.00  0.00    -0.237 A  
HETATM   14  C   UNL     1     -11.178   7.634  71.340  1.00  0.00    -0.273 A  
HETATM   15  C   UNL     1     -11.994   8.503  72.057  1.00  0.00    -0.427 A  
HETATM   16  C   UNL     1     -11.606  10.183  70.355  1.00  0.00    -0.396 A  
HETATM   17  C   UNL     1     -11.999  11.584  70.087  1.00  0.00    -0.452 C  
HETATM   18  C   UNL     1     -12.194   9.765  71.542  1.00  0.00    -0.406 A  
HETATM   19  O   UNL     1     -12.959  10.716  72.161  1.00  0.00    -0.427 OA 
HETATM   20  C   UNL     1     -12.892  11.870  71.295  1.00  0.00    -0.290 C  
ENDBRANCH   3  12
TORSDOF 5
ENDMDL
MODEL      114
REMARK 921   NORMALIZED FREE ENERGY PREDICTED BY IDOCK:   -4.21 KCAL/MOL
REMARK 922        TOTAL FREE ENERGY PREDICTED BY IDOCK:   -6.12 KCAL/MOL
REMARK 923 INTER-LIGAND FREE ENERGY PREDICTED BY IDOCK:   -6.21 KCAL/MOL
REMARK 924 INTRA-LIGAND FREE ENERGY PREDICTED BY IDOCK:    0.09 KCAL/MOL
REMARK 927      BINDING AFFINITY PREDICTED BY RF-SCORE:    0.00 PKD
ROOT
HETATM    1  C   UNL     1      -9.137  15.507  66.409  1.00  0.00    -0.351 C  
HETATM    2  C   UNL     1     -10.506  15.811  65.869  1.00  0.00    -0.366 C  
HETATM    3  C   UNL     1     -10.316  15.652  67.356  1.00  0.00    -0.275 C  
ENDROOT
BRANCH   1   4
HETATM    4  C   UNL     1      -8.049  16.537  66.447  1.00  0.00    -0.327 C  
BRANCH   4   5
HETATM    5  N   UNL     1      -8.568  17.826  66.012  1.00  0.00    -0.520 NA 
HETATM    6  H   UNL     1      -9.120  17.895  65.158  1.00  0.00     0.000 HD 
BRANCH   5   7
HETATM    7  C   UNL     1      -8.325  18.874  66.712  1.00  0.00    -0.281 C  
HETATM    8  H   UNL     1      -6.975  19.913  67.846  1.00  0.00     0.000 HD 
HETATM    9  O   UNL     1      -7.155  19.137  67.327  1.00  0.00    -0.210 OA 
BRANCH   7  10
HETATM   10  C   UNL     1      -9.343  19.951  66.951  1.00  0.00    -0.493 C  
HETATM   11  C   UNL     1     -10.665  19.615  66.287  1.00  0.00    -0.524 C  
ENDBRANCH   7  10
ENDBRANCH   5   7
ENDBRANCH   4   5
ENDBRANCH   1   4
BRANCH   3  12
HETATM   12  C   UNL     1     -10.865  14.462  68.108  1.00  0.00    -0.251 A  
HETATM   13  C   UNL     1     -11.374  14.597  69.416  1.00  0.00    -0.314 A  
HETATM   14  C   UNL     1     -11.998  13.530  70.089  1.00  0.00    -0.399 A  
HETATM   15  C   UNL     1     -12.137  12.292  69.468  1.00  0.00    -0.260 A  
HETATM   16  C   UNL     1     -11.006  13.201  67.529  1.00  0.00    -0.282 A  
HETATM   17  C   UNL     1     -10.592  12.742  66.184  1.00  0.00    -0.286 C  
HETATM   18  C   UNL     1     -11.629  12.154  68.195  1.00  0.00    -0.337 A  
HETATM   19  O   UNL     1     -11.719  10.996  67.472  1.00  0.00    -0.565 OA 
HETATM   20  C   UNL     1     -11.075  11.291  66.214  1.00  0.00    -0.166 C  
ENDBRANCH   3  12
TORSDOF 5
ENDMDL
MODEL      115
REMARK 921   NORMALIZED FREE ENERGY PREDICTED BY IDOCK:   -4.21 KCAL/MOL
REMARK 922        TOTAL FREE ENERGY PREDICTED BY IDOCK:   -6.11 KCAL/MOL
REMARK 923 INTER-LIGAND FREE ENERGY PREDICTED BY IDOCK:   -5.72 KCAL/MOL
REMARK 924 INTRA-LIGAND FREE ENERGY PREDICTED BY IDOCK:   -0.40 KCAL/MOL
REMARK 927      BINDING AFFINITY PREDICTED BY RF-SCORE:    0.00 PKD
ROOT
HETATM    1  C   UNL     1     -11.185  13.574  67.950  1.00  0.00    -0.302 C  
HETATM    2  C   UNL     1      -9.944  13.327  67.139  1.00  0.00    -0.238 C  
HETATM    3  C   UNL     1      -9.869  14.220  68.352  1.00  0.00    -0.233 C  
ENDROOT
BRANCH   1   4
HETATM    4  C   UNL     1     -11.777  12.525  68.841  1.00  0.00    -0.322 C  
BRANCH   4   5
HETATM    5  N   UNL     1     -11.614  12.907  70.236  1.00  0.00    -0.532 NA 
HETATM    6  H   UNL     1     -10.844  12.528  70.787  1.00  0.00     0.000 HD 
BRANCH   5   7
HETATM    7  C   UNL     1     -12.447  13.725  70.769  1.00  0.00    -0.370 C  
HETATM    8  H   UNL     1     -13.402  15.531  70.651  1.00  0.00     0.000 HD 
HETATM    9  O   UNL     1     -12.786  14.925  70.257  1.00  0.00    -0.328 OA 
BRANCH   7  10
HETATM   10  C   UNL     1     -13.149  13.449  72.068  1.00  0.00    -0.473 C  
HETATM   11  C   UNL     1     -13.140  14.670  72.968  1.00  0.00    -0.616 C  
ENDBRANCH   7  10
ENDBRANCH   5   7
ENDBRANCH   4   5
ENDBRANCH   1   4
BRANCH   3  12
HETATM   12  C   UNL     1      -9.662  15.711  68.234  1.00  0.00    -0.201 A  
HETATM   13  C   UNL     1     -10.746  16.583  68.000  1.00  0.00    -0.343 A  
HETATM   14  C   UNL     1     -10.595  17.982  68.006  1.00  0.00    -0.361 A  
HETATM   15  C   UNL     1      -9.351  18.554  68.253  1.00  0.00    -0.350 A  
HETATM   16  C   UNL     1      -8.429  16.323  68.458  1.00  0.00    -0.206 A  
HETATM   17  C   UNL     1      -7.117  15.700  68.742  1.00  0.00    -0.127 C  
HETATM   18  C   UNL     1      -8.288  17.705  68.471  1.00  0.00    -0.291 A  
HETATM   19  O   UNL     1      -7.020  18.142  68.743  1.00  0.00    -0.253 OA 
HETATM   20  C   UNL     1      -6.237  16.940  68.906  1.00  0.00    -0.173 C  
ENDBRANCH   3  12
TORSDOF 5
ENDMDL
MODEL      116
REMARK 921   NORMALIZED FREE ENERGY PREDICTED BY IDOCK:   -4.19 KCAL/MOL
REMARK 922        TOTAL FREE ENERGY PREDICTED BY IDOCK:   -6.10 KCAL/MOL
REMARK 923 INTER-LIGAND FREE ENERGY PREDICTED BY IDOCK:   -5.11 KCAL/MOL
REMARK 924 INTRA-LIGAND FREE ENERGY PREDICTED BY IDOCK:   -0.98 KCAL/MOL
REMARK 927      BINDING AFFINITY PREDICTED BY RF-SCORE:    0.00 PKD
ROOT
HETATM    1  C   UNL     1      -8.906   9.051  64.334  1.00  0.00    -0.107 C  
HETATM    2  C   UNL     1      -8.005  10.169  63.891  1.00  0.00    -0.153 C  
HETATM    3  C   UNL     1      -8.971  10.404  65.024  1.00  0.00    -0.221 C  
ENDROOT
BRANCH   1   4
HETATM    4  C   UNL     1      -8.394   7.872  65.103  1.00  0.00    -0.120 C  
BRANCH   4   5
HETATM    5  N   UNL     1      -9.510   7.076  65.595  1.00  0.00    -0.280 NA 
HETATM    6  H   UNL     1     -10.133   6.605  64.940  1.00  0.00     0.000 HD 
BRANCH   5   7
HETATM    7  C   UNL     1      -9.704   6.972  66.860  1.00  0.00    -0.175 C  
HETATM    8  H   UNL     1      -9.590   5.792  68.528  1.00  0.00     0.000 HD 
HETATM    9  O   UNL     1      -9.446   5.870  67.592  1.00  0.00    -0.111 OA 
BRANCH   7  10
HETATM   10  C   UNL     1     -10.271   8.084  67.695  1.00  0.00    -0.291 C  
HETATM   11  C   UNL     1      -9.267   8.565  68.725  1.00  0.00    -0.142 C  
ENDBRANCH   7  10
ENDBRANCH   5   7
ENDBRANCH   4   5
ENDBRANCH   1   4
BRANCH   3  12
HETATM   12  C   UNL     1     -10.177  11.302  64.872  1.00  0.00    -0.341 A  
HETATM   13  C   UNL     1     -10.857  11.410  63.642  1.00  0.00    -0.459 A  
HETATM   14  C   UNL     1     -12.049  12.144  63.509  1.00  0.00    -0.649 A  
HETATM   15  C   UNL     1     -12.603  12.792  64.609  1.00  0.00    -0.491 A  
HETATM   16  C   UNL     1     -10.753  11.981  65.946  1.00  0.00    -0.314 A  
HETATM   17  C   UNL     1     -10.298  12.058  67.353  1.00  0.00    -0.226 C  
HETATM   18  C   UNL     1     -11.934  12.698  65.810  1.00  0.00    -0.446 A  
HETATM   19  O   UNL     1     -12.384  13.273  66.967  1.00  0.00    -0.293 OA 
HETATM   20  C   UNL     1     -11.400  12.926  67.964  1.00  0.00    -0.292 C  
ENDBRANCH   3  12
TORSDOF 5
ENDMDL
MODEL      117
REMARK 921   NORMALIZED FREE ENERGY PREDICTED BY IDOCK:   -4.15 KCAL/MOL
REMARK 922        TOTAL FREE ENERGY PREDICTED BY IDOCK:   -6.04 KCAL/MOL
REMARK 923 INTER-LIGAND FREE ENERGY PREDICTED BY IDOCK:   -5.33 KCAL/MOL
REMARK 924 INTRA-LIGAND FREE ENERGY PREDICTED BY IDOCK:   -0.71 KCAL/MOL
REMARK 927      BINDING AFFINITY PREDICTED BY RF-SCORE:    0.00 PKD
ROOT
HETATM    1  C   UNL     1     -11.821  12.358  67.475  1.00  0.00    -0.354 C  
HETATM    2  C   UNL     1     -11.802  13.587  68.340  1.00  0.00    -0.408 C  
HETATM    3  C   UNL     1     -11.148  12.323  68.837  1.00  0.00    -0.291 C  
ENDROOT
BRANCH   1   4
HETATM    4  C   UNL     1     -10.973  12.236  66.246  1.00  0.00    -0.291 C  
BRANCH   4   5
HETATM    5  N   UNL     1      -9.888  11.295  66.482  1.00  0.00    -0.203 NA 
HETATM    6  H   UNL     1     -10.027  10.298  66.320  1.00  0.00     0.000 HD 
BRANCH   5   7
HETATM    7  C   UNL     1      -8.753  11.729  66.896  1.00  0.00    -0.189 C  
HETATM    8  H   UNL     1      -7.535  13.345  67.203  1.00  0.00     0.000 HD 
HETATM    9  O   UNL     1      -8.375  13.024  66.897  1.00  0.00    -0.136 OA 
BRANCH   7  10
HETATM   10  C   UNL     1      -7.675  10.827  67.424  1.00  0.00    -0.107 C  
HETATM   11  C   UNL     1      -7.298  11.197  68.847  1.00  0.00    -0.110 C  
ENDBRANCH   7  10
ENDBRANCH   5   7
ENDBRANCH   4   5
ENDBRANCH   1   4
BRANCH   3  12
HETATM   12  C   UNL     1     -11.729  11.517  69.975  1.00  0.00    -0.414 A  
HETATM   13  C   UNL     1     -12.629  12.094  70.894  1.00  0.00    -0.340 A  
HETATM   14  C   UNL     1     -13.274  11.334  71.887  1.00  0.00    -0.491 A  
HETATM   15  C   UNL     1     -13.040   9.966  71.988  1.00  0.00    -0.545 A  
HETATM   16  C   UNL     1     -11.506  10.148  70.122  1.00  0.00    -0.368 A  
HETATM   17  C   UNL     1     -10.639   9.253  69.323  1.00  0.00    -0.234 C  
HETATM   18  C   UNL     1     -12.151   9.401  71.100  1.00  0.00    -0.328 A  
HETATM   19  O   UNL     1     -11.850   8.067  71.084  1.00  0.00    -0.288 OA 
HETATM   20  C   UNL     1     -10.899   7.911  70.009  1.00  0.00    -0.238 C  
ENDBRANCH   3  12
TORSDOF 5
ENDMDL
MODEL      118
REMARK 921   NORMALIZED FREE ENERGY PREDICTED BY IDOCK:   -4.14 KCAL/MOL
REMARK 922        TOTAL FREE ENERGY PREDICTED BY IDOCK:   -6.03 KCAL/MOL
REMARK 923 INTER-LIGAND FREE ENERGY PREDICTED BY IDOCK:   -5.79 KCAL/MOL
REMARK 924 INTRA-LIGAND FREE ENERGY PREDICTED BY IDOCK:   -0.24 KCAL/MOL
REMARK 927      BINDING AFFINITY PREDICTED BY RF-SCORE:    0.00 PKD
ROOT
HETATM    1  C   UNL     1     -11.051  12.646  68.187  1.00  0.00    -0.285 C  
HETATM    2  C   UNL     1     -11.138  11.776  66.965  1.00  0.00    -0.358 C  
HETATM    3  C   UNL     1     -11.684  11.267  68.275  1.00  0.00    -0.344 C  
ENDROOT
BRANCH   1   4
HETATM    4  C   UNL     1     -11.921  13.853  68.371  1.00  0.00    -0.356 C  
BRANCH   4   5
HETATM    5  N   UNL     1     -11.655  14.465  69.664  1.00  0.00    -0.277 NA 
HETATM    6  H   UNL     1     -10.795  14.992  69.817  1.00  0.00     0.000 HD 
BRANCH   5   7
HETATM    7  C   UNL     1     -12.511  14.338  70.612  1.00  0.00    -0.358 C  
HETATM    8  H   UNL     1     -13.341  13.120  72.032  1.00  0.00     0.000 HD 
HETATM    9  O   UNL     1     -12.707  13.214  71.331  1.00  0.00    -0.357 OA 
BRANCH   7  10
HETATM   10  C   UNL     1     -13.435  15.444  71.034  1.00  0.00    -0.510 C  
HETATM   11  C   UNL     1     -13.958  15.217  72.440  1.00  0.00    -0.642 C  
ENDBRANCH   7  10
ENDBRANCH   5   7
ENDBRANCH   4   5
ENDBRANCH   1   4
BRANCH   3  12
HETATM   12  C   UNL     1     -11.015  10.147  69.037  1.00  0.00    -0.265 A  
HETATM   13  C   UNL     1     -10.926  10.172  70.444  1.00  0.00    -0.386 A  
HETATM   14  C   UNL     1     -10.416   9.087  71.180  1.00  0.00    -0.363 A  
HETATM   15  C   UNL     1      -9.982   7.937  70.528  1.00  0.00    -0.191 A  
HETATM   16  C   UNL     1     -10.551   8.985  68.420  1.00  0.00    -0.200 A  
HETATM   17  C   UNL     1     -10.516   8.644  66.980  1.00  0.00    -0.354 C  
HETATM   18  C   UNL     1     -10.055   7.914  69.153  1.00  0.00    -0.197 A  
HETATM   19  O   UNL     1      -9.678   6.837  68.398  1.00  0.00    -0.128 OA 
HETATM   20  C   UNL     1      -9.924   7.235  67.032  1.00  0.00    -0.224 C  
ENDBRANCH   3  12
TORSDOF 5
ENDMDL
MODEL      119
REMARK 921   NORMALIZED FREE ENERGY PREDICTED BY IDOCK:   -4.12 KCAL/MOL
REMARK 922        TOTAL FREE ENERGY PREDICTED BY IDOCK:   -5.99 KCAL/MOL
REMARK 923 INTER-LIGAND FREE ENERGY PREDICTED BY IDOCK:   -5.54 KCAL/MOL
REMARK 924 INTRA-LIGAND FREE ENERGY PREDICTED BY IDOCK:   -0.46 KCAL/MOL
REMARK 927      BINDING AFFINITY PREDICTED BY RF-SCORE:    0.00 PKD
ROOT
HETATM    1  C   UNL     1      -9.070  11.466  68.411  1.00  0.00    -0.179 C  
HETATM    2  C   UNL     1      -8.147  10.825  69.410  1.00  0.00    -0.053 C  
HETATM    3  C   UNL     1      -9.413  10.111  69.008  1.00  0.00    -0.195 C  
ENDROOT
BRANCH   1   4
HETATM    4  C   UNL     1      -8.733  11.549  66.953  1.00  0.00    -0.181 C  
BRANCH   4   5
HETATM    5  N   UNL     1      -9.183  12.822  66.410  1.00  0.00    -0.384 NA 
HETATM    6  H   UNL     1      -8.549  13.620  66.377  1.00  0.00     0.000 HD 
BRANCH   5   7
HETATM    7  C   UNL     1     -10.385  12.934  65.973  1.00  0.00    -0.283 C  
HETATM    8  H   UNL     1     -11.835  12.216  64.720  1.00  0.00     0.000 HD 
HETATM    9  O   UNL     1     -10.946  12.133  65.045  1.00  0.00    -0.292 OA 
BRANCH   7  10
HETATM   10  C   UNL     1     -11.328  14.006  66.437  1.00  0.00    -0.338 C  
HETATM   11  C   UNL     1     -12.631  13.966  65.659  1.00  0.00    -0.553 C  
ENDBRANCH   7  10
ENDBRANCH   5   7
ENDBRANCH   4   5
ENDBRANCH   1   4
BRANCH   3  12
HETATM   12  C   UNL     1     -10.574   9.949  69.961  1.00  0.00    -0.335 A  
HETATM   13  C   UNL     1     -11.834  10.516  69.681  1.00  0.00    -0.306 A  
HETATM   14  C   UNL     1     -12.958  10.277  70.491  1.00  0.00    -0.251 A  
HETATM   15  C   UNL     1     -12.857   9.456  71.610  1.00  0.00    -0.461 A  
HETATM   16  C   UNL     1     -10.509   9.148  71.101  1.00  0.00    -0.385 A  
HETATM   17  C   UNL     1      -9.353   8.409  71.657  1.00  0.00    -0.280 C  
HETATM   18  C   UNL     1     -11.624   8.909  71.894  1.00  0.00    -0.371 A  
HETATM   19  O   UNL     1     -11.399   8.072  72.952  1.00  0.00    -0.408 OA 
HETATM   20  C   UNL     1      -9.997   7.737  72.871  1.00  0.00    -0.279 C  
ENDBRANCH   3  12
TORSDOF 5
ENDMDL
MODEL      120
REMARK 921   NORMALIZED FREE ENERGY PREDICTED BY IDOCK:   -4.11 KCAL/MOL
REMARK 922        TOTAL FREE ENERGY PREDICTED BY IDOCK:   -5.99 KCAL/MOL
REMARK 923 INTER-LIGAND FREE ENERGY PREDICTED BY IDOCK:   -5.34 KCAL/MOL
REMARK 924 INTRA-LIGAND FREE ENERGY PREDICTED BY IDOCK:   -0.66 KCAL/MOL
REMARK 927      BINDING AFFINITY PREDICTED BY RF-SCORE:    0.00 PKD
ROOT
HETATM    1  C   UNL     1     -10.264  10.175  68.842  1.00  0.00    -0.213 C  
HETATM    2  C   UNL     1     -11.395  10.143  69.832  1.00  0.00    -0.335 C  
HETATM    3  C   UNL     1     -11.603  10.804  68.493  1.00  0.00    -0.325 C  
ENDROOT
BRANCH   1   4
HETATM    4  C   UNL     1      -9.823   8.952  68.096  1.00  0.00    -0.167 C  
BRANCH   4   5
HETATM    5  N   UNL     1      -8.669   9.265  67.265  1.00  0.00    -0.127 NA 
HETATM    6  H   UNL     1      -7.819   9.638  67.686  1.00  0.00     0.000 HD 
BRANCH   5   7
HETATM    7  C   UNL     1      -8.730   9.069  65.999  1.00  0.00    -0.160 C  
HETATM    8  H   UNL     1      -8.862   7.714  64.471  1.00  0.00     0.000 HD 
HETATM    9  O   UNL     1      -8.817   7.860  65.409  1.00  0.00    -0.103 OA 
BRANCH   7  10
HETATM   10  C   UNL     1      -8.693  10.184  64.994  1.00  0.00    -0.190 C  
HETATM   11  C   UNL     1      -8.809   9.653  63.578  1.00  0.00    -0.255 C  
ENDBRANCH   7  10
ENDBRANCH   5   7
ENDBRANCH   4   5
ENDBRANCH   1   4
BRANCH   3  12
HETATM   12  C   UNL     1     -11.751  12.300  68.355  1.00  0.00    -0.390 A  
HETATM   13  C   UNL     1     -11.717  13.145  69.484  1.00  0.00    -0.382 A  
HETATM   14  C   UNL     1     -11.733  14.547  69.369  1.00  0.00    -0.361 A  
HETATM   15  C   UNL     1     -11.777  15.150  68.116  1.00  0.00    -0.323 A  
HETATM   16  C   UNL     1     -11.815  12.943  67.118  1.00  0.00    -0.424 A  
HETATM   17  C   UNL     1     -11.852  12.352  65.761  1.00  0.00    -0.467 C  
HETATM   18  C   UNL     1     -11.823  14.328  67.011  1.00  0.00    -0.428 A  
HETATM   19  O   UNL     1     -11.851  14.796  65.726  1.00  0.00    -0.309 OA 
HETATM   20  C   UNL     1     -11.887  13.614  64.898  1.00  0.00    -0.375 C  
ENDBRANCH   3  12
TORSDOF 5
ENDMDL
MODEL      121
REMARK 921   NORMALIZED FREE ENERGY PREDICTED BY IDOCK:   -4.11 KCAL/MOL
REMARK 922        TOTAL FREE ENERGY PREDICTED BY IDOCK:   -5.98 KCAL/MOL
REMARK 923 INTER-LIGAND FREE ENERGY PREDICTED BY IDOCK:   -5.68 KCAL/MOL
REMARK 924 INTRA-LIGAND FREE ENERGY PREDICTED BY IDOCK:   -0.31 KCAL/MOL
REMARK 927      BINDING AFFINITY PREDICTED BY RF-SCORE:    0.00 PKD
ROOT
HETATM    1  C   UNL     1     -11.688  10.658  68.923  1.00  0.00    -0.282 C  
HETATM    2  C   UNL     1     -11.145   9.969  67.702  1.00  0.00    -0.222 C  
HETATM    3  C   UNL     1     -10.490  11.237  68.189  1.00  0.00    -0.215 C  
ENDROOT
BRANCH   1   4
HETATM    4  C   UNL     1     -11.493  10.106  70.303  1.00  0.00    -0.306 C  
BRANCH   4   5
HETATM    5  N   UNL     1     -11.412   8.654  70.251  1.00  0.00    -0.448 NA 
HETATM    6  H   UNL     1     -10.972   8.191  69.455  1.00  0.00     0.000 HD 
BRANCH   5   7
HETATM    7  C   UNL     1     -11.899   7.958  71.214  1.00  0.00    -0.296 C  
HETATM    8  H   UNL     1     -13.140   6.434  71.781  1.00  0.00     0.000 HD 
HETATM    9  O   UNL     1     -12.779   6.948  71.068  1.00  0.00    -0.356 OA 
BRANCH   7  10
HETATM   10  C   UNL     1     -11.554   8.202  72.655  1.00  0.00    -0.441 C  
HETATM   11  C   UNL     1     -10.054   8.139  72.879  1.00  0.00    -0.349 C  
ENDBRANCH   7  10
ENDBRANCH   5   7
ENDBRANCH   4   5
ENDBRANCH   1   4
BRANCH   3  12
HETATM   12  C   UNL     1     -10.595  12.534  67.423  1.00  0.00    -0.242 A  
HETATM   13  C   UNL     1     -10.383  12.580  66.030  1.00  0.00    -0.277 A  
HETATM   14  C   UNL     1     -10.593  13.751  65.279  1.00  0.00    -0.363 A  
HETATM   15  C   UNL     1     -11.027  14.917  65.902  1.00  0.00    -0.338 A  
HETATM   16  C   UNL     1     -11.011  13.728  68.012  1.00  0.00    -0.268 A  
HETATM   17  C   UNL     1     -11.326  14.007  69.432  1.00  0.00    -0.317 C  
HETATM   18  C   UNL     1     -11.224  14.879  67.265  1.00  0.00    -0.345 A  
HETATM   19  O   UNL     1     -11.667  15.952  67.990  1.00  0.00    -0.245 OA 
HETATM   20  C   UNL     1     -11.736  15.478  69.352  1.00  0.00    -0.367 C  
ENDBRANCH   3  12
TORSDOF 5
ENDMDL
MODEL      122
REMARK 921   NORMALIZED FREE ENERGY PREDICTED BY IDOCK:   -4.09 KCAL/MOL
REMARK 922        TOTAL FREE ENERGY PREDICTED BY IDOCK:   -5.97 KCAL/MOL
REMARK 923 INTER-LIGAND FREE ENERGY PREDICTED BY IDOCK:   -5.42 KCAL/MOL
REMARK 924 INTRA-LIGAND FREE ENERGY PREDICTED BY IDOCK:   -0.54 KCAL/MOL
REMARK 927      BINDING AFFINITY PREDICTED BY RF-SCORE:    0.00 PKD
ROOT
HETATM    1  C   UNL     1      -9.383  16.392  66.953  1.00  0.00    -0.244 C  
HETATM    2  C   UNL     1      -9.323  15.429  68.106  1.00  0.00    -0.197 C  
HETATM    3  C   UNL     1      -9.222  14.903  66.697  1.00  0.00    -0.302 C  
ENDROOT
BRANCH   1   4
HETATM    4  C   UNL     1      -8.245  17.309  66.621  1.00  0.00    -0.261 C  
BRANCH   4   5
HETATM    5  N   UNL     1      -8.703  18.691  66.625  1.00  0.00    -0.294 NA 
HETATM    6  H   UNL     1      -9.429  18.994  65.976  1.00  0.00     0.000 HD 
BRANCH   5   7
HETATM    7  C   UNL     1      -8.186  19.526  67.451  1.00  0.00    -0.286 C  
HETATM    8  H   UNL     1      -7.461  21.414  67.764  1.00  0.00     0.000 HD 
HETATM    9  O   UNL     1      -7.844  20.796  67.153  1.00  0.00    -0.320 OA 
BRANCH   7  10
HETATM   10  C   UNL     1      -7.874  19.179  68.878  1.00  0.00    -0.351 C  
HETATM   11  C   UNL     1      -6.404  19.392  69.187  1.00  0.00    -0.321 C  
ENDBRANCH   7  10
ENDBRANCH   5   7
ENDBRANCH   4   5
ENDBRANCH   1   4
BRANCH   3  12
HETATM   12  C   UNL     1     -10.331  14.094  66.065  1.00  0.00    -0.316 A  
HETATM   13  C   UNL     1     -11.522  14.707  65.625  1.00  0.00    -0.340 A  
HETATM   14  C   UNL     1     -12.516  13.996  64.927  1.00  0.00    -0.419 A  
HETATM   15  C   UNL     1     -12.344  12.645  64.642  1.00  0.00    -0.546 A  
HETATM   16  C   UNL     1     -10.206  12.735  65.777  1.00  0.00    -0.302 A  
HETATM   17  C   UNL     1      -9.089  11.815  66.088  1.00  0.00    -0.189 C  
HETATM   18  C   UNL     1     -11.186  12.040  65.081  1.00  0.00    -0.315 A  
HETATM   19  O   UNL     1     -10.892  10.725  64.849  1.00  0.00    -0.191 OA 
HETATM   20  C   UNL     1      -9.603  10.516  65.466  1.00  0.00    -0.230 C  
ENDBRANCH   3  12
TORSDOF 5
ENDMDL
MODEL      123
REMARK 921   NORMALIZED FREE ENERGY PREDICTED BY IDOCK:   -4.06 KCAL/MOL
REMARK 922        TOTAL FREE ENERGY PREDICTED BY IDOCK:   -5.93 KCAL/MOL
REMARK 923 INTER-LIGAND FREE ENERGY PREDICTED BY IDOCK:   -5.35 KCAL/MOL
REMARK 924 INTRA-LIGAND FREE ENERGY PREDICTED BY IDOCK:   -0.57 KCAL/MOL
REMARK 927      BINDING AFFINITY PREDICTED BY RF-SCORE:    0.00 PKD
ROOT
HETATM    1  C   UNL     1      -9.017  10.418  66.489  1.00  0.00    -0.161 C  
HETATM    2  C   UNL     1     -10.091   9.989  65.529  1.00  0.00    -0.325 C  
HETATM    3  C   UNL     1     -10.400  10.051  67.003  1.00  0.00    -0.305 C  
ENDROOT
BRANCH   1   4
HETATM    4  C   UNL     1      -8.562  11.842  66.592  1.00  0.00    -0.163 C  
BRANCH   4   5
HETATM    5  N   UNL     1      -9.591  12.732  66.074  1.00  0.00    -0.389 NA 
HETATM    6  H   UNL     1      -9.933  12.622  65.119  1.00  0.00     0.000 HD 
BRANCH   5   7
HETATM    7  C   UNL     1     -10.067  13.656  66.828  1.00  0.00    -0.269 C  
HETATM    8  H   UNL     1     -10.007  14.597  68.644  1.00  0.00     0.000 HD 
HETATM    9  O   UNL     1      -9.655  13.913  68.086  1.00  0.00    -0.206 OA 
BRANCH   7  10
HETATM   10  C   UNL     1     -11.177  14.571  66.399  1.00  0.00    -0.341 C  
HETATM   11  C   UNL     1     -11.137  14.820  64.903  1.00  0.00    -0.416 C  
ENDBRANCH   7  10
ENDBRANCH   5   7
ENDBRANCH   4   5
ENDBRANCH   1   4
BRANCH   3  12
HETATM   12  C   UNL     1     -10.622   8.804  67.826  1.00  0.00    -0.256 A  
HETATM   13  C   UNL     1     -10.584   7.524  67.236  1.00  0.00    -0.394 A  
HETATM   14  C   UNL     1     -10.669   6.346  68.001  1.00  0.00    -0.362 A  
HETATM   15  C   UNL     1     -10.789   6.413  69.385  1.00  0.00    -0.381 A  
HETATM   16  C   UNL     1     -10.764   8.829  69.213  1.00  0.00    -0.166 A  
HETATM   17  C   UNL     1     -10.825   9.995  70.123  1.00  0.00    -0.365 C  
HETATM   18  C   UNL     1     -10.839   7.663  69.964  1.00  0.00    -0.243 A  
HETATM   19  O   UNL     1     -10.938   7.863  71.313  1.00  0.00    -0.233 OA 
HETATM   20  C   UNL     1     -10.951   9.297  71.478  1.00  0.00    -0.375 C  
ENDBRANCH   3  12
TORSDOF 5
ENDMDL
MODEL      124
REMARK 921   NORMALIZED FREE ENERGY PREDICTED BY IDOCK:   -4.03 KCAL/MOL
REMARK 922        TOTAL FREE ENERGY PREDICTED BY IDOCK:   -5.88 KCAL/MOL
REMARK 923 INTER-LIGAND FREE ENERGY PREDICTED BY IDOCK:   -5.41 KCAL/MOL
REMARK 924 INTRA-LIGAND FREE ENERGY PREDICTED BY IDOCK:   -0.47 KCAL/MOL
REMARK 927      BINDING AFFINITY PREDICTED BY RF-SCORE:    0.00 PKD
ROOT
HETATM    1  C   UNL     1     -10.329  10.058  67.602  1.00  0.00    -0.272 C  
HETATM    2  C   UNL     1     -10.772  10.325  69.013  1.00  0.00    -0.257 C  
HETATM    3  C   UNL     1     -11.454  11.042  67.876  1.00  0.00    -0.358 C  
ENDROOT
BRANCH   1   4
HETATM    4  C   UNL     1     -10.646   8.775  66.895  1.00  0.00    -0.193 C  
BRANCH   4   5
HETATM    5  N   UNL     1     -10.989   7.745  67.865  1.00  0.00    -0.484 NA 
HETATM    6  H   UNL     1     -11.566   7.972  68.674  1.00  0.00     0.000 HD 
BRANCH   5   7
HETATM    7  C   UNL     1     -10.559   6.548  67.693  1.00  0.00    -0.269 C  
HETATM    8  H   UNL     1     -10.698   4.804  66.632  1.00  0.00     0.000 HD 
HETATM    9  O   UNL     1     -11.016   5.690  66.759  1.00  0.00    -0.259 OA 
BRANCH   7  10
HETATM   10  C   UNL     1      -9.485   5.934  68.545  1.00  0.00    -0.134 C  
HETATM   11  C   UNL     1      -8.917   6.944  69.525  1.00  0.00    -0.143 C  
ENDBRANCH   7  10
ENDBRANCH   5   7
ENDBRANCH   4   5
ENDBRANCH   1   4
BRANCH   3  12
HETATM   12  C   UNL     1     -11.272  12.523  67.642  1.00  0.00    -0.332 A  
HETATM   13  C   UNL     1     -10.825  13.017  66.400  1.00  0.00    -0.294 A  
HETATM   14  C   UNL     1     -10.763  14.395  66.121  1.00  0.00    -0.304 A  
HETATM   15  C   UNL     1     -11.153  15.324  67.080  1.00  0.00    -0.323 A  
HETATM   16  C   UNL     1     -11.635  13.487  68.583  1.00  0.00    -0.365 A  
HETATM   17  C   UNL     1     -12.147  13.300  69.959  1.00  0.00    -0.385 C  
HETATM   18  C   UNL     1     -11.578  14.845  68.300  1.00  0.00    -0.334 A  
HETATM   19  O   UNL     1     -12.004  15.654  69.318  1.00  0.00    -0.365 OA 
HETATM   20  C   UNL     1     -12.357  14.753  70.389  1.00  0.00    -0.344 C  
ENDBRANCH   3  12
TORSDOF 5
ENDMDL
MODEL      125
REMARK 921   NORMALIZED FREE ENERGY PREDICTED BY IDOCK:   -4.02 KCAL/MOL
REMARK 922        TOTAL FREE ENERGY PREDICTED BY IDOCK:   -5.87 KCAL/MOL
REMARK 923 INTER-LIGAND FREE ENERGY PREDICTED BY IDOCK:   -5.27 KCAL/MOL
REMARK 924 INTRA-LIGAND FREE ENERGY PREDICTED BY IDOCK:   -0.60 KCAL/MOL
REMARK 927      BINDING AFFINITY PREDICTED BY RF-SCORE:    0.00 PKD
ROOT
HETATM    1  C   UNL     1      -9.620  10.564  67.483  1.00  0.00    -0.181 C  
HETATM    2  C   UNL     1      -8.673  11.007  68.563  1.00  0.00    -0.159 C  
HETATM    3  C   UNL     1      -9.882  11.851  68.248  1.00  0.00    -0.199 C  
ENDROOT
BRANCH   1   4
HETATM    4  C   UNL     1     -10.557   9.409  67.668  1.00  0.00    -0.271 C  
BRANCH   4   5
HETATM    5  N   UNL     1     -11.350   9.601  68.874  1.00  0.00    -0.464 NA 
HETATM    6  H   UNL     1     -11.972  10.405  68.958  1.00  0.00     0.000 HD 
BRANCH   5   7
HETATM    7  C   UNL     1     -11.262   8.750  69.831  1.00  0.00    -0.051 C  
HETATM    8  H   UNL     1     -10.691   6.876  70.421  1.00  0.00     0.000 HD 
HETATM    9  O   UNL     1     -10.756   7.506  69.713  1.00  0.00    -0.241 OA 
BRANCH   7  10
HETATM   10  C   UNL     1     -11.740   9.035  71.225  1.00  0.00    -0.382 C  
HETATM   11  C   UNL     1     -13.171   9.539  71.223  1.00  0.00    -0.400 C  
ENDBRANCH   7  10
ENDBRANCH   5   7
ENDBRANCH   4   5
ENDBRANCH   1   4
BRANCH   3  12
HETATM   12  C   UNL     1      -9.763  13.198  67.575  1.00  0.00    -0.213 A  
HETATM   13  C   UNL     1      -8.619  14.003  67.751  1.00  0.00    -0.183 A  
HETATM   14  C   UNL     1      -8.434  15.204  67.042  1.00  0.00    -0.259 A  
HETATM   15  C   UNL     1      -9.390  15.635  66.127  1.00  0.00    -0.382 A  
HETATM   16  C   UNL     1     -10.706  13.674  66.665  1.00  0.00    -0.280 A  
HETATM   17  C   UNL     1     -11.992  13.069  66.252  1.00  0.00    -0.477 C  
HETATM   18  C   UNL     1     -10.515  14.857  65.962  1.00  0.00    -0.316 A  
HETATM   19  O   UNL     1     -11.516  15.162  65.082  1.00  0.00    -0.352 OA 
HETATM   20  C   UNL     1     -12.477  14.094  65.226  1.00  0.00    -0.461 C  
ENDBRANCH   3  12
TORSDOF 5
ENDMDL
MODEL      126
REMARK 921   NORMALIZED FREE ENERGY PREDICTED BY IDOCK:   -4.02 KCAL/MOL
REMARK 922        TOTAL FREE ENERGY PREDICTED BY IDOCK:   -5.87 KCAL/MOL
REMARK 923 INTER-LIGAND FREE ENERGY PREDICTED BY IDOCK:   -5.20 KCAL/MOL
REMARK 924 INTRA-LIGAND FREE ENERGY PREDICTED BY IDOCK:   -0.67 KCAL/MOL
REMARK 927      BINDING AFFINITY PREDICTED BY RF-SCORE:    0.00 PKD
ROOT
HETATM    1  C   UNL     1     -10.266  11.017  68.941  1.00  0.00    -0.218 C  
HETATM    2  C   UNL     1     -11.731  11.174  69.238  1.00  0.00    -0.401 C  
HETATM    3  C   UNL     1     -11.287  10.929  67.818  1.00  0.00    -0.366 C  
ENDROOT
BRANCH   1   4
HETATM    4  C   UNL     1      -9.503   9.785  69.322  1.00  0.00    -0.194 C  
BRANCH   4   5
HETATM    5  N   UNL     1      -8.622   9.389  68.233  1.00  0.00    -0.120 NA 
HETATM    6  H   UNL     1      -8.341  10.068  67.527  1.00  0.00     0.000 HD 
BRANCH   5   7
HETATM    7  C   UNL     1      -8.201   8.178  68.169  1.00  0.00    -0.129 C  
HETATM    8  H   UNL     1      -7.890   6.409  69.149  1.00  0.00     0.000 HD 
HETATM    9  O   UNL     1      -8.202   7.305  69.196  1.00  0.00    -0.119 OA 
BRANCH   7  10
HETATM   10  C   UNL     1      -7.625   7.577  66.919  1.00  0.00    -0.102 C  
HETATM   11  C   UNL     1      -7.112   8.652  65.979  1.00  0.00    -0.083 C  
ENDBRANCH   7  10
ENDBRANCH   5   7
ENDBRANCH   4   5
ENDBRANCH   1   4
BRANCH   3  12
HETATM   12  C   UNL     1     -11.376  12.001  66.757  1.00  0.00    -0.398 A  
HETATM   13  C   UNL     1     -11.902  13.276  67.050  1.00  0.00    -0.442 A  
HETATM   14  C   UNL     1     -11.884  14.325  66.112  1.00  0.00    -0.413 A  
HETATM   15  C   UNL     1     -11.332  14.131  64.850  1.00  0.00    -0.365 A  
HETATM   16  C   UNL     1     -10.849  11.841  65.476  1.00  0.00    -0.348 A  
HETATM   17  C   UNL     1     -10.221  10.646  64.868  1.00  0.00    -0.395 C  
HETATM   18  C   UNL     1     -10.827  12.882  64.557  1.00  0.00    -0.363 A  
HETATM   19  O   UNL     1     -10.243  12.570  63.360  1.00  0.00    -0.385 OA 
HETATM   20  C   UNL     1      -9.858  11.184  63.483  1.00  0.00    -0.353 C  
ENDBRANCH   3  12
TORSDOF 5
ENDMDL
MODEL      127
REMARK 921   NORMALIZED FREE ENERGY PREDICTED BY IDOCK:   -4.01 KCAL/MOL
REMARK 922        TOTAL FREE ENERGY PREDICTED BY IDOCK:   -5.86 KCAL/MOL
REMARK 923 INTER-LIGAND FREE ENERGY PREDICTED BY IDOCK:   -5.12 KCAL/MOL
REMARK 924 INTRA-LIGAND FREE ENERGY PREDICTED BY IDOCK:   -0.74 KCAL/MOL
REMARK 927      BINDING AFFINITY PREDICTED BY RF-SCORE:    0.00 PKD
ROOT
HETATM    1  C   UNL     1     -10.390  10.872  67.285  1.00  0.00    -0.255 C  
HETATM    2  C   UNL     1      -9.077  10.693  67.994  1.00  0.00    -0.147 C  
HETATM    3  C   UNL     1      -9.332   9.945  66.710  1.00  0.00    -0.187 C  
ENDROOT
BRANCH   1   4
HETATM    4  C   UNL     1     -10.730  12.129  66.543  1.00  0.00    -0.255 C  
BRANCH   4   5
HETATM    5  N   UNL     1     -11.910  11.915  65.717  1.00  0.00    -0.421 NA 
HETATM    6  H   UNL     1     -12.720  11.425  66.095  1.00  0.00     0.000 HD 
BRANCH   5   7
HETATM    7  C   UNL     1     -11.922  12.347  64.509  1.00  0.00    -0.402 C  
HETATM    8  H   UNL     1     -13.037  13.052  62.943  1.00  0.00     0.000 HD 
HETATM    9  O   UNL     1     -13.027  12.732  63.838  1.00  0.00    -0.679 OA 
BRANCH   7  10
HETATM   10  C   UNL     1     -10.684  12.463  63.668  1.00  0.00    -0.497 C  
HETATM   11  C   UNL     1     -10.142  11.096  63.297  1.00  0.00    -0.426 C  
ENDBRANCH   7  10
ENDBRANCH   5   7
ENDBRANCH   4   5
ENDBRANCH   1   4
BRANCH   3  12
HETATM   12  C   UNL     1      -9.535   8.448  66.685  1.00  0.00    -0.267 A  
HETATM   13  C   UNL     1     -10.649   7.851  67.310  1.00  0.00    -0.365 A  
HETATM   14  C   UNL     1     -10.922   6.476  67.197  1.00  0.00    -0.480 A  
HETATM   15  C   UNL     1     -10.087   5.652  66.448  1.00  0.00    -0.199 A  
HETATM   16  C   UNL     1      -8.712   7.586  65.960  1.00  0.00    -0.178 A  
HETATM   17  C   UNL     1      -7.487   7.895  65.189  1.00  0.00    -0.082 C  
HETATM   18  C   UNL     1      -8.991   6.230  65.846  1.00  0.00    -0.109 A  
HETATM   19  O   UNL     1      -8.106   5.533  65.069  1.00  0.00    -0.106 OA 
HETATM   20  C   UNL     1      -7.134   6.512  64.642  1.00  0.00    -0.060 C  
ENDBRANCH   3  12
TORSDOF 5
ENDMDL
MODEL      128
REMARK 921   NORMALIZED FREE ENERGY PREDICTED BY IDOCK:   -4.01 KCAL/MOL
REMARK 922        TOTAL FREE ENERGY PREDICTED BY IDOCK:   -5.85 KCAL/MOL
REMARK 923 INTER-LIGAND FREE ENERGY PREDICTED BY IDOCK:   -4.80 KCAL/MOL
REMARK 924 INTRA-LIGAND FREE ENERGY PREDICTED BY IDOCK:   -1.05 KCAL/MOL
REMARK 927      BINDING AFFINITY PREDICTED BY RF-SCORE:    0.00 PKD
ROOT
HETATM    1  C   UNL     1     -10.023   7.689  70.282  1.00  0.00    -0.189 C  
HETATM    2  C   UNL     1     -10.385   8.515  71.485  1.00  0.00    -0.321 C  
HETATM    3  C   UNL     1     -10.642   9.065  70.105  1.00  0.00    -0.250 C  
ENDROOT
BRANCH   1   4
HETATM    4  C   UNL     1     -10.815   6.483  69.876  1.00  0.00    -0.286 C  
BRANCH   4   5
HETATM    5  N   UNL     1     -11.368   6.676  68.544  1.00  0.00    -0.576 NA 
HETATM    6  H   UNL     1     -12.294   7.087  68.426  1.00  0.00     0.000 HD 
BRANCH   5   7
HETATM    7  C   UNL     1     -10.682   6.327  67.517  1.00  0.00    -0.319 C  
HETATM    8  H   UNL     1     -10.367   4.939  66.047  1.00  0.00     0.000 HD 
HETATM    9  O   UNL     1     -10.875   5.198  66.807  1.00  0.00    -0.196 OA 
BRANCH   7  10
HETATM   10  C   UNL     1      -9.540   7.142  66.980  1.00  0.00    -0.204 C  
HETATM   11  C   UNL     1     -10.022   8.481  66.453  1.00  0.00    -0.314 C  
ENDBRANCH   7  10
ENDBRANCH   5   7
ENDBRANCH   4   5
ENDBRANCH   1   4
BRANCH   3  12
HETATM   12  C   UNL     1      -9.841  10.216  69.542  1.00  0.00    -0.255 A  
HETATM   13  C   UNL     1      -8.431  10.200  69.556  1.00  0.00    -0.179 A  
HETATM   14  C   UNL     1      -7.666  11.202  68.931  1.00  0.00    -0.137 A  
HETATM   15  C   UNL     1      -8.291  12.252  68.266  1.00  0.00    -0.174 A  
HETATM   16  C   UNL     1     -10.429  11.295  68.883  1.00  0.00    -0.232 A  
HETATM   17  C   UNL     1     -11.865  11.596  68.683  1.00  0.00    -0.370 C  
HETATM   18  C   UNL     1      -9.669  12.277  68.261  1.00  0.00    -0.219 A  
HETATM   19  O   UNL     1     -10.400  13.245  67.628  1.00  0.00    -0.225 OA 
HETATM   20  C   UNL     1     -11.778  12.887  67.867  1.00  0.00    -0.357 C  
ENDBRANCH   3  12
TORSDOF 5
ENDMDL
MODEL      129
REMARK 921   NORMALIZED FREE ENERGY PREDICTED BY IDOCK:   -3.99 KCAL/MOL
REMARK 922        TOTAL FREE ENERGY PREDICTED BY IDOCK:   -5.83 KCAL/MOL
REMARK 923 INTER-LIGAND FREE ENERGY PREDICTED BY IDOCK:   -5.44 KCAL/MOL
REMARK 924 INTRA-LIGAND FREE ENERGY PREDICTED BY IDOCK:   -0.39 KCAL/MOL
REMARK 927      BINDING AFFINITY PREDICTED BY RF-SCORE:    0.00 PKD
ROOT
HETATM    1  C   UNL     1     -10.662   8.673  71.549  1.00  0.00    -0.352 C  
HETATM    2  C   UNL     1      -9.634   8.226  70.548  1.00  0.00    -0.180 C  
HETATM    3  C   UNL     1     -10.800   7.324  70.863  1.00  0.00    -0.262 C  
ENDROOT
BRANCH   1   4
HETATM    4  C   UNL     1     -11.662   9.747  71.240  1.00  0.00    -0.394 C  
BRANCH   4   5
HETATM    5  N   UNL     1     -11.077  10.724  70.334  1.00  0.00    -0.462 NA 
HETATM    6  H   UNL     1     -10.078  10.706  70.132  1.00  0.00     0.000 HD 
BRANCH   5   7
HETATM    7  C   UNL     1     -11.829  11.610  69.789  1.00  0.00    -0.357 C  
HETATM    8  H   UNL     1     -12.816  12.234  68.109  1.00  0.00     0.000 HD 
HETATM    9  O   UNL     1     -12.260  11.578  68.512  1.00  0.00    -0.524 OA 
BRANCH   7  10
HETATM   10  C   UNL     1     -12.318  12.829  70.518  1.00  0.00    -0.355 C  
HETATM   11  C   UNL     1     -11.916  14.100  69.794  1.00  0.00    -0.396 C  
ENDBRANCH   7  10
ENDBRANCH   5   7
ENDBRANCH   4   5
ENDBRANCH   1   4
BRANCH   3  12
HETATM   12  C   UNL     1     -10.628   6.035  71.632  1.00  0.00    -0.286 A  
HETATM   13  C   UNL     1     -11.064   5.917  72.968  1.00  0.00    -0.289 A  
HETATM   14  C   UNL     1     -11.023   4.695  73.662  1.00  0.00    -0.392 A  
HETATM   15  C   UNL     1     -10.547   3.546  73.037  1.00  0.00    -0.251 A  
HETATM   16  C   UNL     1     -10.140   4.866  71.048  1.00  0.00    -0.288 A  
HETATM   17  C   UNL     1      -9.623   4.655  69.677  1.00  0.00    -0.262 C  
HETATM   18  C   UNL     1     -10.109   3.660  71.736  1.00  0.00    -0.090 A  
HETATM   19  O   UNL     1      -9.636   2.604  71.007  1.00  0.00    -0.148 OA 
HETATM   20  C   UNL     1      -9.300   3.160  69.718  1.00  0.00    -0.153 C  
ENDBRANCH   3  12
TORSDOF 5
ENDMDL
MODEL      130
REMARK 921   NORMALIZED FREE ENERGY PREDICTED BY IDOCK:   -3.99 KCAL/MOL
REMARK 922        TOTAL FREE ENERGY PREDICTED BY IDOCK:   -5.83 KCAL/MOL
REMARK 923 INTER-LIGAND FREE ENERGY PREDICTED BY IDOCK:   -4.96 KCAL/MOL
REMARK 924 INTRA-LIGAND FREE ENERGY PREDICTED BY IDOCK:   -0.86 KCAL/MOL
REMARK 927      BINDING AFFINITY PREDICTED BY RF-SCORE:    0.00 PKD
ROOT
HETATM    1  C   UNL     1     -10.730  12.940  65.340  1.00  0.00    -0.307 C  
HETATM    2  C   UNL     1     -12.116  12.426  65.610  1.00  0.00    -0.396 C  
HETATM    3  C   UNL     1     -11.209  12.750  66.770  1.00  0.00    -0.338 C  
ENDROOT
BRANCH   1   4
HETATM    4  C   UNL     1     -10.479  14.331  64.840  1.00  0.00    -0.430 C  
BRANCH   4   5
HETATM    5  N   UNL     1     -11.091  15.300  65.738  1.00  0.00    -0.328 NA 
HETATM    6  H   UNL     1     -12.082  15.231  65.970  1.00  0.00     0.000 HD 
BRANCH   5   7
HETATM    7  C   UNL     1     -10.374  16.241  66.237  1.00  0.00    -0.326 C  
HETATM    8  H   UNL     1      -9.064  17.774  65.892  1.00  0.00     0.000 HD 
HETATM    9  O   UNL     1      -9.595  17.078  65.523  1.00  0.00    -0.522 OA 
BRANCH   7  10
HETATM   10  C   UNL     1     -10.300  16.519  67.710  1.00  0.00    -0.291 C  
HETATM   11  C   UNL     1     -11.362  15.746  68.470  1.00  0.00    -0.374 C  
ENDBRANCH   7  10
ENDBRANCH   5   7
ENDBRANCH   4   5
ENDBRANCH   1   4
BRANCH   3  12
HETATM   12  C   UNL     1     -10.625  11.672  67.653  1.00  0.00    -0.237 A  
HETATM   13  C   UNL     1     -11.338  10.487  67.927  1.00  0.00    -0.297 A  
HETATM   14  C   UNL     1     -10.767   9.421  68.646  1.00  0.00    -0.196 A  
HETATM   15  C   UNL     1      -9.458   9.507  69.110  1.00  0.00    -0.163 A  
HETATM   16  C   UNL     1      -9.323  11.727  68.152  1.00  0.00    -0.190 A  
HETATM   17  C   UNL     1      -8.322  12.811  68.029  1.00  0.00    -0.173 C  
HETATM   18  C   UNL     1      -8.763  10.668  68.854  1.00  0.00    -0.161 A  
HETATM   19  O   UNL     1      -7.466  10.868  69.241  1.00  0.00    -0.123 OA 
HETATM   20  C   UNL     1      -7.136  12.193  68.771  1.00  0.00    -0.110 C  
ENDBRANCH   3  12
TORSDOF 5
ENDMDL
MODEL      131
REMARK 921   NORMALIZED FREE ENERGY PREDICTED BY IDOCK:   -3.96 KCAL/MOL
REMARK 922        TOTAL FREE ENERGY PREDICTED BY IDOCK:   -5.79 KCAL/MOL
REMARK 923 INTER-LIGAND FREE ENERGY PREDICTED BY IDOCK:   -5.27 KCAL/MOL
REMARK 924 INTRA-LIGAND FREE ENERGY PREDICTED BY IDOCK:   -0.52 KCAL/MOL
REMARK 927      BINDING AFFINITY PREDICTED BY RF-SCORE:    0.00 PKD
ROOT
HETATM    1  C   UNL     1     -10.021   8.612  70.080  1.00  0.00    -0.191 C  
HETATM    2  C   UNL     1     -10.327   8.132  68.689  1.00  0.00    -0.224 C  
HETATM    3  C   UNL     1     -10.949   7.427  69.867  1.00  0.00    -0.239 C  
ENDROOT
BRANCH   1   4
HETATM    4  C   UNL     1     -10.589   9.886  70.627  1.00  0.00    -0.271 C  
BRANCH   4   5
HETATM    5  N   UNL     1     -10.391  10.969  69.674  1.00  0.00    -0.446 NA 
HETATM    6  H   UNL     1      -9.456  11.180  69.323  1.00  0.00     0.000 HD 
BRANCH   5   7
HETATM    7  C   UNL     1     -11.400  11.655  69.278  1.00  0.00    -0.290 C  
HETATM    8  H   UNL     1     -13.023  11.772  68.037  1.00  0.00     0.000 HD 
HETATM    9  O   UNL     1     -12.276  11.263  68.331  1.00  0.00    -0.604 OA 
BRANCH   7  10
HETATM   10  C   UNL     1     -11.725  13.018  69.818  1.00  0.00    -0.346 C  
HETATM   11  C   UNL     1     -12.556  12.923  71.084  1.00  0.00    -0.373 C  
ENDBRANCH   7  10
ENDBRANCH   5   7
ENDBRANCH   4   5
ENDBRANCH   1   4
BRANCH   3  12
HETATM   12  C   UNL     1     -10.539   6.031  70.270  1.00  0.00    -0.338 A  
HETATM   13  C   UNL     1      -9.989   5.132  69.333  1.00  0.00    -0.292 A  
HETATM   14  C   UNL     1      -9.490   3.872  69.709  1.00  0.00    -0.264 A  
HETATM   15  C   UNL     1      -9.521   3.472  71.042  1.00  0.00    -0.226 A  
HETATM   16  C   UNL     1     -10.570   5.585  71.592  1.00  0.00    -0.294 A  
HETATM   17  C   UNL     1     -11.067   6.283  72.799  1.00  0.00    -0.284 C  
HETATM   18  C   UNL     1     -10.069   4.343  71.959  1.00  0.00    -0.186 A  
HETATM   19  O   UNL     1     -10.142   4.076  73.298  1.00  0.00    -0.128 OA 
HETATM   20  C   UNL     1     -10.770   5.239  73.877  1.00  0.00    -0.272 C  
ENDBRANCH   3  12
TORSDOF 5
ENDMDL
MODEL      132
REMARK 921   NORMALIZED FREE ENERGY PREDICTED BY IDOCK:   -3.96 KCAL/MOL
REMARK 922        TOTAL FREE ENERGY PREDICTED BY IDOCK:   -5.79 KCAL/MOL
REMARK 923 INTER-LIGAND FREE ENERGY PREDICTED BY IDOCK:   -4.82 KCAL/MOL
REMARK 924 INTRA-LIGAND FREE ENERGY PREDICTED BY IDOCK:   -0.97 KCAL/MOL
REMARK 927      BINDING AFFINITY PREDICTED BY RF-SCORE:    0.00 PKD
ROOT
HETATM    1  C   UNL     1     -10.054  19.445  67.426  1.00  0.00    -0.506 C  
HETATM    2  C   UNL     1     -10.153  19.451  68.926  1.00  0.00    -0.459 C  
HETATM    3  C   UNL     1      -9.283  18.424  68.247  1.00  0.00    -0.333 C  
ENDROOT
BRANCH   1   4
HETATM    4  C   UNL     1      -9.291  20.492  66.673  1.00  0.00    -0.191 C  
BRANCH   4   5
HETATM    5  N   UNL     1      -8.334  19.861  65.775  1.00  0.00    -0.497 NA 
HETATM    6  H   UNL     1      -8.660  19.310  64.981  1.00  0.00     0.000 HD 
BRANCH   5   7
HETATM    7  C   UNL     1      -7.077  20.004  65.989  1.00  0.00    -0.283 C  
HETATM    8  H   UNL     1      -5.446  21.238  65.913  1.00  0.00     0.000 HD 
HETATM    9  O   UNL     1      -6.377  21.132  65.755  1.00  0.00    -0.230 OA 
BRANCH   7  10
HETATM   10  C   UNL     1      -6.207  18.901  66.520  1.00  0.00    -0.198 C  
HETATM   11  C   UNL     1      -6.614  17.556  65.947  1.00  0.00    -0.170 C  
ENDBRANCH   7  10
ENDBRANCH   5   7
ENDBRANCH   4   5
ENDBRANCH   1   4
BRANCH   3  12
HETATM   12  C   UNL     1      -9.650  16.959  68.218  1.00  0.00    -0.258 A  
HETATM   13  C   UNL     1     -10.889  16.527  67.702  1.00  0.00    -0.269 A  
HETATM   14  C   UNL     1     -11.203  15.163  67.555  1.00  0.00    -0.331 A  
HETATM   15  C   UNL     1     -10.281  14.187  67.918  1.00  0.00    -0.235 A  
HETATM   16  C   UNL     1      -8.761  15.950  68.589  1.00  0.00    -0.199 A  
HETATM   17  C   UNL     1      -7.395  16.069  69.146  1.00  0.00    -0.209 C  
HETATM   18  C   UNL     1      -9.074  14.605  68.434  1.00  0.00    -0.192 A  
HETATM   19  O   UNL     1      -8.079  13.746  68.810  1.00  0.00    -0.118 OA 
HETATM   20  C   UNL     1      -7.009  14.595  69.280  1.00  0.00    -0.147 C  
ENDBRANCH   3  12
TORSDOF 5
ENDMDL
MODEL      133
REMARK 921   NORMALIZED FREE ENERGY PREDICTED BY IDOCK:   -3.93 KCAL/MOL
REMARK 922        TOTAL FREE ENERGY PREDICTED BY IDOCK:   -5.76 KCAL/MOL
REMARK 923 INTER-LIGAND FREE ENERGY PREDICTED BY IDOCK:   -5.30 KCAL/MOL
REMARK 924 INTRA-LIGAND FREE ENERGY PREDICTED BY IDOCK:   -0.46 KCAL/MOL
REMARK 927      BINDING AFFINITY PREDICTED BY RF-SCORE:    0.00 PKD
ROOT
HETATM    1  C   UNL     1      -9.388  14.801  65.857  1.00  0.00    -0.189 C  
HETATM    2  C   UNL     1     -10.681  14.725  65.095  1.00  0.00    -0.433 C  
HETATM    3  C   UNL     1     -10.581  14.069  66.449  1.00  0.00    -0.280 C  
ENDROOT
BRANCH   1   4
HETATM    4  C   UNL     1      -8.919  16.066  66.510  1.00  0.00    -0.292 C  
BRANCH   4   5
HETATM    5  N   UNL     1      -9.774  17.175  66.114  1.00  0.00    -0.426 NA 
HETATM    6  H   UNL     1     -10.281  17.144  65.229  1.00  0.00     0.000 HD 
BRANCH   5   7
HETATM    7  C   UNL     1      -9.887  18.194  66.886  1.00  0.00    -0.330 C  
HETATM    8  H   UNL     1     -11.138  19.450  67.909  1.00  0.00     0.000 HD 
HETATM    9  O   UNL     1     -11.054  18.696  67.337  1.00  0.00    -0.305 OA 
BRANCH   7  10
HETATM   10  C   UNL     1      -8.707  18.982  67.379  1.00  0.00    -0.301 C  
HETATM   11  C   UNL     1      -7.942  19.604  66.225  1.00  0.00    -0.339 C  
ENDBRANCH   7  10
ENDBRANCH   5   7
ENDBRANCH   4   5
ENDBRANCH   1   4
BRANCH   3  12
HETATM   12  C   UNL     1     -10.576  12.567  66.610  1.00  0.00    -0.259 A  
HETATM   13  C   UNL     1     -10.190  11.720  65.551  1.00  0.00    -0.291 A  
HETATM   14  C   UNL     1     -10.063  10.329  65.715  1.00  0.00    -0.325 A  
HETATM   15  C   UNL     1     -10.314   9.740  66.950  1.00  0.00    -0.301 A  
HETATM   16  C   UNL     1     -10.838  11.937  67.826  1.00  0.00    -0.254 A  
HETATM   17  C   UNL     1     -11.248  12.534  69.117  1.00  0.00    -0.297 C  
HETATM   18  C   UNL     1     -10.703  10.563  67.984  1.00  0.00    -0.245 A  
HETATM   19  O   UNL     1     -10.962  10.110  69.249  1.00  0.00    -0.222 OA 
HETATM   20  C   UNL     1     -11.323  11.288  70.001  1.00  0.00    -0.208 C  
ENDBRANCH   3  12
TORSDOF 5
ENDMDL
MODEL      134
REMARK 921   NORMALIZED FREE ENERGY PREDICTED BY IDOCK:   -3.93 KCAL/MOL
REMARK 922        TOTAL FREE ENERGY PREDICTED BY IDOCK:   -5.75 KCAL/MOL
REMARK 923 INTER-LIGAND FREE ENERGY PREDICTED BY IDOCK:   -5.52 KCAL/MOL
REMARK 924 INTRA-LIGAND FREE ENERGY PREDICTED BY IDOCK:   -0.23 KCAL/MOL
REMARK 927      BINDING AFFINITY PREDICTED BY RF-SCORE:    0.00 PKD
ROOT
HETATM    1  C   UNL     1     -11.792  14.271  68.211  1.00  0.00    -0.370 C  
HETATM    2  C   UNL     1     -11.904  13.106  69.154  1.00  0.00    -0.364 C  
HETATM    3  C   UNL     1     -10.731  13.182  68.209  1.00  0.00    -0.261 C  
ENDROOT
BRANCH   1   4
HETATM    4  C   UNL     1     -11.417  15.644  68.681  1.00  0.00    -0.375 C  
BRANCH   4   5
HETATM    5  N   UNL     1     -10.657  16.333  67.648  1.00  0.00    -0.306 NA 
HETATM    6  H   UNL     1     -10.519  15.899  66.736  1.00  0.00     0.000 HD 
BRANCH   5   7
HETATM    7  C   UNL     1     -10.162  17.491  67.894  1.00  0.00    -0.350 C  
HETATM    8  H   UNL     1      -8.638  18.571  68.731  1.00  0.00     0.000 HD 
HETATM    9  O   UNL     1      -9.005  17.713  68.548  1.00  0.00    -0.283 OA 
BRANCH   7  10
HETATM   10  C   UNL     1     -10.837  18.772  67.492  1.00  0.00    -0.396 C  
HETATM   11  C   UNL     1     -10.259  19.313  66.197  1.00  0.00    -0.549 C  
ENDBRANCH   7  10
ENDBRANCH   5   7
ENDBRANCH   4   5
ENDBRANCH   1   4
BRANCH   3  12
HETATM   12  C   UNL     1     -10.584  12.236  67.041  1.00  0.00    -0.248 A  
HETATM   13  C   UNL     1     -10.282  12.713  65.749  1.00  0.00    -0.288 A  
HETATM   14  C   UNL     1     -10.022  11.844  64.673  1.00  0.00    -0.257 A  
HETATM   15  C   UNL     1     -10.053  10.465  64.860  1.00  0.00    -0.382 A  
HETATM   16  C   UNL     1     -10.624  10.849  67.183  1.00  0.00    -0.302 A  
HETATM   17  C   UNL     1     -10.897  10.043  68.393  1.00  0.00    -0.277 C  
HETATM   18  C   UNL     1     -10.359   9.996  66.119  1.00  0.00    -0.155 A  
HETATM   19  O   UNL     1     -10.403   8.666  66.435  1.00  0.00    -0.262 OA 
HETATM   20  C   UNL     1     -10.749   8.626  67.836  1.00  0.00    -0.093 C  
ENDBRANCH   3  12
TORSDOF 5
ENDMDL
MODEL      135
REMARK 921   NORMALIZED FREE ENERGY PREDICTED BY IDOCK:   -3.92 KCAL/MOL
REMARK 922        TOTAL FREE ENERGY PREDICTED BY IDOCK:   -5.74 KCAL/MOL
REMARK 923 INTER-LIGAND FREE ENERGY PREDICTED BY IDOCK:   -5.15 KCAL/MOL
REMARK 924 INTRA-LIGAND FREE ENERGY PREDICTED BY IDOCK:   -0.58 KCAL/MOL
REMARK 927      BINDING AFFINITY PREDICTED BY RF-SCORE:    0.00 PKD
ROOT
HETATM    1  C   UNL     1     -11.891  12.071  68.068  1.00  0.00    -0.338 C  
HETATM    2  C   UNL     1     -12.355  11.266  69.249  1.00  0.00    -0.172 C  
HETATM    3  C   UNL     1     -10.948  11.084  68.737  1.00  0.00    -0.270 C  
ENDROOT
BRANCH   1   4
HETATM    4  C   UNL     1     -11.594  13.536  68.169  1.00  0.00    -0.333 C  
BRANCH   4   5
HETATM    5  N   UNL     1     -12.074  14.225  66.979  1.00  0.00    -0.521 NA 
HETATM    6  H   UNL     1     -13.070  14.410  66.859  1.00  0.00     0.000 HD 
BRANCH   5   7
HETATM    7  C   UNL     1     -11.235  14.597  66.082  1.00  0.00    -0.341 C  
HETATM    8  H   UNL     1     -10.151  16.129  65.268  1.00  0.00     0.000 HD 
HETATM    9  O   UNL     1     -10.772  15.854  65.933  1.00  0.00    -0.323 OA 
BRANCH   7  10
HETATM   10  C   UNL     1     -10.669  13.661  65.053  1.00  0.00    -0.374 C  
HETATM   11  C   UNL     1     -11.726  13.244  64.048  1.00  0.00    -0.483 C  
ENDBRANCH   7  10
ENDBRANCH   5   7
ENDBRANCH   4   5
ENDBRANCH   1   4
BRANCH   3  12
HETATM   12  C   UNL     1     -10.511   9.821  68.034  1.00  0.00    -0.271 A  
HETATM   13  C   UNL     1     -10.105   9.840  66.684  1.00  0.00    -0.303 A  
HETATM   14  C   UNL     1      -9.581   8.701  66.045  1.00  0.00    -0.265 A  
HETATM   15  C   UNL     1      -9.442   7.505  66.742  1.00  0.00    -0.230 A  
HETATM   16  C   UNL     1     -10.375   8.599  68.692  1.00  0.00    -0.219 A  
HETATM   17  C   UNL     1     -10.696   8.254  70.095  1.00  0.00    -0.239 C  
HETATM   18  C   UNL     1      -9.850   7.480  68.058  1.00  0.00    -0.151 A  
HETATM   19  O   UNL     1      -9.749   6.372  68.855  1.00  0.00    -0.126 OA 
HETATM   20  C   UNL     1     -10.276   6.784  70.134  1.00  0.00    -0.195 C  
ENDBRANCH   3  12
TORSDOF 5
ENDMDL
MODEL      136
REMARK 921   NORMALIZED FREE ENERGY PREDICTED BY IDOCK:   -3.91 KCAL/MOL
REMARK 922        TOTAL FREE ENERGY PREDICTED BY IDOCK:   -5.72 KCAL/MOL
REMARK 923 INTER-LIGAND FREE ENERGY PREDICTED BY IDOCK:   -5.32 KCAL/MOL
REMARK 924 INTRA-LIGAND FREE ENERGY PREDICTED BY IDOCK:   -0.40 KCAL/MOL
REMARK 927      BINDING AFFINITY PREDICTED BY RF-SCORE:    0.00 PKD
ROOT
HETATM    1  C   UNL     1     -11.905   8.884  71.174  1.00  0.00    -0.353 C  
HETATM    2  C   UNL     1     -11.704   8.272  72.532  1.00  0.00    -0.451 C  
HETATM    3  C   UNL     1     -10.615   8.148  71.497  1.00  0.00    -0.282 C  
ENDROOT
BRANCH   1   4
HETATM    4  C   UNL     1     -11.856  10.365  70.951  1.00  0.00    -0.377 C  
BRANCH   4   5
HETATM    5  N   UNL     1     -10.813  10.689  69.990  1.00  0.00    -0.429 NA 
HETATM    6  H   UNL     1      -9.847  10.415  70.167  1.00  0.00     0.000 HD 
BRANCH   5   7
HETATM    7  C   UNL     1     -11.117  11.324  68.916  1.00  0.00    -0.238 C  
HETATM    8  H   UNL     1     -12.283  11.405  67.236  1.00  0.00     0.000 HD 
HETATM    9  O   UNL     1     -12.057  10.936  68.031  1.00  0.00    -0.563 OA 
BRANCH   7  10
HETATM   10  C   UNL     1     -10.436  12.593  68.495  1.00  0.00    -0.249 C  
HETATM   11  C   UNL     1     -11.420  13.745  68.416  1.00  0.00    -0.351 C  
ENDBRANCH   7  10
ENDBRANCH   5   7
ENDBRANCH   4   5
ENDBRANCH   1   4
BRANCH   3  12
HETATM   12  C   UNL     1     -10.283   6.828  70.841  1.00  0.00    -0.215 A  
HETATM   13  C   UNL     1      -9.961   5.691  71.610  1.00  0.00    -0.222 A  
HETATM   14  C   UNL     1      -9.766   4.425  71.028  1.00  0.00    -0.260 A  
HETATM   15  C   UNL     1      -9.893   4.257  69.653  1.00  0.00    -0.244 A  
HETATM   16  C   UNL     1     -10.381   6.622  69.465  1.00  0.00    -0.232 A  
HETATM   17  C   UNL     1     -10.709   7.594  68.398  1.00  0.00    -0.098 C  
HETATM   18  C   UNL     1     -10.195   5.369  68.897  1.00  0.00    -0.196 A  
HETATM   19  O   UNL     1     -10.363   5.331  67.540  1.00  0.00    -0.192 OA 
HETATM   20  C   UNL     1     -10.670   6.691  67.164  1.00  0.00    -0.370 C  
ENDBRANCH   3  12
TORSDOF 5
ENDMDL
MODEL      137
REMARK 921   NORMALIZED FREE ENERGY PREDICTED BY IDOCK:   -3.89 KCAL/MOL
REMARK 922        TOTAL FREE ENERGY PREDICTED BY IDOCK:   -5.71 KCAL/MOL
REMARK 923 INTER-LIGAND FREE ENERGY PREDICTED BY IDOCK:   -4.85 KCAL/MOL
REMARK 924 INTRA-LIGAND FREE ENERGY PREDICTED BY IDOCK:   -0.86 KCAL/MOL
REMARK 927      BINDING AFFINITY PREDICTED BY RF-SCORE:    0.00 PKD
ROOT
HETATM    1  C   UNL     1     -10.149   7.603  70.950  1.00  0.00    -0.194 C  
HETATM    2  C   UNL     1     -10.794   7.341  69.618  1.00  0.00    -0.238 C  
HETATM    3  C   UNL     1     -11.058   6.399  70.765  1.00  0.00    -0.365 C  
ENDROOT
BRANCH   1   4
HETATM    4  C   UNL     1     -10.597   8.715  71.848  1.00  0.00    -0.340 C  
BRANCH   4   5
HETATM    5  N   UNL     1     -11.344   9.702  71.083  1.00  0.00    -0.357 NA 
HETATM    6  H   UNL     1     -10.889  10.226  70.336  1.00  0.00     0.000 HD 
BRANCH   5   7
HETATM    7  C   UNL     1     -12.582   9.908  71.354  1.00  0.00    -0.398 C  
HETATM    8  H   UNL     1     -14.238  11.074  71.062  1.00  0.00     0.000 HD 
HETATM    9  O   UNL     1     -13.322  10.921  70.861  1.00  0.00    -0.120 OA 
BRANCH   7  10
HETATM   10  C   UNL     1     -13.370   9.038  72.290  1.00  0.00    -0.523 C  
HETATM   11  C   UNL     1     -14.330   8.142  71.529  1.00  0.00    -0.534 C  
ENDBRANCH   7  10
ENDBRANCH   5   7
ENDBRANCH   4   5
ENDBRANCH   1   4
BRANCH   3  12
HETATM   12  C   UNL     1     -10.508   4.993  70.786  1.00  0.00    -0.222 A  
HETATM   13  C   UNL     1      -9.828   4.458  69.672  1.00  0.00    -0.272 A  
HETATM   14  C   UNL     1      -9.204   3.197  69.712  1.00  0.00    -0.220 A  
HETATM   15  C   UNL     1      -9.236   2.433  70.875  1.00  0.00    -0.197 A  
HETATM   16  C   UNL     1     -10.535   4.188  71.925  1.00  0.00    -0.025 A  
HETATM   17  C   UNL     1     -11.148   4.459  73.244  1.00  0.00    -0.368 C  
HETATM   18  C   UNL     1      -9.910   2.947  71.961  1.00  0.00    -0.172 A  
HETATM   19  O   UNL     1      -9.999   2.303  73.164  1.00  0.00    -0.100 OA 
HETATM   20  C   UNL     1     -10.774   3.186  74.004  1.00  0.00    -0.201 C  
ENDBRANCH   3  12
TORSDOF 5
ENDMDL
MODEL      138
REMARK 921   NORMALIZED FREE ENERGY PREDICTED BY IDOCK:   -3.87 KCAL/MOL
REMARK 922        TOTAL FREE ENERGY PREDICTED BY IDOCK:   -5.68 KCAL/MOL
REMARK 923 INTER-LIGAND FREE ENERGY PREDICTED BY IDOCK:   -5.04 KCAL/MOL
REMARK 924 INTRA-LIGAND FREE ENERGY PREDICTED BY IDOCK:   -0.63 KCAL/MOL
REMARK 927      BINDING AFFINITY PREDICTED BY RF-SCORE:    0.00 PKD
ROOT
HETATM    1  C   UNL     1     -10.478   9.563  69.882  1.00  0.00    -0.269 C  
HETATM    2  C   UNL     1     -11.038   9.544  71.276  1.00  0.00    -0.449 C  
HETATM    3  C   UNL     1     -11.860  10.131  70.157  1.00  0.00    -0.299 C  
ENDROOT
BRANCH   1   4
HETATM    4  C   UNL     1     -10.359   8.320  69.053  1.00  0.00    -0.221 C  
BRANCH   4   5
HETATM    5  N   UNL     1      -9.106   8.333  68.313  1.00  0.00    -0.136 NA 
HETATM    6  H   UNL     1      -9.112   8.365  67.294  1.00  0.00     0.000 HD 
BRANCH   5   7
HETATM    7  C   UNL     1      -7.994   8.304  68.952  1.00  0.00    -0.113 C  
HETATM    8  H   UNL     1      -6.795   7.307  70.278  1.00  0.00     0.000 HD 
HETATM    9  O   UNL     1      -7.618   7.329  69.804  1.00  0.00    -0.094 OA 
BRANCH   7  10
HETATM   10  C   UNL     1      -6.958   9.385  68.842  1.00  0.00    -0.063 C  
HETATM   11  C   UNL     1      -6.888  10.210  70.113  1.00  0.00    -0.146 C  
ENDBRANCH   7  10
ENDBRANCH   5   7
ENDBRANCH   4   5
ENDBRANCH   1   4
BRANCH   3  12
HETATM   12  C   UNL     1     -12.130  11.614  70.057  1.00  0.00    -0.395 A  
HETATM   13  C   UNL     1     -12.480  12.371  71.194  1.00  0.00    -0.323 A  
HETATM   14  C   UNL     1     -12.617  13.770  71.147  1.00  0.00    -0.452 A  
HETATM   15  C   UNL     1     -12.404  14.458  69.957  1.00  0.00    -0.391 A  
HETATM   16  C   UNL     1     -11.944  12.338  68.880  1.00  0.00    -0.300 A  
HETATM   17  C   UNL     1     -11.567  11.849  67.534  1.00  0.00    -0.374 C  
HETATM   18  C   UNL     1     -12.074  13.720  68.841  1.00  0.00    -0.313 A  
HETATM   19  O   UNL     1     -11.822  14.279  67.618  1.00  0.00    -0.363 OA 
HETATM   20  C   UNL     1     -11.516  13.164  66.754  1.00  0.00    -0.343 C  
ENDBRANCH   3  12
TORSDOF 5
ENDMDL
MODEL      139
REMARK 921   NORMALIZED FREE ENERGY PREDICTED BY IDOCK:   -3.87 KCAL/MOL
REMARK 922        TOTAL FREE ENERGY PREDICTED BY IDOCK:   -5.67 KCAL/MOL
REMARK 923 INTER-LIGAND FREE ENERGY PREDICTED BY IDOCK:   -5.02 KCAL/MOL
REMARK 924 INTRA-LIGAND FREE ENERGY PREDICTED BY IDOCK:   -0.65 KCAL/MOL
REMARK 927      BINDING AFFINITY PREDICTED BY RF-SCORE:    0.00 PKD
ROOT
HETATM    1  C   UNL     1     -12.032  12.061  68.831  1.00  0.00    -0.303 C  
HETATM    2  C   UNL     1     -12.276  12.897  70.057  1.00  0.00    -0.292 C  
HETATM    3  C   UNL     1     -11.379  11.689  70.152  1.00  0.00    -0.091 C  
ENDROOT
BRANCH   1   4
HETATM    4  C   UNL     1     -11.164  12.534  67.704  1.00  0.00    -0.282 C  
BRANCH   4   5
HETATM    5  N   UNL     1      -9.842  11.933  67.810  1.00  0.00    -0.180 NA 
HETATM    6  H   UNL     1      -9.725  10.925  67.706  1.00  0.00     0.000 HD 
BRANCH   5   7
HETATM    7  C   UNL     1      -8.824  12.682  68.033  1.00  0.00    -0.195 C  
HETATM    8  H   UNL     1      -6.791  12.810  68.228  1.00  0.00     0.000 HD 
HETATM    9  O   UNL     1      -7.545  12.256  68.062  1.00  0.00    -0.106 OA 
BRANCH   7  10
HETATM   10  C   UNL     1      -8.935  14.152  68.316  1.00  0.00    -0.188 C  
HETATM   11  C   UNL     1      -8.613  14.975  67.082  1.00  0.00    -0.246 C  
ENDBRANCH   7  10
ENDBRANCH   5   7
ENDBRANCH   4   5
ENDBRANCH   1   4
BRANCH   3  12
HETATM   12  C   UNL     1     -11.792  10.445  70.904  1.00  0.00    -0.475 A  
HETATM   13  C   UNL     1     -13.025  10.379  71.586  1.00  0.00    -0.581 A  
HETATM   14  C   UNL     1     -13.483   9.194  72.190  1.00  0.00    -0.530 A  
HETATM   15  C   UNL     1     -12.719   8.033  72.127  1.00  0.00    -0.293 A  
HETATM   16  C   UNL     1     -11.048   9.266  70.881  1.00  0.00    -0.374 A  
HETATM   17  C   UNL     1      -9.736   9.004  70.248  1.00  0.00    -0.229 C  
HETATM   18  C   UNL     1     -11.508   8.097  71.473  1.00  0.00    -0.267 A  
HETATM   19  O   UNL     1     -10.675   7.021  71.326  1.00  0.00    -0.219 OA 
HETATM   20  C   UNL     1      -9.543   7.525  70.586  1.00  0.00    -0.171 C  
ENDBRANCH   3  12
TORSDOF 5
ENDMDL
MODEL      140
REMARK 921   NORMALIZED FREE ENERGY PREDICTED BY IDOCK:   -3.86 KCAL/MOL
REMARK 922        TOTAL FREE ENERGY PREDICTED BY IDOCK:   -5.66 KCAL/MOL
REMARK 923 INTER-LIGAND FREE ENERGY PREDICTED BY IDOCK:   -4.99 KCAL/MOL
REMARK 924 INTRA-LIGAND FREE ENERGY PREDICTED BY IDOCK:   -0.66 KCAL/MOL
REMARK 927      BINDING AFFINITY PREDICTED BY RF-SCORE:    0.00 PKD
ROOT
HETATM    1  C   UNL     1     -10.342  11.769  67.058  1.00  0.00    -0.243 C  
HETATM    2  C   UNL     1     -11.784  12.193  67.044  1.00  0.00    -0.373 C  
HETATM    3  C   UNL     1     -11.055  12.095  68.360  1.00  0.00    -0.289 C  
ENDROOT
BRANCH   1   4
HETATM    4  C   UNL     1      -9.241  12.672  66.592  1.00  0.00    -0.218 C  
BRANCH   4   5
HETATM    5  N   UNL     1      -9.211  13.880  67.403  1.00  0.00    -0.214 NA 
HETATM    6  H   UNL     1      -8.838  13.853  68.352  1.00  0.00     0.000 HD 
BRANCH   5   7
HETATM    7  C   UNL     1      -9.657  14.981  66.916  1.00  0.00    -0.239 C  
HETATM    8  H   UNL     1     -10.466  16.824  67.284  1.00  0.00     0.000 HD 
HETATM    9  O   UNL     1     -10.135  16.010  67.645  1.00  0.00    -0.237 OA 
BRANCH   7  10
HETATM   10  C   UNL     1      -9.722  15.256  65.442  1.00  0.00    -0.243 C  
HETATM   11  C   UNL     1     -11.159  15.317  64.957  1.00  0.00    -0.436 C  
ENDBRANCH   7  10
ENDBRANCH   5   7
ENDBRANCH   4   5
ENDBRANCH   1   4
BRANCH   3  12
HETATM   12  C   UNL     1     -11.371  11.016  69.369  1.00  0.00    -0.352 A  
HETATM   13  C   UNL     1     -10.798   9.731  69.269  1.00  0.00    -0.240 A  
HETATM   14  C   UNL     1     -10.983   8.751  70.261  1.00  0.00    -0.255 A  
HETATM   15  C   UNL     1     -11.746   9.028  71.391  1.00  0.00    -0.392 A  
HETATM   16  C   UNL     1     -12.144  11.248  70.507  1.00  0.00    -0.481 A  
HETATM   17  C   UNL     1     -12.863  12.478  70.910  1.00  0.00    -0.177 C  
HETATM   18  C   UNL     1     -12.317  10.279  71.486  1.00  0.00    -0.390 A  
HETATM   19  O   UNL     1     -13.072  10.680  72.554  1.00  0.00    -0.082 OA 
HETATM   20  C   UNL     1     -13.458  12.037  72.249  1.00  0.00    -0.134 C  
ENDBRANCH   3  12
TORSDOF 5
ENDMDL
MODEL      141
REMARK 921   NORMALIZED FREE ENERGY PREDICTED BY IDOCK:   -3.85 KCAL/MOL
REMARK 922        TOTAL FREE ENERGY PREDICTED BY IDOCK:   -5.64 KCAL/MOL
REMARK 923 INTER-LIGAND FREE ENERGY PREDICTED BY IDOCK:   -5.95 KCAL/MOL
REMARK 924 INTRA-LIGAND FREE ENERGY PREDICTED BY IDOCK:    0.31 KCAL/MOL
REMARK 927      BINDING AFFINITY PREDICTED BY RF-SCORE:    0.00 PKD
ROOT
HETATM    1  C   UNL     1     -10.582  13.746  67.820  1.00  0.00    -0.250 C  
HETATM    2  C   UNL     1     -11.977  13.537  67.302  1.00  0.00    -0.408 C  
HETATM    3  C   UNL     1     -11.720  14.626  68.312  1.00  0.00    -0.359 C  
ENDROOT
BRANCH   1   4
HETATM    4  C   UNL     1      -9.504  14.361  66.981  1.00  0.00    -0.248 C  
BRANCH   4   5
HETATM    5  N   UNL     1      -9.136  15.663  67.518  1.00  0.00    -0.191 NA 
HETATM    6  H   UNL     1      -9.816  16.423  67.536  1.00  0.00     0.000 HD 
BRANCH   5   7
HETATM    7  C   UNL     1      -7.950  15.848  67.971  1.00  0.00    -0.136 C  
HETATM    8  H   UNL     1      -6.684  15.752  69.577  1.00  0.00     0.000 HD 
HETATM    9  O   UNL     1      -7.563  15.614  69.241  1.00  0.00    -0.192 OA 
BRANCH   7  10
HETATM   10  C   UNL     1      -6.826  16.378  67.128  1.00  0.00    -0.238 C  
HETATM   11  C   UNL     1      -7.091  17.808  66.695  1.00  0.00    -0.257 C  
ENDBRANCH   7  10
ENDBRANCH   5   7
ENDBRANCH   4   5
ENDBRANCH   1   4
BRANCH   3  12
HETATM   12  C   UNL     1     -12.222  14.533  69.733  1.00  0.00    -0.360 A  
HETATM   13  C   UNL     1     -12.572  15.688  70.462  1.00  0.00    -0.423 A  
HETATM   14  C   UNL     1     -13.155  15.617  71.741  1.00  0.00    -0.546 A  
HETATM   15  C   UNL     1     -13.410  14.383  72.330  1.00  0.00    -0.546 A  
HETATM   16  C   UNL     1     -12.476  13.316  70.366  1.00  0.00    -0.295 A  
HETATM   17  C   UNL     1     -12.238  11.941  69.873  1.00  0.00    -0.269 C  
HETATM   18  C   UNL     1     -13.058  13.252  71.626  1.00  0.00    -0.363 A  
HETATM   19  O   UNL     1     -13.273  11.982  72.087  1.00  0.00    -0.495 OA 
HETATM   20  C   UNL     1     -12.768  11.117  71.048  1.00  0.00    -0.378 C  
ENDBRANCH   3  12
TORSDOF 5
ENDMDL
MODEL      142
REMARK 921   NORMALIZED FREE ENERGY PREDICTED BY IDOCK:   -3.84 KCAL/MOL
REMARK 922        TOTAL FREE ENERGY PREDICTED BY IDOCK:   -5.64 KCAL/MOL
REMARK 923 INTER-LIGAND FREE ENERGY PREDICTED BY IDOCK:   -5.37 KCAL/MOL
REMARK 924 INTRA-LIGAND FREE ENERGY PREDICTED BY IDOCK:   -0.27 KCAL/MOL
REMARK 927      BINDING AFFINITY PREDICTED BY RF-SCORE:    0.00 PKD
ROOT
HETATM    1  C   UNL     1     -11.497  11.401  68.838  1.00  0.00    -0.363 C  
HETATM    2  C   UNL     1     -11.929  11.069  70.239  1.00  0.00    -0.452 C  
HETATM    3  C   UNL     1     -10.782  10.312  69.619  1.00  0.00    -0.299 C  
ENDROOT
BRANCH   1   4
HETATM    4  C   UNL     1     -10.755  12.662  68.511  1.00  0.00    -0.248 C  
BRANCH   4   5
HETATM    5  N   UNL     1     -10.832  12.927  67.082  1.00  0.00    -0.253 NA 
HETATM    6  H   UNL     1     -10.765  12.161  66.412  1.00  0.00     0.000 HD 
BRANCH   5   7
HETATM    7  C   UNL     1     -10.985  14.133  66.670  1.00  0.00    -0.303 C  
HETATM    8  H   UNL     1     -11.871  15.954  66.964  1.00  0.00     0.000 HD 
HETATM    9  O   UNL     1     -11.757  15.061  67.269  1.00  0.00    -0.330 OA 
BRANCH   7  10
HETATM   10  C   UNL     1     -10.324  14.665  65.431  1.00  0.00    -0.406 C  
HETATM   11  C   UNL     1     -11.203  15.689  64.736  1.00  0.00    -0.391 C  
ENDBRANCH   7  10
ENDBRANCH   5   7
ENDBRANCH   4   5
ENDBRANCH   1   4
BRANCH   3  12
HETATM   12  C   UNL     1     -10.904   8.859  69.225  1.00  0.00    -0.113 A  
HETATM   13  C   UNL     1     -10.676   8.440  67.898  1.00  0.00    -0.141 A  
HETATM   14  C   UNL     1     -10.666   7.081  67.533  1.00  0.00    -0.352 A  
HETATM   15  C   UNL     1     -10.880   6.095  68.491  1.00  0.00    -0.389 A  
HETATM   16  C   UNL     1     -11.133   7.841  70.151  1.00  0.00    -0.216 A  
HETATM   17  C   UNL     1     -11.391   7.944  71.605  1.00  0.00    -0.299 C  
HETATM   18  C   UNL     1     -11.115   6.501  69.787  1.00  0.00    -0.370 A  
HETATM   19  O   UNL     1     -11.321   5.630  70.821  1.00  0.00    -0.142 OA 
HETATM   20  C   UNL     1     -11.516   6.467  71.981  1.00  0.00    -0.300 C  
ENDBRANCH   3  12
TORSDOF 5
ENDMDL
MODEL      143
REMARK 921   NORMALIZED FREE ENERGY PREDICTED BY IDOCK:   -3.84 KCAL/MOL
REMARK 922        TOTAL FREE ENERGY PREDICTED BY IDOCK:   -5.63 KCAL/MOL
REMARK 923 INTER-LIGAND FREE ENERGY PREDICTED BY IDOCK:   -5.82 KCAL/MOL
REMARK 924 INTRA-LIGAND FREE ENERGY PREDICTED BY IDOCK:    0.19 KCAL/MOL
REMARK 927      BINDING AFFINITY PREDICTED BY RF-SCORE:    0.00 PKD
ROOT
HETATM    1  C   UNL     1     -11.184  14.794  67.841  1.00  0.00    -0.318 C  
HETATM    2  C   UNL     1     -12.053  14.323  66.708  1.00  0.00    -0.446 C  
HETATM    3  C   UNL     1     -12.031  13.542  67.997  1.00  0.00    -0.372 C  
ENDROOT
BRANCH   1   4
HETATM    4  C   UNL     1     -11.525  16.003  68.657  1.00  0.00    -0.377 C  
BRANCH   4   5
HETATM    5  N   UNL     1     -10.325  16.789  68.906  1.00  0.00    -0.297 NA 
HETATM    6  H   UNL     1      -9.630  16.466  69.579  1.00  0.00     0.000 HD 
BRANCH   5   7
HETATM    7  C   UNL     1     -10.148  17.891  68.273  1.00  0.00    -0.375 C  
HETATM    8  H   UNL     1     -10.989  19.409  67.189  1.00  0.00     0.000 HD 
HETATM    9  O   UNL     1     -11.121  18.593  67.658  1.00  0.00    -0.277 OA 
BRANCH   7  10
HETATM   10  C   UNL     1      -8.802  18.539  68.119  1.00  0.00    -0.327 C  
HETATM   11  C   UNL     1      -7.723  17.740  68.828  1.00  0.00    -0.252 C  
ENDBRANCH   7  10
ENDBRANCH   5   7
ENDBRANCH   4   5
ENDBRANCH   1   4
BRANCH   3  12
HETATM   12  C   UNL     1     -11.396  12.175  68.092  1.00  0.00    -0.349 A  
HETATM   13  C   UNL     1     -11.347  11.475  69.315  1.00  0.00    -0.353 A  
HETATM   14  C   UNL     1     -10.869  10.154  69.402  1.00  0.00    -0.274 A  
HETATM   15  C   UNL     1     -10.428   9.489  68.262  1.00  0.00    -0.265 A  
HETATM   16  C   UNL     1     -10.926  11.481  66.976  1.00  0.00    -0.347 A  
HETATM   17  C   UNL     1     -10.854  11.923  65.566  1.00  0.00    -0.343 C  
HETATM   18  C   UNL     1     -10.463  10.174  67.067  1.00  0.00    -0.240 A  
HETATM   19  O   UNL     1     -10.075   9.627  65.876  1.00  0.00    -0.288 OA 
HETATM   20  C   UNL     1     -10.278  10.672  64.901  1.00  0.00    -0.324 C  
ENDBRANCH   3  12
TORSDOF 5
ENDMDL
MODEL      144
REMARK 921   NORMALIZED FREE ENERGY PREDICTED BY IDOCK:   -3.84 KCAL/MOL
REMARK 922        TOTAL FREE ENERGY PREDICTED BY IDOCK:   -5.63 KCAL/MOL
REMARK 923 INTER-LIGAND FREE ENERGY PREDICTED BY IDOCK:   -5.23 KCAL/MOL
REMARK 924 INTRA-LIGAND FREE ENERGY PREDICTED BY IDOCK:   -0.41 KCAL/MOL
REMARK 927      BINDING AFFINITY PREDICTED BY RF-SCORE:    0.00 PKD
ROOT
HETATM    1  C   UNL     1     -11.226  12.874  69.439  1.00  0.00    -0.197 C  
HETATM    2  C   UNL     1     -12.462  13.528  69.992  1.00  0.00    -0.231 C  
HETATM    3  C   UNL     1     -12.069  13.782  68.559  1.00  0.00    -0.327 C  
ENDROOT
BRANCH   1   4
HETATM    4  C   UNL     1     -11.171  11.410  69.124  1.00  0.00    -0.272 C  
BRANCH   4   5
HETATM    5  N   UNL     1     -11.111  10.638  70.357  1.00  0.00    -0.440 NA 
HETATM    6  H   UNL     1     -11.731  10.862  71.135  1.00  0.00     0.000 HD 
BRANCH   5   7
HETATM    7  C   UNL     1     -10.271   9.673  70.458  1.00  0.00    -0.287 C  
HETATM    8  H   UNL     1      -9.263   8.389  71.692  1.00  0.00     0.000 HD 
HETATM    9  O   UNL     1      -9.885   9.103  71.617  1.00  0.00    -0.305 OA 
BRANCH   7  10
HETATM   10  C   UNL     1      -9.586   9.057  69.272  1.00  0.00    -0.162 C  
HETATM   11  C   UNL     1     -10.406   7.919  68.693  1.00  0.00    -0.224 C  
ENDBRANCH   7  10
ENDBRANCH   5   7
ENDBRANCH   4   5
ENDBRANCH   1   4
BRANCH   3  12
HETATM   12  C   UNL     1     -11.551  15.125  68.100  1.00  0.00    -0.358 A  
HETATM   13  C   UNL     1     -11.082  16.082  69.023  1.00  0.00    -0.320 A  
HETATM   14  C   UNL     1     -10.486  17.288  68.611  1.00  0.00    -0.356 A  
HETATM   15  C   UNL     1     -10.336  17.573  67.258  1.00  0.00    -0.337 A  
HETATM   16  C   UNL     1     -11.401  15.456  66.753  1.00  0.00    -0.125 A  
HETATM   17  C   UNL     1     -11.775  14.674  65.553  1.00  0.00    -0.316 C  
HETATM   18  C   UNL     1     -10.804  16.645  66.353  1.00  0.00    -0.012 A  
HETATM   19  O   UNL     1     -10.700  16.799  64.997  1.00  0.00    -0.692 OA 
HETATM   20  C   UNL     1     -11.302  15.611  64.440  1.00  0.00    -0.263 C  
ENDBRANCH   3  12
TORSDOF 5
ENDMDL
MODEL      145
REMARK 921   NORMALIZED FREE ENERGY PREDICTED BY IDOCK:   -3.83 KCAL/MOL
REMARK 922        TOTAL FREE ENERGY PREDICTED BY IDOCK:   -5.62 KCAL/MOL
REMARK 923 INTER-LIGAND FREE ENERGY PREDICTED BY IDOCK:   -5.10 KCAL/MOL
REMARK 924 INTRA-LIGAND FREE ENERGY PREDICTED BY IDOCK:   -0.52 KCAL/MOL
REMARK 927      BINDING AFFINITY PREDICTED BY RF-SCORE:    0.00 PKD
ROOT
HETATM    1  C   UNL     1     -10.393  11.582  67.371  1.00  0.00    -0.235 C  
HETATM    2  C   UNL     1     -11.580  11.048  68.122  1.00  0.00    -0.345 C  
HETATM    3  C   UNL     1     -11.628  12.447  67.563  1.00  0.00    -0.431 C  
ENDROOT
BRANCH   1   4
HETATM    4  C   UNL     1     -10.046  11.114  65.991  1.00  0.00    -0.244 C  
BRANCH   4   5
HETATM    5  N   UNL     1     -10.229   9.673  65.894  1.00  0.00    -0.221 NA 
HETATM    6  H   UNL     1     -11.167   9.272  65.905  1.00  0.00     0.000 HD 
BRANCH   5   7
HETATM    7  C   UNL     1      -9.202   8.910  65.794  1.00  0.00    -0.221 C  
HETATM    8  H   UNL     1      -7.429   8.525  64.847  1.00  0.00     0.000 HD 
HETATM    9  O   UNL     1      -8.189   9.090  64.922  1.00  0.00    -0.135 OA 
BRANCH   7  10
HETATM   10  C   UNL     1      -9.006   7.686  66.641  1.00  0.00    -0.181 C  
HETATM   11  C   UNL     1      -7.578   7.590  67.145  1.00  0.00    -0.107 C  
ENDBRANCH   7  10
ENDBRANCH   5   7
ENDBRANCH   4   5
ENDBRANCH   1   4
BRANCH   3  12
HETATM   12  C   UNL     1     -11.598  13.665  68.455  1.00  0.00    -0.371 A  
HETATM   13  C   UNL     1     -11.805  13.557  69.846  1.00  0.00    -0.386 A  
HETATM   14  C   UNL     1     -11.663  14.658  70.711  1.00  0.00    -0.336 A  
HETATM   15  C   UNL     1     -11.303  15.905  70.209  1.00  0.00    -0.381 A  
HETATM   16  C   UNL     1     -11.258  14.936  67.989  1.00  0.00    -0.318 A  
HETATM   17  C   UNL     1     -10.969  15.374  66.606  1.00  0.00    -0.275 C  
HETATM   18  C   UNL     1     -11.112  16.017  68.849  1.00  0.00    -0.331 A  
HETATM   19  O   UNL     1     -10.740  17.182  68.236  1.00  0.00    -0.366 OA 
HETATM   20  C   UNL     1     -10.649  16.853  66.833  1.00  0.00    -0.214 C  
ENDBRANCH   3  12
TORSDOF 5
ENDMDL
MODEL      146
REMARK 921   NORMALIZED FREE ENERGY PREDICTED BY IDOCK:   -3.82 KCAL/MOL
REMARK 922        TOTAL FREE ENERGY PREDICTED BY IDOCK:   -5.62 KCAL/MOL
REMARK 923 INTER-LIGAND FREE ENERGY PREDICTED BY IDOCK:   -5.85 KCAL/MOL
REMARK 924 INTRA-LIGAND FREE ENERGY PREDICTED BY IDOCK:    0.23 KCAL/MOL
REMARK 927      BINDING AFFINITY PREDICTED BY RF-SCORE:    0.00 PKD
ROOT
HETATM    1  C   UNL     1      -9.658  15.206  66.885  1.00  0.00    -0.252 C  
HETATM    2  C   UNL     1      -9.743  15.920  65.565  1.00  0.00    -0.215 C  
HETATM    3  C   UNL     1      -8.486  16.038  66.390  1.00  0.00    -0.363 C  
ENDROOT
BRANCH   1   4
HETATM    4  C   UNL     1      -9.499  13.719  66.979  1.00  0.00    -0.255 C  
BRANCH   4   5
HETATM    5  N   UNL     1      -9.342  13.151  65.648  1.00  0.00    -0.450 NA 
HETATM    6  H   UNL     1      -8.415  13.069  65.230  1.00  0.00     0.000 HD 
BRANCH   5   7
HETATM    7  C   UNL     1     -10.378  12.754  65.003  1.00  0.00    -0.303 C  
HETATM    8  H   UNL     1     -11.176  12.187  63.206  1.00  0.00     0.000 HD 
HETATM    9  O   UNL     1     -10.408  12.481  63.683  1.00  0.00    -0.422 OA 
BRANCH   7  10
HETATM   10  C   UNL     1     -11.719  12.559  65.650  1.00  0.00    -0.473 C  
HETATM   11  C   UNL     1     -12.701  13.629  65.212  1.00  0.00    -0.478 C  
ENDBRANCH   7  10
ENDBRANCH   5   7
ENDBRANCH   4   5
ENDBRANCH   1   4
BRANCH   3  12
HETATM   12  C   UNL     1      -8.099  17.328  67.074  1.00  0.00    -0.237 A  
HETATM   13  C   UNL     1      -6.902  17.433  67.811  1.00  0.00    -0.176 A  
HETATM   14  C   UNL     1      -6.462  18.654  68.354  1.00  0.00    -0.236 A  
HETATM   15  C   UNL     1      -7.209  19.814  68.172  1.00  0.00    -0.329 A  
HETATM   16  C   UNL     1      -8.828  18.508  66.930  1.00  0.00    -0.283 A  
HETATM   17  C   UNL     1     -10.104  18.735  66.215  1.00  0.00    -0.447 C  
HETATM   18  C   UNL     1      -8.386  19.713  67.463  1.00  0.00    -0.302 A  
HETATM   19  O   UNL     1      -9.199  20.781  67.200  1.00  0.00    -0.338 OA 
HETATM   20  C   UNL     1     -10.298  20.236  66.438  1.00  0.00    -0.289 C  
ENDBRANCH   3  12
TORSDOF 5
ENDMDL
MODEL      147
REMARK 921   NORMALIZED FREE ENERGY PREDICTED BY IDOCK:   -3.82 KCAL/MOL
REMARK 922        TOTAL FREE ENERGY PREDICTED BY IDOCK:   -5.61 KCAL/MOL
REMARK 923 INTER-LIGAND FREE ENERGY PREDICTED BY IDOCK:   -5.06 KCAL/MOL
REMARK 924 INTRA-LIGAND FREE ENERGY PREDICTED BY IDOCK:   -0.55 KCAL/MOL
REMARK 927      BINDING AFFINITY PREDICTED BY RF-SCORE:    0.00 PKD
ROOT
HETATM    1  C   UNL     1     -10.020   8.002  69.061  1.00  0.00    -0.186 C  
HETATM    2  C   UNL     1      -9.393   9.243  69.632  1.00  0.00    -0.187 C  
HETATM    3  C   UNL     1     -10.536   9.374  68.657  1.00  0.00    -0.230 C  
ENDROOT
BRANCH   1   4
HETATM    4  C   UNL     1     -10.904   7.109  69.876  1.00  0.00    -0.254 C  
BRANCH   4   5
HETATM    5  N   UNL     1     -10.886   7.528  71.270  1.00  0.00    -0.233 NA 
HETATM    6  H   UNL     1     -11.328   8.404  71.549  1.00  0.00     0.000 HD 
BRANCH   5   7
HETATM    7  C   UNL     1     -10.310   6.788  72.146  1.00  0.00    -0.200 C  
HETATM    8  H   UNL     1      -9.467   4.974  72.582  1.00  0.00     0.000 HD 
HETATM    9  O   UNL     1      -9.894   5.523  71.934  1.00  0.00    -0.162 OA 
BRANCH   7  10
HETATM   10  C   UNL     1     -10.039   7.242  73.551  1.00  0.00    -0.387 C  
HETATM   11  C   UNL     1      -8.787   8.095  73.621  1.00  0.00    -0.296 C  
ENDBRANCH   7  10
ENDBRANCH   5   7
ENDBRANCH   4   5
ENDBRANCH   1   4
BRANCH   3  12
HETATM   12  C   UNL     1     -10.335   9.904  67.257  1.00  0.00    -0.303 A  
HETATM   13  C   UNL     1      -9.709   9.123  66.264  1.00  0.00    -0.344 A  
HETATM   14  C   UNL     1      -9.620   9.548  64.925  1.00  0.00    -0.158 A  
HETATM   15  C   UNL     1     -10.160  10.770  64.538  1.00  0.00    -0.415 A  
HETATM   16  C   UNL     1     -10.847  11.130  66.833  1.00  0.00    -0.333 A  
HETATM   17  C   UNL     1     -11.562  12.163  67.615  1.00  0.00    -0.413 C  
HETATM   18  C   UNL     1     -10.762  11.541  65.509  1.00  0.00    -0.272 A  
HETATM   19  O   UNL     1     -11.346  12.751  65.252  1.00  0.00    -0.290 OA 
HETATM   20  C   UNL     1     -11.849  13.200  66.529  1.00  0.00    -0.400 C  
ENDBRANCH   3  12
TORSDOF 5
ENDMDL
MODEL      148
REMARK 921   NORMALIZED FREE ENERGY PREDICTED BY IDOCK:   -3.82 KCAL/MOL
REMARK 922        TOTAL FREE ENERGY PREDICTED BY IDOCK:   -5.61 KCAL/MOL
REMARK 923 INTER-LIGAND FREE ENERGY PREDICTED BY IDOCK:   -5.07 KCAL/MOL
REMARK 924 INTRA-LIGAND FREE ENERGY PREDICTED BY IDOCK:   -0.54 KCAL/MOL
REMARK 927      BINDING AFFINITY PREDICTED BY RF-SCORE:    0.00 PKD
ROOT
HETATM    1  C   UNL     1     -11.028  11.565  66.425  1.00  0.00    -0.336 C  
HETATM    2  C   UNL     1     -11.967  12.571  65.821  1.00  0.00    -0.482 C  
HETATM    3  C   UNL     1     -10.977  13.019  66.865  1.00  0.00    -0.289 C  
ENDROOT
BRANCH   1   4
HETATM    4  C   UNL     1      -9.868  10.999  65.664  1.00  0.00    -0.239 C  
BRANCH   4   5
HETATM    5  N   UNL     1      -8.651  11.722  66.002  1.00  0.00    -0.389 NA 
HETATM    6  H   UNL     1      -8.485  12.655  65.625  1.00  0.00     0.000 HD 
BRANCH   5   7
HETATM    7  C   UNL     1      -7.787  11.177  66.779  1.00  0.00    -0.153 C  
HETATM    8  H   UNL     1      -7.431  10.199  68.541  1.00  0.00     0.000 HD 
HETATM    9  O   UNL     1      -8.070  10.602  67.966  1.00  0.00    -0.108 OA 
BRANCH   7  10
HETATM   10  C   UNL     1      -6.319  11.127  66.465  1.00  0.00    -0.132 C  
HETATM   11  C   UNL     1      -5.570  10.278  67.475  1.00  0.00    -0.044 C  
ENDBRANCH   7  10
ENDBRANCH   5   7
ENDBRANCH   4   5
ENDBRANCH   1   4
BRANCH   3  12
HETATM   12  C   UNL     1     -11.411  13.432  68.252  1.00  0.00    -0.330 A  
HETATM   13  C   UNL     1     -11.924  12.490  69.167  1.00  0.00    -0.287 A  
HETATM   14  C   UNL     1     -12.221  12.828  70.500  1.00  0.00    -0.389 A  
HETATM   15  C   UNL     1     -12.008  14.124  70.961  1.00  0.00    -0.351 A  
HETATM   16  C   UNL     1     -11.230  14.723  68.747  1.00  0.00    -0.286 A  
HETATM   17  C   UNL     1     -10.707  15.923  68.055  1.00  0.00    -0.301 C  
HETATM   18  C   UNL     1     -11.518  15.050  70.066  1.00  0.00    -0.276 A  
HETATM   19  O   UNL     1     -11.249  16.349  70.400  1.00  0.00    -0.378 OA 
HETATM   20  C   UNL     1     -10.756  16.952  69.185  1.00  0.00    -0.298 C  
ENDBRANCH   3  12
TORSDOF 5
ENDMDL
MODEL      149
REMARK 921   NORMALIZED FREE ENERGY PREDICTED BY IDOCK:   -3.81 KCAL/MOL
REMARK 922        TOTAL FREE ENERGY PREDICTED BY IDOCK:   -5.60 KCAL/MOL
REMARK 923 INTER-LIGAND FREE ENERGY PREDICTED BY IDOCK:   -5.01 KCAL/MOL
REMARK 924 INTRA-LIGAND FREE ENERGY PREDICTED BY IDOCK:   -0.58 KCAL/MOL
REMARK 927      BINDING AFFINITY PREDICTED BY RF-SCORE:    0.00 PKD
ROOT
HETATM    1  C   UNL     1     -10.642   9.130  68.091  1.00  0.00    -0.235 C  
HETATM    2  C   UNL     1     -10.808  10.461  67.413  1.00  0.00    -0.344 C  
HETATM    3  C   UNL     1     -10.399  10.417  68.863  1.00  0.00    -0.227 C  
ENDROOT
BRANCH   1   4
HETATM    4  C   UNL     1      -9.480   8.229  67.804  1.00  0.00    -0.149 C  
BRANCH   4   5
HETATM    5  N   UNL     1      -8.691   8.034  69.012  1.00  0.00    -0.137 NA 
HETATM    6  H   UNL     1      -8.233   8.828  69.460  1.00  0.00     0.000 HD 
BRANCH   5   7
HETATM    7  C   UNL     1      -8.576   6.857  69.510  1.00  0.00    -0.134 C  
HETATM    8  H   UNL     1      -8.580   4.838  69.176  1.00  0.00     0.000 HD 
HETATM    9  O   UNL     1      -8.664   5.710  68.807  1.00  0.00    -0.107 OA 
BRANCH   7  10
HETATM   10  C   UNL     1      -8.344   6.606  70.972  1.00  0.00    -0.125 C  
HETATM   11  C   UNL     1      -8.045   7.898  71.711  1.00  0.00    -0.127 C  
ENDBRANCH   7  10
ENDBRANCH   5   7
ENDBRANCH   4   5
ENDBRANCH   1   4
BRANCH   3  12
HETATM   12  C   UNL     1     -11.330  10.852  69.970  1.00  0.00    -0.386 A  
HETATM   13  C   UNL     1     -11.785  12.183  70.060  1.00  0.00    -0.330 A  
HETATM   14  C   UNL     1     -12.745  12.583  71.008  1.00  0.00    -0.316 A  
HETATM   15  C   UNL     1     -13.285  11.657  71.895  1.00  0.00    -0.475 A  
HETATM   16  C   UNL     1     -11.881   9.959  70.890  1.00  0.00    -0.443 A  
HETATM   17  C   UNL     1     -11.625   8.510  71.049  1.00  0.00    -0.317 C  
HETATM   18  C   UNL     1     -12.833  10.358  71.818  1.00  0.00    -0.456 A  
HETATM   19  O   UNL     1     -13.298   9.352  72.621  1.00  0.00    -0.395 OA 
HETATM   20  C   UNL     1     -12.572   8.176  72.203  1.00  0.00    -0.310 C  
ENDBRANCH   3  12
TORSDOF 5
ENDMDL
MODEL      150
REMARK 921   NORMALIZED FREE ENERGY PREDICTED BY IDOCK:   -3.81 KCAL/MOL
REMARK 922        TOTAL FREE ENERGY PREDICTED BY IDOCK:   -5.60 KCAL/MOL
REMARK 923 INTER-LIGAND FREE ENERGY PREDICTED BY IDOCK:   -5.01 KCAL/MOL
REMARK 924 INTRA-LIGAND FREE ENERGY PREDICTED BY IDOCK:   -0.59 KCAL/MOL
REMARK 927      BINDING AFFINITY PREDICTED BY RF-SCORE:    0.00 PKD
ROOT
HETATM    1  C   UNL     1      -9.727  11.079  68.023  1.00  0.00    -0.181 C  
HETATM    2  C   UNL     1     -10.495  10.495  66.870  1.00  0.00    -0.303 C  
HETATM    3  C   UNL     1     -10.965  10.235  68.278  1.00  0.00    -0.315 C  
ENDROOT
BRANCH   1   4
HETATM    4  C   UNL     1      -9.769  12.541  68.350  1.00  0.00    -0.189 C  
BRANCH   4   5
HETATM    5  N   UNL     1     -11.149  12.976  68.509  1.00  0.00    -0.253 NA 
HETATM    6  H   UNL     1     -11.775  12.479  69.142  1.00  0.00     0.000 HD 
BRANCH   5   7
HETATM    7  C   UNL     1     -11.572  13.990  67.846  1.00  0.00    -0.343 C  
HETATM    8  H   UNL     1     -12.494  14.678  66.154  1.00  0.00     0.000 HD 
HETATM    9  O   UNL     1     -12.181  13.927  66.645  1.00  0.00    -0.437 OA 
BRANCH   7  10
HETATM   10  C   UNL     1     -11.422  15.404  68.329  1.00  0.00    -0.362 C  
HETATM   11  C   UNL     1     -11.790  15.526  69.796  1.00  0.00    -0.376 C  
ENDBRANCH   7  10
ENDBRANCH   5   7
ENDBRANCH   4   5
ENDBRANCH   1   4
BRANCH   3  12
HETATM   12  C   UNL     1     -10.862   8.869  68.915  1.00  0.00    -0.052 A  
HETATM   13  C   UNL     1     -10.267   7.788  68.233  1.00  0.00    -0.236 A  
HETATM   14  C   UNL     1     -10.053   6.542  68.849  1.00  0.00    -0.183 A  
HETATM   15  C   UNL     1     -10.425   6.340  70.174  1.00  0.00    -0.278 A  
HETATM   16  C   UNL     1     -11.239   8.620  70.234  1.00  0.00    -0.196 A  
HETATM   17  C   UNL     1     -11.870   9.535  71.212  1.00  0.00    -0.450 C  
HETATM   18  C   UNL     1     -11.018   7.390  70.840  1.00  0.00    -0.253 A  
HETATM   19  O   UNL     1     -11.412   7.324  72.149  1.00  0.00    -0.257 OA 
HETATM   20  C   UNL     1     -11.968   8.624  72.438  1.00  0.00    -0.340 C  
ENDBRANCH   3  12
TORSDOF 5
ENDMDL
MODEL      151
REMARK 921   NORMALIZED FREE ENERGY PREDICTED BY IDOCK:   -3.81 KCAL/MOL
REMARK 922        TOTAL FREE ENERGY PREDICTED BY IDOCK:   -5.59 KCAL/MOL
REMARK 923 INTER-LIGAND FREE ENERGY PREDICTED BY IDOCK:   -5.88 KCAL/MOL
REMARK 924 INTRA-LIGAND FREE ENERGY PREDICTED BY IDOCK:    0.29 KCAL/MOL
REMARK 927      BINDING AFFINITY PREDICTED BY RF-SCORE:    0.00 PKD
ROOT
HETATM    1  C   UNL     1     -11.906   9.671  71.811  1.00  0.00    -0.391 C  
HETATM    2  C   UNL     1     -13.374   9.882  71.570  1.00  0.00    -0.462 C  
HETATM    3  C   UNL     1     -12.388  10.257  70.494  1.00  0.00    -0.371 C  
ENDROOT
BRANCH   1   4
HETATM    4  C   UNL     1     -11.285   8.307  71.811  1.00  0.00    -0.283 C  
BRANCH   4   5
HETATM    5  N   UNL     1      -9.937   8.374  71.267  1.00  0.00    -0.191 NA 
HETATM    6  H   UNL     1      -9.792   8.470  70.262  1.00  0.00     0.000 HD 
BRANCH   5   7
HETATM    7  C   UNL     1      -8.931   8.312  72.061  1.00  0.00    -0.196 C  
HETATM    8  H   UNL     1      -8.262   8.286  73.995  1.00  0.00     0.000 HD 
HETATM    9  O   UNL     1      -9.007   8.332  73.407  1.00  0.00    -0.249 OA 
BRANCH   7  10
HETATM   10  C   UNL     1      -7.511   8.226  71.578  1.00  0.00    -0.097 C  
HETATM   11  C   UNL     1      -6.543   8.089  72.738  1.00  0.00    -0.085 C  
ENDBRANCH   7  10
ENDBRANCH   5   7
ENDBRANCH   4   5
ENDBRANCH   1   4
BRANCH   3  12
HETATM   12  C   UNL     1     -12.111  11.697  70.131  1.00  0.00    -0.414 A  
HETATM   13  C   UNL     1     -11.429  12.033  68.944  1.00  0.00    -0.356 A  
HETATM   14  C   UNL     1     -11.266  13.366  68.526  1.00  0.00    -0.316 A  
HETATM   15  C   UNL     1     -11.788  14.409  69.285  1.00  0.00    -0.365 A  
HETATM   16  C   UNL     1     -12.603  12.771  70.873  1.00  0.00    -0.342 A  
HETATM   17  C   UNL     1     -13.363  12.757  72.143  1.00  0.00    -0.593 C  
HETATM   18  C   UNL     1     -12.446  14.085  70.452  1.00  0.00    -0.350 A  
HETATM   19  O   UNL     1     -13.018  15.016  71.275  1.00  0.00    -0.321 OA 
HETATM   20  C   UNL     1     -13.593  14.253  72.358  1.00  0.00    -0.500 C  
ENDBRANCH   3  12
TORSDOF 5
ENDMDL
MODEL      152
REMARK 921   NORMALIZED FREE ENERGY PREDICTED BY IDOCK:   -3.80 KCAL/MOL
REMARK 922        TOTAL FREE ENERGY PREDICTED BY IDOCK:   -5.59 KCAL/MOL
REMARK 923 INTER-LIGAND FREE ENERGY PREDICTED BY IDOCK:   -4.91 KCAL/MOL
REMARK 924 INTRA-LIGAND FREE ENERGY PREDICTED BY IDOCK:   -0.67 KCAL/MOL
REMARK 927      BINDING AFFINITY PREDICTED BY RF-SCORE:    0.00 PKD
ROOT
HETATM    1  C   UNL     1     -10.769  10.189  70.049  1.00  0.00    -0.356 C  
HETATM    2  C   UNL     1     -10.750  11.363  69.111  1.00  0.00    -0.229 C  
HETATM    3  C   UNL     1     -11.089   9.996  68.575  1.00  0.00    -0.219 C  
ENDROOT
BRANCH   1   4
HETATM    4  C   UNL     1     -11.860   9.991  71.057  1.00  0.00    -0.386 C  
BRANCH   4   5
HETATM    5  N   UNL     1     -12.520   8.714  70.831  1.00  0.00    -0.490 NA 
HETATM    6  H   UNL     1     -13.424   8.678  70.359  1.00  0.00     0.000 HD 
BRANCH   5   7
HETATM    7  C   UNL     1     -11.958   7.631  71.230  1.00  0.00    -0.306 C  
HETATM    8  H   UNL     1     -11.456   5.693  70.806  1.00  0.00     0.000 HD 
HETATM    9  O   UNL     1     -11.872   6.495  70.510  1.00  0.00    -0.392 OA 
BRANCH   7  10
HETATM   10  C   UNL     1     -11.328   7.488  72.586  1.00  0.00    -0.395 C  
HETATM   11  C   UNL     1      -9.971   6.816  72.493  1.00  0.00    -0.185 C  
ENDBRANCH   7  10
ENDBRANCH   5   7
ENDBRANCH   4   5
ENDBRANCH   1   4
BRANCH   3  12
HETATM   12  C   UNL     1     -10.151   9.240  67.664  1.00  0.00    -0.266 A  
HETATM   13  C   UNL     1      -9.696   7.947  67.994  1.00  0.00    -0.182 A  
HETATM   14  C   UNL     1      -8.920   7.178  67.107  1.00  0.00    -0.129 A  
HETATM   15  C   UNL     1      -8.579   7.680  65.855  1.00  0.00    -0.164 A  
HETATM   16  C   UNL     1      -9.771   9.715  66.409  1.00  0.00    -0.285 A  
HETATM   17  C   UNL     1     -10.090  11.010  65.766  1.00  0.00    -0.305 C  
HETATM   18  C   UNL     1      -9.011   8.948  65.534  1.00  0.00    -0.197 A  
HETATM   19  O   UNL     1      -8.758   9.546  64.331  1.00  0.00    -0.185 OA 
HETATM   20  C   UNL     1      -9.389  10.842  64.417  1.00  0.00    -0.242 C  
ENDBRANCH   3  12
TORSDOF 5
ENDMDL
MODEL      153
REMARK 921   NORMALIZED FREE ENERGY PREDICTED BY IDOCK:   -3.78 KCAL/MOL
REMARK 922        TOTAL FREE ENERGY PREDICTED BY IDOCK:   -5.56 KCAL/MOL
REMARK 923 INTER-LIGAND FREE ENERGY PREDICTED BY IDOCK:   -4.96 KCAL/MOL
REMARK 924 INTRA-LIGAND FREE ENERGY PREDICTED BY IDOCK:   -0.59 KCAL/MOL
REMARK 927      BINDING AFFINITY PREDICTED BY RF-SCORE:    0.00 PKD
ROOT
HETATM    1  C   UNL     1      -8.257  15.605  67.422  1.00  0.00    -0.198 C  
HETATM    2  C   UNL     1      -9.416  15.410  66.485  1.00  0.00    -0.298 C  
HETATM    3  C   UNL     1      -8.488  16.582  66.280  1.00  0.00    -0.363 C  
ENDROOT
BRANCH   1   4
HETATM    4  C   UNL     1      -7.045  14.725  67.385  1.00  0.00    -0.143 C  
BRANCH   4   5
HETATM    5  N   UNL     1      -6.999  13.892  68.578  1.00  0.00    -0.093 NA 
HETATM    6  H   UNL     1      -6.703  14.288  69.470  1.00  0.00     0.000 HD 
BRANCH   5   7
HETATM    7  C   UNL     1      -7.333  12.655  68.499  1.00  0.00    -0.115 C  
HETATM    8  H   UNL     1      -6.952  10.729  69.075  1.00  0.00     0.000 HD 
HETATM    9  O   UNL     1      -6.705  11.644  69.133  1.00  0.00    -0.092 OA 
BRANCH   7  10
HETATM   10  C   UNL     1      -8.478  12.169  67.658  1.00  0.00    -0.163 C  
HETATM   11  C   UNL     1      -9.777  12.175  68.442  1.00  0.00    -0.193 C  
ENDBRANCH   7  10
ENDBRANCH   5   7
ENDBRANCH   4   5
ENDBRANCH   1   4
BRANCH   3  12
HETATM   12  C   UNL     1      -8.927  18.003  66.544  1.00  0.00    -0.280 A  
HETATM   13  C   UNL     1     -10.288  18.327  66.719  1.00  0.00    -0.403 A  
HETATM   14  C   UNL     1     -10.707  19.619  67.084  1.00  0.00    -0.587 A  
HETATM   15  C   UNL     1      -9.774  20.630  67.290  1.00  0.00    -0.562 A  
HETATM   16  C   UNL     1      -8.024  19.048  66.740  1.00  0.00    -0.270 A  
HETATM   17  C   UNL     1      -6.547  19.034  66.644  1.00  0.00    -0.205 C  
HETATM   18  C   UNL     1      -8.444  20.320  67.107  1.00  0.00    -0.339 A  
HETATM   19  O   UNL     1      -7.430  21.219  67.295  1.00  0.00    -0.449 OA 
HETATM   20  C   UNL     1      -6.221  20.484  67.007  1.00  0.00    -0.212 C  
ENDBRANCH   3  12
TORSDOF 5
ENDMDL
MODEL      154
REMARK 921   NORMALIZED FREE ENERGY PREDICTED BY IDOCK:   -3.74 KCAL/MOL
REMARK 922        TOTAL FREE ENERGY PREDICTED BY IDOCK:   -5.51 KCAL/MOL
REMARK 923 INTER-LIGAND FREE ENERGY PREDICTED BY IDOCK:   -4.89 KCAL/MOL
REMARK 924 INTRA-LIGAND FREE ENERGY PREDICTED BY IDOCK:   -0.62 KCAL/MOL
REMARK 927      BINDING AFFINITY PREDICTED BY RF-SCORE:    0.00 PKD
ROOT
HETATM    1  C   UNL     1     -10.164   7.944  70.451  1.00  0.00    -0.197 C  
HETATM    2  C   UNL     1     -10.707   8.517  69.172  1.00  0.00    -0.128 C  
HETATM    3  C   UNL     1     -11.110   7.125  69.589  1.00  0.00    -0.206 C  
ENDROOT
BRANCH   1   4
HETATM    4  C   UNL     1     -10.632   8.410  71.796  1.00  0.00    -0.282 C  
BRANCH   4   5
HETATM    5  N   UNL     1     -11.277   9.710  71.675  1.00  0.00    -0.325 NA 
HETATM    6  H   UNL     1     -10.718  10.548  71.516  1.00  0.00     0.000 HD 
BRANCH   5   7
HETATM    7  C   UNL     1     -12.554   9.794  71.769  1.00  0.00    -0.416 C  
HETATM    8  H   UNL     1     -14.255  10.810  71.259  1.00  0.00     0.000 HD 
HETATM    9  O   UNL     1     -13.310  10.748  71.189  1.00  0.00    -0.247 OA 
BRANCH   7  10
HETATM   10  C   UNL     1     -13.380   8.831  72.572  1.00  0.00    -0.403 C  
HETATM   11  C   UNL     1     -14.347   8.066  71.686  1.00  0.00    -0.581 C  
ENDBRANCH   7  10
ENDBRANCH   5   7
ENDBRANCH   4   5
ENDBRANCH   1   4
BRANCH   3  12
HETATM   12  C   UNL     1     -10.629   5.899  68.848  1.00  0.00    -0.357 A  
HETATM   13  C   UNL     1     -10.631   5.850  67.439  1.00  0.00    -0.356 A  
HETATM   14  C   UNL     1     -10.078   4.769  66.728  1.00  0.00    -0.261 A  
HETATM   15  C   UNL     1      -9.498   3.703  67.409  1.00  0.00    -0.238 A  
HETATM   16  C   UNL     1     -10.057   4.803  69.493  1.00  0.00    -0.260 A  
HETATM   17  C   UNL     1      -9.890   4.556  70.943  1.00  0.00    -0.269 C  
HETATM   18  C   UNL     1      -9.505   3.742  68.786  1.00  0.00    -0.151 A  
HETATM   19  O   UNL     1      -8.952   2.766  69.568  1.00  0.00    -0.084 OA 
HETATM   20  C   UNL     1      -9.174   3.206  70.926  1.00  0.00    -0.132 C  
ENDBRANCH   3  12
TORSDOF 5
ENDMDL
MODEL      155
REMARK 921   NORMALIZED FREE ENERGY PREDICTED BY IDOCK:   -3.74 KCAL/MOL
REMARK 922        TOTAL FREE ENERGY PREDICTED BY IDOCK:   -5.51 KCAL/MOL
REMARK 923 INTER-LIGAND FREE ENERGY PREDICTED BY IDOCK:   -4.95 KCAL/MOL
REMARK 924 INTRA-LIGAND FREE ENERGY PREDICTED BY IDOCK:   -0.56 KCAL/MOL
REMARK 927      BINDING AFFINITY PREDICTED BY RF-SCORE:    0.00 PKD
ROOT
HETATM    1  C   UNL     1      -8.581   6.403  71.581  1.00  0.00    -0.129 C  
HETATM    2  C   UNL     1      -8.203   7.245  72.767  1.00  0.00    -0.125 C  
HETATM    3  C   UNL     1      -9.603   7.332  72.215  1.00  0.00    -0.173 C  
ENDROOT
BRANCH   1   4
HETATM    4  C   UNL     1      -8.786   4.922  71.688  1.00  0.00    -0.127 C  
BRANCH   4   5
HETATM    5  N   UNL     1     -10.009   4.538  70.999  1.00  0.00    -0.199 NA 
HETATM    6  H   UNL     1     -10.682   3.919  71.451  1.00  0.00     0.000 HD 
BRANCH   5   7
HETATM    7  C   UNL     1     -10.236   4.984  69.817  1.00  0.00    -0.266 C  
HETATM    8  H   UNL     1     -11.332   6.241  68.632  1.00  0.00     0.000 HD 
HETATM    9  O   UNL     1     -11.164   5.911  69.507  1.00  0.00    -0.389 OA 
BRANCH   7  10
HETATM   10  C   UNL     1      -9.491   4.504  68.604  1.00  0.00    -0.220 C  
HETATM   11  C   UNL     1      -9.445   2.989  68.552  1.00  0.00    -0.204 C  
ENDBRANCH   7  10
ENDBRANCH   5   7
ENDBRANCH   4   5
ENDBRANCH   1   4
BRANCH   3  12
HETATM   12  C   UNL     1     -10.101   8.559  71.488  1.00  0.00    -0.315 A  
HETATM   13  C   UNL     1      -9.307   9.205  70.518  1.00  0.00    -0.287 A  
HETATM   14  C   UNL     1      -9.794  10.275  69.745  1.00  0.00    -0.201 A  
HETATM   15  C   UNL     1     -11.098  10.729  69.915  1.00  0.00    -0.339 A  
HETATM   16  C   UNL     1     -11.395   9.056  71.642  1.00  0.00    -0.430 A  
HETATM   17  C   UNL     1     -12.467   8.598  72.554  1.00  0.00    -0.372 C  
HETATM   18  C   UNL     1     -11.873  10.107  70.870  1.00  0.00    -0.374 A  
HETATM   19  O   UNL     1     -13.174  10.448  71.120  1.00  0.00    -0.373 OA 
HETATM   20  C   UNL     1     -13.598   9.554  72.172  1.00  0.00    -0.424 C  
ENDBRANCH   3  12
TORSDOF 5
ENDMDL
MODEL      156
REMARK 921   NORMALIZED FREE ENERGY PREDICTED BY IDOCK:   -3.72 KCAL/MOL
REMARK 922        TOTAL FREE ENERGY PREDICTED BY IDOCK:   -5.49 KCAL/MOL
REMARK 923 INTER-LIGAND FREE ENERGY PREDICTED BY IDOCK:   -5.63 KCAL/MOL
REMARK 924 INTRA-LIGAND FREE ENERGY PREDICTED BY IDOCK:    0.14 KCAL/MOL
REMARK 927      BINDING AFFINITY PREDICTED BY RF-SCORE:    0.00 PKD
ROOT
HETATM    1  C   UNL     1      -9.130  15.916  67.360  1.00  0.00    -0.205 C  
HETATM    2  C   UNL     1      -9.397  14.902  68.437  1.00  0.00    -0.197 C  
HETATM    3  C   UNL     1      -8.915  14.437  67.086  1.00  0.00    -0.245 C  
ENDROOT
BRANCH   1   4
HETATM    4  C   UNL     1      -7.938  16.825  67.398  1.00  0.00    -0.170 C  
BRANCH   4   5
HETATM    5  N   UNL     1      -7.609  17.271  66.052  1.00  0.00    -0.444 NA 
HETATM    6  H   UNL     1      -7.580  16.603  65.282  1.00  0.00     0.000 HD 
BRANCH   5   7
HETATM    7  C   UNL     1      -7.356  18.511  65.841  1.00  0.00    -0.207 C  
HETATM    8  H   UNL     1      -7.920  20.457  66.130  1.00  0.00     0.000 HD 
HETATM    9  O   UNL     1      -8.107  19.538  66.286  1.00  0.00    -0.309 OA 
BRANCH   7  10
HETATM   10  C   UNL     1      -6.177  18.980  65.038  1.00  0.00    -0.307 C  
HETATM   11  C   UNL     1      -6.329  20.436  64.638  1.00  0.00    -0.342 C  
ENDBRANCH   7  10
ENDBRANCH   5   7
ENDBRANCH   4   5
ENDBRANCH   1   4
BRANCH   3  12
HETATM   12  C   UNL     1      -9.812  13.679  66.136  1.00  0.00    -0.304 A  
HETATM   13  C   UNL     1      -9.800  12.270  66.086  1.00  0.00    -0.257 A  
HETATM   14  C   UNL     1     -10.709  11.542  65.297  1.00  0.00    -0.337 A  
HETATM   15  C   UNL     1     -11.666  12.205  64.534  1.00  0.00    -0.410 A  
HETATM   16  C   UNL     1     -10.772  14.306  65.342  1.00  0.00    -0.353 A  
HETATM   17  C   UNL     1     -11.050  15.751  65.180  1.00  0.00    -0.332 C  
HETATM   18  C   UNL     1     -11.672  13.582  64.571  1.00  0.00    -0.397 A  
HETATM   19  O   UNL     1     -12.572  14.348  63.881  1.00  0.00    -0.814 OA 
HETATM   20  C   UNL     1     -12.227  15.712  64.205  1.00  0.00    -0.002 C  
ENDBRANCH   3  12
TORSDOF 5
ENDMDL
MODEL      157
REMARK 921   NORMALIZED FREE ENERGY PREDICTED BY IDOCK:   -3.71 KCAL/MOL
REMARK 922        TOTAL FREE ENERGY PREDICTED BY IDOCK:   -5.46 KCAL/MOL
REMARK 923 INTER-LIGAND FREE ENERGY PREDICTED BY IDOCK:   -5.04 KCAL/MOL
REMARK 924 INTRA-LIGAND FREE ENERGY PREDICTED BY IDOCK:   -0.43 KCAL/MOL
REMARK 927      BINDING AFFINITY PREDICTED BY RF-SCORE:    0.00 PKD
ROOT
HETATM    1  C   UNL     1     -10.412  11.184  67.378  1.00  0.00    -0.255 C  
HETATM    2  C   UNL     1     -11.385  12.249  66.957  1.00  0.00    -0.395 C  
HETATM    3  C   UNL     1     -10.880  12.229  68.377  1.00  0.00    -0.257 C  
ENDROOT
BRANCH   1   4
HETATM    4  C   UNL     1      -8.979  11.195  66.939  1.00  0.00    -0.161 C  
BRANCH   4   5
HETATM    5  N   UNL     1      -8.766  10.189  65.909  1.00  0.00    -0.141 NA 
HETATM    6  H   UNL     1      -9.539   9.601  65.597  1.00  0.00     0.000 HD 
BRANCH   5   7
HETATM    7  C   UNL     1      -7.599  10.046  65.395  1.00  0.00    -0.138 C  
HETATM    8  H   UNL     1      -6.292  10.581  63.914  1.00  0.00     0.000 HD 
HETATM    9  O   UNL     1      -7.156  10.687  64.295  1.00  0.00     0.052 OA 
BRANCH   7  10
HETATM   10  C   UNL     1      -6.565   9.114  65.958  1.00  0.00    -0.069 C  
HETATM   11  C   UNL     1      -7.206   7.858  66.521  1.00  0.00    -0.083 C  
ENDBRANCH   7  10
ENDBRANCH   5   7
ENDBRANCH   4   5
ENDBRANCH   1   4
BRANCH   3  12
HETATM   12  C   UNL     1     -11.774  11.855  69.537  1.00  0.00    -0.410 A  
HETATM   13  C   UNL     1     -12.091  10.509  69.811  1.00  0.00    -0.285 A  
HETATM   14  C   UNL     1     -12.820  10.130  70.953  1.00  0.00    -0.442 A  
HETATM   15  C   UNL     1     -13.252  11.091  71.862  1.00  0.00    -0.503 A  
HETATM   16  C   UNL     1     -12.241  12.789  70.462  1.00  0.00    -0.389 A  
HETATM   17  C   UNL     1     -12.071  14.260  70.469  1.00  0.00    -0.413 C  
HETATM   18  C   UNL     1     -12.954  12.409  71.591  1.00  0.00    -0.305 A  
HETATM   19  O   UNL     1     -13.306  13.443  72.414  1.00  0.00    -0.508 OA 
HETATM   20  C   UNL     1     -12.799  14.627  71.763  1.00  0.00    -0.332 C  
ENDBRANCH   3  12
TORSDOF 5
ENDMDL
MODEL      158
REMARK 921   NORMALIZED FREE ENERGY PREDICTED BY IDOCK:   -3.70 KCAL/MOL
REMARK 922        TOTAL FREE ENERGY PREDICTED BY IDOCK:   -5.46 KCAL/MOL
REMARK 923 INTER-LIGAND FREE ENERGY PREDICTED BY IDOCK:   -5.78 KCAL/MOL
REMARK 924 INTRA-LIGAND FREE ENERGY PREDICTED BY IDOCK:    0.32 KCAL/MOL
REMARK 927      BINDING AFFINITY PREDICTED BY RF-SCORE:    0.00 PKD
ROOT
HETATM    1  C   UNL     1     -10.607  11.400  68.807  1.00  0.00    -0.235 C  
HETATM    2  C   UNL     1     -12.019  11.831  69.087  1.00  0.00    -0.356 C  
HETATM    3  C   UNL     1     -11.601  11.548  67.666  1.00  0.00    -0.320 C  
ENDROOT
BRANCH   1   4
HETATM    4  C   UNL     1     -10.107  10.031  69.156  1.00  0.00    -0.208 C  
BRANCH   4   5
HETATM    5  N   UNL     1     -10.733   9.038  68.295  1.00  0.00    -0.419 NA 
HETATM    6  H   UNL     1     -11.593   9.261  67.794  1.00  0.00     0.000 HD 
BRANCH   5   7
HETATM    7  C   UNL     1     -10.195   7.880  68.170  1.00  0.00    -0.205 C  
HETATM    8  H   UNL     1      -8.534   6.799  67.657  1.00  0.00     0.000 HD 
HETATM    9  O   UNL     1      -8.933   7.656  67.750  1.00  0.00    -0.131 OA 
BRANCH   7  10
HETATM   10  C   UNL     1     -10.926   6.601  68.464  1.00  0.00    -0.314 C  
HETATM   11  C   UNL     1     -11.387   6.552  69.908  1.00  0.00    -0.469 C  
ENDBRANCH   7  10
ENDBRANCH   5   7
ENDBRANCH   4   5
ENDBRANCH   1   4
BRANCH   3  12
HETATM   12  C   UNL     1     -11.457  12.649  66.642  1.00  0.00    -0.409 A  
HETATM   13  C   UNL     1     -12.068  12.553  65.375  1.00  0.00    -0.494 A  
HETATM   14  C   UNL     1     -12.048  13.615  64.453  1.00  0.00    -0.470 A  
HETATM   15  C   UNL     1     -11.416  14.813  64.773  1.00  0.00    -0.410 A  
HETATM   16  C   UNL     1     -10.818  13.858  66.917  1.00  0.00    -0.286 A  
HETATM   17  C   UNL     1     -10.101  14.276  68.143  1.00  0.00    -0.232 C  
HETATM   18  C   UNL     1     -10.808  14.906  66.006  1.00  0.00    -0.328 A  
HETATM   19  O   UNL     1     -10.171  16.034  66.446  1.00  0.00    -0.279 OA 
HETATM   20  C   UNL     1      -9.693  15.701  67.767  1.00  0.00    -0.218 C  
ENDBRANCH   3  12
TORSDOF 5
ENDMDL
MODEL      159
REMARK 921   NORMALIZED FREE ENERGY PREDICTED BY IDOCK:   -3.70 KCAL/MOL
REMARK 922        TOTAL FREE ENERGY PREDICTED BY IDOCK:   -5.46 KCAL/MOL
REMARK 923 INTER-LIGAND FREE ENERGY PREDICTED BY IDOCK:   -5.00 KCAL/MOL
REMARK 924 INTRA-LIGAND FREE ENERGY PREDICTED BY IDOCK:   -0.46 KCAL/MOL
REMARK 927      BINDING AFFINITY PREDICTED BY RF-SCORE:    0.00 PKD
ROOT
HETATM    1  C   UNL     1     -10.965   6.832  67.114  1.00  0.00    -0.458 C  
HETATM    2  C   UNL     1     -10.190   8.057  66.717  1.00  0.00    -0.367 C  
HETATM    3  C   UNL     1     -10.014   7.488  68.102  1.00  0.00    -0.198 C  
ENDROOT
BRANCH   1   4
HETATM    4  C   UNL     1     -10.630   5.471  66.585  1.00  0.00    -0.299 C  
BRANCH   4   5
HETATM    5  N   UNL     1      -9.722   5.587  65.453  1.00  0.00    -0.355 NA 
HETATM    6  H   UNL     1      -9.448   6.506  65.106  1.00  0.00     0.000 HD 
BRANCH   5   7
HETATM    7  C   UNL     1      -9.266   4.525  64.896  1.00  0.00    -0.156 C  
HETATM    8  H   UNL     1      -7.911   2.992  64.960  1.00  0.00     0.000 HD 
HETATM    9  O   UNL     1      -8.249   3.779  65.372  1.00  0.00    -0.100 OA 
BRANCH   7  10
HETATM   10  C   UNL     1      -9.810   3.979  63.607  1.00  0.00    -0.143 C  
HETATM   11  C   UNL     1     -10.071   2.488  63.708  1.00  0.00    -0.144 C  
ENDBRANCH   7  10
ENDBRANCH   5   7
ENDBRANCH   4   5
ENDBRANCH   1   4
BRANCH   3  12
HETATM   12  C   UNL     1     -10.532   8.200  69.330  1.00  0.00    -0.221 A  
HETATM   13  C   UNL     1     -10.718   9.598  69.340  1.00  0.00    -0.248 A  
HETATM   14  C   UNL     1     -11.311  10.265  70.427  1.00  0.00    -0.410 A  
HETATM   15  C   UNL     1     -11.741   9.551  71.541  1.00  0.00    -0.472 A  
HETATM   16  C   UNL     1     -10.958   7.523  70.473  1.00  0.00    -0.266 A  
HETATM   17  C   UNL     1     -10.914   6.073  70.768  1.00  0.00    -0.364 C  
HETATM   18  C   UNL     1     -11.549   8.187  71.540  1.00  0.00    -0.275 A  
HETATM   19  O   UNL     1     -11.943   7.372  72.566  1.00  0.00    -0.235 OA 
HETATM   20  C   UNL     1     -11.561   6.042  72.154  1.00  0.00    -0.293 C  
ENDBRANCH   3  12
TORSDOF 5
ENDMDL
MODEL      160
REMARK 921   NORMALIZED FREE ENERGY PREDICTED BY IDOCK:   -3.68 KCAL/MOL
REMARK 922        TOTAL FREE ENERGY PREDICTED BY IDOCK:   -5.43 KCAL/MOL
REMARK 923 INTER-LIGAND FREE ENERGY PREDICTED BY IDOCK:   -5.31 KCAL/MOL
REMARK 924 INTRA-LIGAND FREE ENERGY PREDICTED BY IDOCK:   -0.11 KCAL/MOL
REMARK 927      BINDING AFFINITY PREDICTED BY RF-SCORE:    0.00 PKD
ROOT
HETATM    1  C   UNL     1     -10.979  12.178  66.992  1.00  0.00    -0.319 C  
HETATM    2  C   UNL     1     -11.673  12.882  68.124  1.00  0.00    -0.395 C  
HETATM    3  C   UNL     1     -10.367  12.176  68.383  1.00  0.00    -0.236 C  
ENDROOT
BRANCH   1   4
HETATM    4  C   UNL     1     -10.281  12.925  65.896  1.00  0.00    -0.290 C  
BRANCH   4   5
HETATM    5  N   UNL     1      -9.082  12.207  65.490  1.00  0.00    -0.419 NA 
HETATM    6  H   UNL     1      -8.162  12.627  65.623  1.00  0.00     0.000 HD 
BRANCH   5   7
HETATM    7  C   UNL     1      -9.190  11.042  64.964  1.00  0.00    -0.197 C  
HETATM    8  H   UNL     1     -10.261   9.795  63.744  1.00  0.00     0.000 HD 
HETATM    9  O   UNL     1     -10.181  10.658  64.134  1.00  0.00    -0.347 OA 
BRANCH   7  10
HETATM   10  C   UNL     1      -8.214   9.931  65.228  1.00  0.00    -0.145 C  
HETATM   11  C   UNL     1      -6.993  10.048  64.335  1.00  0.00    -0.129 C  
ENDBRANCH   7  10
ENDBRANCH   5   7
ENDBRANCH   4   5
ENDBRANCH   1   4
BRANCH   3  12
HETATM   12  C   UNL     1     -10.292  10.910  69.203  1.00  0.00    -0.228 A  
HETATM   13  C   UNL     1      -9.178  10.050  69.120  1.00  0.00    -0.196 A  
HETATM   14  C   UNL     1      -9.032   8.931  69.961  1.00  0.00    -0.172 A  
HETATM   15  C   UNL     1     -10.000   8.640  70.917  1.00  0.00    -0.257 A  
HETATM   16  C   UNL     1     -11.249  10.572  70.160  1.00  0.00    -0.389 A  
HETATM   17  C   UNL     1     -12.512  11.265  70.502  1.00  0.00    -0.398 C  
HETATM   18  C   UNL     1     -11.096   9.470  70.992  1.00  0.00    -0.363 A  
HETATM   19  O   UNL     1     -12.106   9.302  71.900  1.00  0.00    -0.359 OA 
HETATM   20  C   UNL     1     -13.029  10.380  71.636  1.00  0.00    -0.475 C  
ENDBRANCH   3  12
TORSDOF 5
ENDMDL
MODEL      161
REMARK 921   NORMALIZED FREE ENERGY PREDICTED BY IDOCK:   -3.67 KCAL/MOL
REMARK 922        TOTAL FREE ENERGY PREDICTED BY IDOCK:   -5.41 KCAL/MOL
REMARK 923 INTER-LIGAND FREE ENERGY PREDICTED BY IDOCK:   -5.07 KCAL/MOL
REMARK 924 INTRA-LIGAND FREE ENERGY PREDICTED BY IDOCK:   -0.34 KCAL/MOL
REMARK 927      BINDING AFFINITY PREDICTED BY RF-SCORE:    0.00 PKD
ROOT
HETATM    1  C   UNL     1      -8.806  14.266  68.090  1.00  0.00    -0.183 C  
HETATM    2  C   UNL     1      -9.357  12.879  67.908  1.00  0.00    -0.208 C  
HETATM    3  C   UNL     1      -9.093  13.735  66.695  1.00  0.00    -0.196 C  
ENDROOT
BRANCH   1   4
HETATM    4  C   UNL     1      -7.383  14.512  68.491  1.00  0.00    -0.120 C  
BRANCH   4   5
HETATM    5  N   UNL     1      -7.322  15.581  69.477  1.00  0.00    -0.211 NA 
HETATM    6  H   UNL     1      -7.336  15.364  70.473  1.00  0.00     0.000 HD 
BRANCH   5   7
HETATM    7  C   UNL     1      -7.250  16.801  69.084  1.00  0.00    -0.214 C  
HETATM    8  H   UNL     1      -8.168  18.357  68.122  1.00  0.00     0.000 HD 
HETATM    9  O   UNL     1      -8.221  17.454  68.414  1.00  0.00    -0.244 OA 
BRANCH   7  10
HETATM   10  C   UNL     1      -6.042  17.664  69.310  1.00  0.00    -0.233 C  
HETATM   11  C   UNL     1      -5.274  17.222  70.541  1.00  0.00    -0.261 C  
ENDBRANCH   7  10
ENDBRANCH   5   7
ENDBRANCH   4   5
ENDBRANCH   1   4
BRANCH   3  12
HETATM   12  C   UNL     1     -10.216  14.303  65.859  1.00  0.00    -0.338 A  
HETATM   13  C   UNL     1     -10.409  15.695  65.743  1.00  0.00    -0.386 A  
HETATM   14  C   UNL     1     -11.370  16.247  64.877  1.00  0.00    -0.161 A  
HETATM   15  C   UNL     1     -12.168  15.419  64.093  1.00  0.00    -0.075 A  
HETATM   16  C   UNL     1     -11.048  13.507  65.071  1.00  0.00    -0.338 A  
HETATM   17  C   UNL     1     -11.090  12.032  64.955  1.00  0.00    -0.368 C  
HETATM   18  C   UNL     1     -11.990  14.058  64.212  1.00  0.00    -0.435 A  
HETATM   19  O   UNL     1     -12.697  13.141  63.484  1.00  0.00    -0.711 OA 
HETATM   20  C   UNL     1     -12.196  11.857  63.912  1.00  0.00    -0.392 C  
ENDBRANCH   3  12
TORSDOF 5
ENDMDL
MODEL      162
REMARK 921   NORMALIZED FREE ENERGY PREDICTED BY IDOCK:   -3.65 KCAL/MOL
REMARK 922        TOTAL FREE ENERGY PREDICTED BY IDOCK:   -5.39 KCAL/MOL
REMARK 923 INTER-LIGAND FREE ENERGY PREDICTED BY IDOCK:   -4.87 KCAL/MOL
REMARK 924 INTRA-LIGAND FREE ENERGY PREDICTED BY IDOCK:   -0.52 KCAL/MOL
REMARK 927      BINDING AFFINITY PREDICTED BY RF-SCORE:    0.00 PKD
ROOT
HETATM    1  C   UNL     1     -12.089  12.310  68.531  1.00  0.00    -0.124 C  
HETATM    2  C   UNL     1     -12.266  11.795  69.932  1.00  0.00    -0.293 C  
HETATM    3  C   UNL     1     -10.976  11.522  69.200  1.00  0.00    -0.276 C  
ENDROOT
BRANCH   1   4
HETATM    4  C   UNL     1     -11.870  13.763  68.237  1.00  0.00    -0.378 C  
BRANCH   4   5
HETATM    5  N   UNL     1     -12.164  14.560  69.420  1.00  0.00    -0.497 NA 
HETATM    6  H   UNL     1     -12.882  14.258  70.077  1.00  0.00     0.000 HD 
BRANCH   5   7
HETATM    7  C   UNL     1     -11.512  15.645  69.629  1.00  0.00    -0.340 C  
HETATM    8  H   UNL     1     -11.177  17.242  70.865  1.00  0.00     0.000 HD 
HETATM    9  O   UNL     1     -11.660  16.438  70.710  1.00  0.00    -0.334 OA 
BRANCH   7  10
HETATM   10  C   UNL     1     -10.495  16.188  68.667  1.00  0.00    -0.269 C  
HETATM   11  C   UNL     1     -10.408  17.700  68.754  1.00  0.00    -0.348 C  
ENDBRANCH   7  10
ENDBRANCH   5   7
ENDBRANCH   4   5
ENDBRANCH   1   4
BRANCH   3  12
HETATM   12  C   UNL     1     -10.606  10.136  68.726  1.00  0.00    -0.236 A  
HETATM   13  C   UNL     1     -10.827   9.737  67.392  1.00  0.00    -0.265 A  
HETATM   14  C   UNL     1     -10.382   8.497  66.899  1.00  0.00    -0.367 A  
HETATM   15  C   UNL     1      -9.694   7.616  67.728  1.00  0.00    -0.180 A  
HETATM   16  C   UNL     1      -9.931   9.218  69.530  1.00  0.00    -0.194 A  
HETATM   17  C   UNL     1      -9.538   9.335  70.953  1.00  0.00    -0.339 C  
HETATM   18  C   UNL     1      -9.487   7.998  69.036  1.00  0.00    -0.151 A  
HETATM   19  O   UNL     1      -8.810   7.231  69.944  1.00  0.00    -0.141 OA 
HETATM   20  C   UNL     1      -8.821   8.001  71.165  1.00  0.00    -0.140 C  
ENDBRANCH   3  12
TORSDOF 5
ENDMDL
MODEL      163
REMARK 921   NORMALIZED FREE ENERGY PREDICTED BY IDOCK:   -3.65 KCAL/MOL
REMARK 922        TOTAL FREE ENERGY PREDICTED BY IDOCK:   -5.39 KCAL/MOL
REMARK 923 INTER-LIGAND FREE ENERGY PREDICTED BY IDOCK:   -4.84 KCAL/MOL
REMARK 924 INTRA-LIGAND FREE ENERGY PREDICTED BY IDOCK:   -0.55 KCAL/MOL
REMARK 927      BINDING AFFINITY PREDICTED BY RF-SCORE:    0.00 PKD
ROOT
HETATM    1  C   UNL     1     -11.256  12.526  68.858  1.00  0.00    -0.330 C  
HETATM    2  C   UNL     1     -11.678  11.476  67.869  1.00  0.00    -0.317 C  
HETATM    3  C   UNL     1     -11.189  11.055  69.232  1.00  0.00    -0.321 C  
ENDROOT
BRANCH   1   4
HETATM    4  C   UNL     1     -12.248  13.406  69.558  1.00  0.00    -0.205 C  
BRANCH   4   5
HETATM    5  N   UNL     1     -11.813  13.656  70.925  1.00  0.00    -0.492 NA 
HETATM    6  H   UNL     1     -10.832  13.853  71.124  1.00  0.00     0.000 HD 
BRANCH   5   7
HETATM    7  C   UNL     1     -12.672  13.626  71.877  1.00  0.00    -0.228 C  
HETATM    8  H   UNL     1     -14.248  12.651  72.745  1.00  0.00     0.000 HD 
HETATM    9  O   UNL     1     -13.612  12.673  72.040  1.00  0.00    -0.456 OA 
BRANCH   7  10
HETATM   10  C   UNL     1     -12.752  14.683  72.941  1.00  0.00    -0.506 C  
HETATM   11  C   UNL     1     -12.150  15.991  72.461  1.00  0.00    -0.635 C  
ENDBRANCH   7  10
ENDBRANCH   5   7
ENDBRANCH   4   5
ENDBRANCH   1   4
BRANCH   3  12
HETATM   12  C   UNL     1      -9.863  10.357  69.425  1.00  0.00    -0.235 A  
HETATM   13  C   UNL     1      -8.645  11.026  69.188  1.00  0.00    -0.009 A  
HETATM   14  C   UNL     1      -7.400  10.436  69.475  1.00  0.00    -0.144 A  
HETATM   15  C   UNL     1      -7.337   9.155  70.015  1.00  0.00    -0.070 A  
HETATM   16  C   UNL     1      -9.757   9.069  69.948  1.00  0.00    -0.194 A  
HETATM   17  C   UNL     1     -10.831   8.119  70.314  1.00  0.00    -0.244 C  
HETATM   18  C   UNL     1      -8.525   8.494  70.237  1.00  0.00    -0.128 A  
HETATM   19  O   UNL     1      -8.598   7.241  70.779  1.00  0.00    -0.141 OA 
HETATM   20  C   UNL     1     -10.009   6.941  70.839  1.00  0.00    -0.189 C  
ENDBRANCH   3  12
TORSDOF 5
ENDMDL
MODEL      164
REMARK 921   NORMALIZED FREE ENERGY PREDICTED BY IDOCK:   -3.65 KCAL/MOL
REMARK 922        TOTAL FREE ENERGY PREDICTED BY IDOCK:   -5.39 KCAL/MOL
REMARK 923 INTER-LIGAND FREE ENERGY PREDICTED BY IDOCK:   -4.88 KCAL/MOL
REMARK 924 INTRA-LIGAND FREE ENERGY PREDICTED BY IDOCK:   -0.51 KCAL/MOL
REMARK 927      BINDING AFFINITY PREDICTED BY RF-SCORE:    0.00 PKD
ROOT
HETATM    1  C   UNL     1     -10.497  13.470  65.832  1.00  0.00    -0.292 C  
HETATM    2  C   UNL     1     -11.579  14.126  66.643  1.00  0.00    -0.399 C  
HETATM    3  C   UNL     1     -10.590  14.985  65.897  1.00  0.00    -0.338 C  
ENDROOT
BRANCH   1   4
HETATM    4  C   UNL     1     -10.782  12.784  64.531  1.00  0.00    -0.358 C  
BRANCH   4   5
HETATM    5  N   UNL     1     -10.597  11.347  64.674  1.00  0.00    -0.305 NA 
HETATM    6  H   UNL     1     -11.400  10.738  64.830  1.00  0.00     0.000 HD 
BRANCH   5   7
HETATM    7  C   UNL     1      -9.415  10.852  64.604  1.00  0.00    -0.244 C  
HETATM    8  H   UNL     1      -7.869  10.251  63.405  1.00  0.00     0.000 HD 
HETATM    9  O   UNL     1      -8.744  10.618  63.458  1.00  0.00    -0.176 OA 
BRANCH   7  10
HETATM   10  C   UNL     1      -8.624  10.445  65.814  1.00  0.00    -0.172 C  
HETATM   11  C   UNL     1      -9.338   9.360  66.597  1.00  0.00    -0.211 C  
ENDBRANCH   7  10
ENDBRANCH   5   7
ENDBRANCH   4   5
ENDBRANCH   1   4
BRANCH   3  12
HETATM   12  C   UNL     1      -9.541  15.802  66.615  1.00  0.00    -0.266 A  
HETATM   13  C   UNL     1      -8.459  15.184  67.275  1.00  0.00    -0.220 A  
HETATM   14  C   UNL     1      -7.409  15.926  67.846  1.00  0.00    -0.148 A  
HETATM   15  C   UNL     1      -7.407  17.316  67.768  1.00  0.00    -0.180 A  
HETATM   16  C   UNL     1      -9.512  17.196  66.576  1.00  0.00    -0.290 A  
HETATM   17  C   UNL     1     -10.478  18.132  65.958  1.00  0.00    -0.346 C  
HETATM   18  C   UNL     1      -8.468  17.923  67.134  1.00  0.00    -0.233 A  
HETATM   19  O   UNL     1      -8.574  19.278  66.977  1.00  0.00    -0.272 OA 
HETATM   20  C   UNL     1      -9.814  19.476  66.265  1.00  0.00    -0.429 C  
ENDBRANCH   3  12
TORSDOF 5
ENDMDL
MODEL      165
REMARK 921   NORMALIZED FREE ENERGY PREDICTED BY IDOCK:   -3.64 KCAL/MOL
REMARK 922        TOTAL FREE ENERGY PREDICTED BY IDOCK:   -5.38 KCAL/MOL
REMARK 923 INTER-LIGAND FREE ENERGY PREDICTED BY IDOCK:   -4.89 KCAL/MOL
REMARK 924 INTRA-LIGAND FREE ENERGY PREDICTED BY IDOCK:   -0.49 KCAL/MOL
REMARK 927      BINDING AFFINITY PREDICTED BY RF-SCORE:    0.00 PKD
ROOT
HETATM    1  C   UNL     1     -10.179   7.881  71.950  1.00  0.00    -0.258 C  
HETATM    2  C   UNL     1     -11.400   7.603  72.781  1.00  0.00    -0.419 C  
HETATM    3  C   UNL     1     -11.564   8.157  71.388  1.00  0.00    -0.314 C  
ENDROOT
BRANCH   1   4
HETATM    4  C   UNL     1      -9.359   6.782  71.346  1.00  0.00    -0.157 C  
BRANCH   4   5
HETATM    5  N   UNL     1      -8.061   7.297  70.934  1.00  0.00    -0.105 NA 
HETATM    6  H   UNL     1      -7.521   6.816  70.215  1.00  0.00     0.000 HD 
BRANCH   5   7
HETATM    7  C   UNL     1      -7.601   8.362  71.483  1.00  0.00    -0.101 C  
HETATM    8  H   UNL     1      -7.345  10.388  71.363  1.00  0.00     0.000 HD 
HETATM    9  O   UNL     1      -7.686   9.600  70.957  1.00  0.00    -0.323 OA 
BRANCH   7  10
HETATM   10  C   UNL     1      -6.878   8.357  72.800  1.00  0.00    -0.099 C  
HETATM   11  C   UNL     1      -6.091   7.074  72.989  1.00  0.00    -0.056 C  
ENDBRANCH   7  10
ENDBRANCH   5   7
ENDBRANCH   4   5
ENDBRANCH   1   4
BRANCH   3  12
HETATM   12  C   UNL     1     -12.040   9.568  71.141  1.00  0.00    -0.429 A  
HETATM   13  C   UNL     1     -12.903  10.218  72.047  1.00  0.00    -0.457 A  
HETATM   14  C   UNL     1     -13.263  11.570  71.899  1.00  0.00    -0.479 A  
HETATM   15  C   UNL     1     -12.763  12.318  70.838  1.00  0.00    -0.277 A  
HETATM   16  C   UNL     1     -11.577  10.347  70.080  1.00  0.00    -0.392 A  
HETATM   17  C   UNL     1     -10.661   9.973  68.979  1.00  0.00    -0.244 C  
HETATM   18  C   UNL     1     -11.929  11.684  69.944  1.00  0.00    -0.340 A  
HETATM   19  O   UNL     1     -11.359  12.313  68.871  1.00  0.00    -0.246 OA 
HETATM   20  C   UNL     1     -10.569  11.296  68.218  1.00  0.00    -0.197 C  
ENDBRANCH   3  12
TORSDOF 5
ENDMDL
MODEL      166
REMARK 921   NORMALIZED FREE ENERGY PREDICTED BY IDOCK:   -3.61 KCAL/MOL
REMARK 922        TOTAL FREE ENERGY PREDICTED BY IDOCK:   -5.34 KCAL/MOL
REMARK 923 INTER-LIGAND FREE ENERGY PREDICTED BY IDOCK:   -4.91 KCAL/MOL
REMARK 924 INTRA-LIGAND FREE ENERGY PREDICTED BY IDOCK:   -0.44 KCAL/MOL
REMARK 927      BINDING AFFINITY PREDICTED BY RF-SCORE:    0.00 PKD
ROOT
HETATM    1  C   UNL     1     -11.275  11.506  68.012  1.00  0.00    -0.335 C  
HETATM    2  C   UNL     1     -11.942  11.740  69.338  1.00  0.00    -0.361 C  
HETATM    3  C   UNL     1     -10.700  10.887  69.276  1.00  0.00    -0.271 C  
ENDROOT
BRANCH   1   4
HETATM    4  C   UNL     1     -10.495  12.577  67.312  1.00  0.00    -0.220 C  
BRANCH   4   5
HETATM    5  N   UNL     1     -10.033  12.092  66.020  1.00  0.00    -0.232 NA 
HETATM    6  H   UNL     1      -9.129  11.628  65.939  1.00  0.00     0.000 HD 
BRANCH   5   7
HETATM    7  C   UNL     1     -10.772  12.252  64.983  1.00  0.00    -0.298 C  
HETATM    8  H   UNL     1     -12.617  12.736  64.241  1.00  0.00     0.000 HD 
HETATM    9  O   UNL     1     -12.070  12.617  65.008  1.00  0.00    -0.394 OA 
BRANCH   7  10
HETATM   10  C   UNL     1     -10.276  12.030  63.583  1.00  0.00    -0.470 C  
HETATM   11  C   UNL     1      -9.614  10.672  63.444  1.00  0.00    -0.373 C  
ENDBRANCH   7  10
ENDBRANCH   5   7
ENDBRANCH   4   5
ENDBRANCH   1   4
BRANCH   3  12
HETATM   12  C   UNL     1     -10.743   9.395  69.505  1.00  0.00    -0.238 A  
HETATM   13  C   UNL     1     -11.513   8.838  70.546  1.00  0.00    -0.222 A  
HETATM   14  C   UNL     1     -11.664   7.448  70.703  1.00  0.00    -0.270 A  
HETATM   15  C   UNL     1     -11.049   6.569  69.817  1.00  0.00    -0.430 A  
HETATM   16  C   UNL     1     -10.127   8.481  68.650  1.00  0.00    -0.207 A  
HETATM   17  C   UNL     1      -9.272   8.739  67.469  1.00  0.00    -0.154 C  
HETATM   18  C   UNL     1     -10.286   7.110  68.805  1.00  0.00    -0.179 A  
HETATM   19  O   UNL     1      -9.646   6.355  67.861  1.00  0.00    -0.122 OA 
HETATM   20  C   UNL     1      -8.982   7.310  67.006  1.00  0.00    -0.130 C  
ENDBRANCH   3  12
TORSDOF 5
ENDMDL
MODEL      167
REMARK 921   NORMALIZED FREE ENERGY PREDICTED BY IDOCK:   -3.59 KCAL/MOL
REMARK 922        TOTAL FREE ENERGY PREDICTED BY IDOCK:   -5.32 KCAL/MOL
REMARK 923 INTER-LIGAND FREE ENERGY PREDICTED BY IDOCK:   -5.70 KCAL/MOL
REMARK 924 INTRA-LIGAND FREE ENERGY PREDICTED BY IDOCK:    0.38 KCAL/MOL
REMARK 927      BINDING AFFINITY PREDICTED BY RF-SCORE:    0.00 PKD
ROOT
HETATM    1  C   UNL     1     -11.082  12.156  67.075  1.00  0.00    -0.347 C  
HETATM    2  C   UNL     1     -10.153  12.021  65.901  1.00  0.00    -0.264 C  
HETATM    3  C   UNL     1      -9.811  12.986  67.008  1.00  0.00    -0.238 C  
ENDROOT
BRANCH   1   4
HETATM    4  C   UNL     1     -11.198  11.094  68.126  1.00  0.00    -0.292 C  
BRANCH   4   5
HETATM    5  N   UNL     1     -11.604  11.689  69.391  1.00  0.00    -0.299 NA 
HETATM    6  H   UNL     1     -11.651  12.703  69.491  1.00  0.00     0.000 HD 
BRANCH   5   7
HETATM    7  C   UNL     1     -11.904  10.928  70.380  1.00  0.00    -0.357 C  
HETATM    8  H   UNL     1     -13.340  10.301  71.697  1.00  0.00     0.000 HD 
HETATM    9  O   UNL     1     -13.118  10.864  70.965  1.00  0.00    -0.331 OA 
BRANCH   7  10
HETATM   10  C   UNL     1     -10.914  10.008  71.035  1.00  0.00    -0.267 C  
HETATM   11  C   UNL     1     -11.615   8.936  71.849  1.00  0.00    -0.442 C  
ENDBRANCH   7  10
ENDBRANCH   5   7
ENDBRANCH   4   5
ENDBRANCH   1   4
BRANCH   3  12
HETATM   12  C   UNL     1      -9.864  14.482  66.808  1.00  0.00    -0.271 A  
HETATM   13  C   UNL     1      -9.133  15.357  67.638  1.00  0.00    -0.183 A  
HETATM   14  C   UNL     1      -9.072  16.741  67.396  1.00  0.00    -0.221 A  
HETATM   15  C   UNL     1      -9.740  17.295  66.309  1.00  0.00    -0.282 A  
HETATM   16  C   UNL     1     -10.536  15.079  65.741  1.00  0.00    -0.353 A  
HETATM   17  C   UNL     1     -11.370  14.447  64.694  1.00  0.00    -0.373 C  
HETATM   18  C   UNL     1     -10.466  16.445  65.502  1.00  0.00    -0.330 A  
HETATM   19  O   UNL     1     -11.150  16.863  64.394  1.00  0.00    -1.128 OA 
HETATM   20  C   UNL     1     -11.751  15.666  63.854  1.00  0.00     0.281 C  
ENDBRANCH   3  12
TORSDOF 5
ENDMDL
MODEL      168
REMARK 921   NORMALIZED FREE ENERGY PREDICTED BY IDOCK:   -3.59 KCAL/MOL
REMARK 922        TOTAL FREE ENERGY PREDICTED BY IDOCK:   -5.31 KCAL/MOL
REMARK 923 INTER-LIGAND FREE ENERGY PREDICTED BY IDOCK:   -4.60 KCAL/MOL
REMARK 924 INTRA-LIGAND FREE ENERGY PREDICTED BY IDOCK:   -0.71 KCAL/MOL
REMARK 927      BINDING AFFINITY PREDICTED BY RF-SCORE:    0.00 PKD
ROOT
HETATM    1  C   UNL     1      -9.623   5.905  71.028  1.00  0.00    -0.197 C  
HETATM    2  C   UNL     1     -10.774   5.217  71.708  1.00  0.00    -0.240 C  
HETATM    3  C   UNL     1     -11.052   6.218  70.615  1.00  0.00    -0.389 C  
ENDROOT
BRANCH   1   4
HETATM    4  C   UNL     1      -8.729   5.194  70.058  1.00  0.00    -0.107 C  
BRANCH   4   5
HETATM    5  N   UNL     1      -8.845   5.798  68.739  1.00  0.00    -0.110 NA 
HETATM    6  H   UNL     1      -8.407   6.699  68.546  1.00  0.00     0.000 HD 
BRANCH   5   7
HETATM    7  C   UNL     1      -9.503   5.190  67.820  1.00  0.00    -0.128 C  
HETATM    8  H   UNL     1     -10.197   3.408  67.093  1.00  0.00     0.000 HD 
HETATM    9  O   UNL     1      -9.711   3.859  67.773  1.00  0.00    -0.168 OA 
BRANCH   7  10
HETATM   10  C   UNL     1     -10.118   5.899  66.648  1.00  0.00    -0.229 C  
HETATM   11  C   UNL     1      -9.197   6.980  66.115  1.00  0.00    -0.119 C  
ENDBRANCH   7  10
ENDBRANCH   5   7
ENDBRANCH   4   5
ENDBRANCH   1   4
BRANCH   3  12
HETATM   12  C   UNL     1     -11.672   7.564  70.904  1.00  0.00    -0.307 A  
HETATM   13  C   UNL     1     -12.597   7.732  71.955  1.00  0.00    -0.339 A  
HETATM   14  C   UNL     1     -13.095   8.997  72.318  1.00  0.00    -0.508 A  
HETATM   15  C   UNL     1     -12.677  10.138  71.640  1.00  0.00    -0.549 A  
HETATM   16  C   UNL     1     -11.294   8.729  70.237  1.00  0.00    -0.162 A  
HETATM   17  C   UNL     1     -10.346   8.894  69.112  1.00  0.00    -0.230 C  
HETATM   18  C   UNL     1     -11.783   9.976  70.605  1.00  0.00    -0.337 A  
HETATM   19  O   UNL     1     -11.283  11.019  69.874  1.00  0.00    -0.270 OA 
HETATM   20  C   UNL     1     -10.393  10.410  68.915  1.00  0.00    -0.209 C  
ENDBRANCH   3  12
TORSDOF 5
ENDMDL
MODEL      169
REMARK 921   NORMALIZED FREE ENERGY PREDICTED BY IDOCK:   -3.58 KCAL/MOL
REMARK 922        TOTAL FREE ENERGY PREDICTED BY IDOCK:   -5.31 KCAL/MOL
REMARK 923 INTER-LIGAND FREE ENERGY PREDICTED BY IDOCK:   -4.18 KCAL/MOL
REMARK 924 INTRA-LIGAND FREE ENERGY PREDICTED BY IDOCK:   -1.12 KCAL/MOL
REMARK 927      BINDING AFFINITY PREDICTED BY RF-SCORE:    0.00 PKD
ROOT
HETATM    1  C   UNL     1     -10.060   8.262  72.266  1.00  0.00    -0.370 C  
HETATM    2  C   UNL     1     -11.548   8.158  72.445  1.00  0.00    -0.463 C  
HETATM    3  C   UNL     1     -10.957   8.001  71.067  1.00  0.00    -0.263 C  
ENDROOT
BRANCH   1   4
HETATM    4  C   UNL     1      -9.124   7.182  72.717  1.00  0.00    -0.138 C  
BRANCH   4   5
HETATM    5  N   UNL     1      -7.753   7.541  72.388  1.00  0.00    -0.090 NA 
HETATM    6  H   UNL     1      -7.101   7.812  73.124  1.00  0.00     0.000 HD 
BRANCH   5   7
HETATM    7  C   UNL     1      -7.369   7.515  71.163  1.00  0.00    -0.071 C  
HETATM    8  H   UNL     1      -7.376   6.515  69.378  1.00  0.00     0.000 HD 
HETATM    9  O   UNL     1      -7.660   6.535  70.284  1.00  0.00    -0.092 OA 
BRANCH   7  10
HETATM   10  C   UNL     1      -6.512   8.585  70.551  1.00  0.00    -0.037 C  
HETATM   11  C   UNL     1      -7.293   9.873  70.364  1.00  0.00    -0.139 C  
ENDBRANCH   7  10
ENDBRANCH   5   7
ENDBRANCH   4   5
ENDBRANCH   1   4
BRANCH   3  12
HETATM   12  C   UNL     1     -11.150   9.045  69.992  1.00  0.00    -0.197 A  
HETATM   13  C   UNL     1     -11.637  10.331  70.302  1.00  0.00    -0.396 A  
HETATM   14  C   UNL     1     -11.710  11.354  69.340  1.00  0.00    -0.406 A  
HETATM   15  C   UNL     1     -11.292  11.122  68.033  1.00  0.00    -0.380 A  
HETATM   16  C   UNL     1     -10.759   8.846  68.668  1.00  0.00    -0.118 A  
HETATM   17  C   UNL     1     -10.202   7.631  68.032  1.00  0.00    -0.248 C  
HETATM   18  C   UNL     1     -10.826   9.863  67.724  1.00  0.00    -0.264 A  
HETATM   19  O   UNL     1     -10.370   9.514  66.482  1.00  0.00    -0.242 OA 
HETATM   20  C   UNL     1      -9.981   8.129  66.603  1.00  0.00    -0.269 C  
ENDBRANCH   3  12
TORSDOF 5
ENDMDL
MODEL      170
REMARK 921   NORMALIZED FREE ENERGY PREDICTED BY IDOCK:   -3.58 KCAL/MOL
REMARK 922        TOTAL FREE ENERGY PREDICTED BY IDOCK:   -5.30 KCAL/MOL
REMARK 923 INTER-LIGAND FREE ENERGY PREDICTED BY IDOCK:   -4.57 KCAL/MOL
REMARK 924 INTRA-LIGAND FREE ENERGY PREDICTED BY IDOCK:   -0.73 KCAL/MOL
REMARK 927      BINDING AFFINITY PREDICTED BY RF-SCORE:    0.00 PKD
ROOT
HETATM    1  C   UNL     1      -9.132   7.775  69.862  1.00  0.00    -0.147 C  
HETATM    2  C   UNL     1      -8.270   6.627  69.415  1.00  0.00    -0.124 C  
HETATM    3  C   UNL     1      -9.699   6.365  69.820  1.00  0.00    -0.172 C  
ENDROOT
BRANCH   1   4
HETATM    4  C   UNL     1      -9.662   8.795  68.901  1.00  0.00    -0.172 C  
BRANCH   4   5
HETATM    5  N   UNL     1     -11.072   9.042  69.165  1.00  0.00    -0.439 NA 
HETATM    6  H   UNL     1     -11.789   8.577  68.608  1.00  0.00     0.000 HD 
BRANCH   5   7
HETATM    7  C   UNL     1     -11.407   9.851  70.104  1.00  0.00    -0.275 C  
HETATM    8  H   UNL     1     -11.364  11.765  70.825  1.00  0.00     0.000 HD 
HETATM    9  O   UNL     1     -11.116  11.167  70.130  1.00  0.00    -0.205 OA 
BRANCH   7  10
HETATM   10  C   UNL     1     -12.166   9.417  71.325  1.00  0.00    -0.425 C  
HETATM   11  C   UNL     1     -12.922  10.578  71.943  1.00  0.00    -0.553 C  
ENDBRANCH   7  10
ENDBRANCH   5   7
ENDBRANCH   4   5
ENDBRANCH   1   4
BRANCH   3  12
HETATM   12  C   UNL     1     -10.046   5.624  71.090  1.00  0.00    -0.262 A  
HETATM   13  C   UNL     1     -10.651   6.284  72.178  1.00  0.00    -0.256 A  
HETATM   14  C   UNL     1     -11.092   5.591  73.321  1.00  0.00    -0.322 A  
HETATM   15  C   UNL     1     -10.943   4.211  73.408  1.00  0.00    -0.350 A  
HETATM   16  C   UNL     1      -9.897   4.243  71.223  1.00  0.00    -0.257 A  
HETATM   17  C   UNL     1      -9.319   3.271  70.269  1.00  0.00    -0.242 C  
HETATM   18  C   UNL     1     -10.341   3.564  72.351  1.00  0.00    -0.090 A  
HETATM   19  O   UNL     1     -10.153   2.210  72.307  1.00  0.00    -0.146 OA 
HETATM   20  C   UNL     1      -9.505   1.963  71.040  1.00  0.00    -0.136 C  
ENDBRANCH   3  12
TORSDOF 5
ENDMDL
MODEL      171
REMARK 921   NORMALIZED FREE ENERGY PREDICTED BY IDOCK:   -3.52 KCAL/MOL
REMARK 922        TOTAL FREE ENERGY PREDICTED BY IDOCK:   -5.23 KCAL/MOL
REMARK 923 INTER-LIGAND FREE ENERGY PREDICTED BY IDOCK:   -4.77 KCAL/MOL
REMARK 924 INTRA-LIGAND FREE ENERGY PREDICTED BY IDOCK:   -0.45 KCAL/MOL
REMARK 927      BINDING AFFINITY PREDICTED BY RF-SCORE:    0.00 PKD
ROOT
HETATM    1  C   UNL     1     -10.143   8.303  68.263  1.00  0.00    -0.231 C  
HETATM    2  C   UNL     1     -10.701   9.559  67.655  1.00  0.00    -0.314 C  
HETATM    3  C   UNL     1     -10.377   9.531  69.127  1.00  0.00    -0.218 C  
ENDROOT
BRANCH   1   4
HETATM    4  C   UNL     1      -8.736   7.853  68.012  1.00  0.00    -0.125 C  
BRANCH   4   5
HETATM    5  N   UNL     1      -8.708   6.892  66.920  1.00  0.00    -0.115 NA 
HETATM    6  H   UNL     1      -9.161   5.984  67.022  1.00  0.00     0.000 HD 
BRANCH   5   7
HETATM    7  C   UNL     1      -8.109   7.195  65.826  1.00  0.00    -0.130 C  
HETATM    8  H   UNL     1      -7.152   8.632  64.727  1.00  0.00     0.000 HD 
HETATM    9  O   UNL     1      -7.595   8.407  65.537  1.00  0.00    -0.085 OA 
BRANCH   7  10
HETATM   10  C   UNL     1      -7.920   6.220  64.699  1.00  0.00    -0.120 C  
HETATM   11  C   UNL     1      -7.980   6.918  63.353  1.00  0.00    -0.069 C  
ENDBRANCH   7  10
ENDBRANCH   5   7
ENDBRANCH   4   5
ENDBRANCH   1   4
BRANCH   3  12
HETATM   12  C   UNL     1     -11.458   9.549  70.183  1.00  0.00    -0.205 A  
HETATM   13  C   UNL     1     -11.860   8.366  70.836  1.00  0.00    -0.237 A  
HETATM   14  C   UNL     1     -12.776   8.376  71.904  1.00  0.00    -0.390 A  
HETATM   15  C   UNL     1     -13.316   9.576  72.356  1.00  0.00    -0.469 A  
HETATM   16  C   UNL     1     -12.036  10.728  70.652  1.00  0.00    -0.466 A  
HETATM   17  C   UNL     1     -11.820  12.119  70.195  1.00  0.00    -0.368 C  
HETATM   18  C   UNL     1     -12.934  10.733  71.712  1.00  0.00    -0.463 A  
HETATM   19  O   UNL     1     -13.379  11.975  72.072  1.00  0.00    -0.495 OA 
HETATM   20  C   UNL     1     -12.734  12.883  71.154  1.00  0.00    -0.276 C  
ENDBRANCH   3  12
TORSDOF 5
ENDMDL
MODEL      172
REMARK 921   NORMALIZED FREE ENERGY PREDICTED BY IDOCK:   -3.52 KCAL/MOL
REMARK 922        TOTAL FREE ENERGY PREDICTED BY IDOCK:   -5.22 KCAL/MOL
REMARK 923 INTER-LIGAND FREE ENERGY PREDICTED BY IDOCK:   -5.11 KCAL/MOL
REMARK 924 INTRA-LIGAND FREE ENERGY PREDICTED BY IDOCK:   -0.11 KCAL/MOL
REMARK 927      BINDING AFFINITY PREDICTED BY RF-SCORE:    0.00 PKD
ROOT
HETATM    1  C   UNL     1      -9.540   9.435  68.406  1.00  0.00    -0.157 C  
HETATM    2  C   UNL     1      -9.269   8.669  69.670  1.00  0.00    -0.157 C  
HETATM    3  C   UNL     1     -10.693   8.978  69.285  1.00  0.00    -0.189 C  
ENDROOT
BRANCH   1   4
HETATM    4  C   UNL     1      -9.377   8.819  67.050  1.00  0.00    -0.157 C  
BRANCH   4   5
HETATM    5  N   UNL     1     -10.451   7.869  66.803  1.00  0.00    -0.439 NA 
HETATM    6  H   UNL     1     -11.409   8.196  66.678  1.00  0.00     0.000 HD 
BRANCH   5   7
HETATM    7  C   UNL     1     -10.184   6.615  66.742  1.00  0.00    -0.195 C  
HETATM    8  H   UNL     1      -9.281   5.094  65.713  1.00  0.00     0.000 HD 
HETATM    9  O   UNL     1      -9.478   6.023  65.758  1.00  0.00    -0.049 OA 
BRANCH   7  10
HETATM   10  C   UNL     1     -10.653   5.628  67.772  1.00  0.00    -0.274 C  
HETATM   11  C   UNL     1      -9.639   4.515  67.968  1.00  0.00    -0.209 C  
ENDBRANCH   7  10
ENDBRANCH   5   7
ENDBRANCH   4   5
ENDBRANCH   1   4
BRANCH   3  12
HETATM   12  C   UNL     1     -11.531   9.972  70.054  1.00  0.00    -0.310 A  
HETATM   13  C   UNL     1     -12.237   9.590  71.213  1.00  0.00    -0.433 A  
HETATM   14  C   UNL     1     -12.924  10.522  72.011  1.00  0.00    -0.490 A  
HETATM   15  C   UNL     1     -12.922  11.873  71.676  1.00  0.00    -0.447 A  
HETATM   16  C   UNL     1     -11.568  11.331  69.741  1.00  0.00    -0.408 A  
HETATM   17  C   UNL     1     -10.929  12.047  68.614  1.00  0.00    -0.281 C  
HETATM   18  C   UNL     1     -12.242  12.248  70.538  1.00  0.00    -0.300 A  
HETATM   19  O   UNL     1     -12.149  13.545  70.112  1.00  0.00    -0.330 OA 
HETATM   20  C   UNL     1     -11.357  13.486  68.906  1.00  0.00    -0.289 C  
ENDBRANCH   3  12
TORSDOF 5
ENDMDL
MODEL      173
REMARK 921   NORMALIZED FREE ENERGY PREDICTED BY IDOCK:   -3.50 KCAL/MOL
REMARK 922        TOTAL FREE ENERGY PREDICTED BY IDOCK:   -5.20 KCAL/MOL
REMARK 923 INTER-LIGAND FREE ENERGY PREDICTED BY IDOCK:   -4.65 KCAL/MOL
REMARK 924 INTRA-LIGAND FREE ENERGY PREDICTED BY IDOCK:   -0.54 KCAL/MOL
REMARK 927      BINDING AFFINITY PREDICTED BY RF-SCORE:    0.00 PKD
ROOT
HETATM    1  C   UNL     1     -10.704   6.508  69.013  1.00  0.00    -0.324 C  
HETATM    2  C   UNL     1     -11.580   6.737  70.212  1.00  0.00    -0.417 C  
HETATM    3  C   UNL     1     -10.217   6.121  70.399  1.00  0.00    -0.256 C  
ENDROOT
BRANCH   1   4
HETATM    4  C   UNL     1     -10.023   7.634  68.296  1.00  0.00    -0.176 C  
BRANCH   4   5
HETATM    5  N   UNL     1     -11.016   8.533  67.726  1.00  0.00    -0.486 NA 
HETATM    6  H   UNL     1     -11.973   8.214  67.577  1.00  0.00     0.000 HD 
BRANCH   5   7
HETATM    7  C   UNL     1     -10.678   9.731  67.412  1.00  0.00    -0.249 C  
HETATM    8  H   UNL     1      -9.669  10.952  66.116  1.00  0.00     0.000 HD 
HETATM    9  O   UNL     1      -9.920  10.065  66.349  1.00  0.00    -0.212 OA 
BRANCH   7  10
HETATM   10  C   UNL     1     -11.079  10.932  68.219  1.00  0.00    -0.324 C  
HETATM   11  C   UNL     1     -11.782  10.524  69.500  1.00  0.00    -0.313 C  
ENDBRANCH   7  10
ENDBRANCH   5   7
ENDBRANCH   4   5
ENDBRANCH   1   4
BRANCH   3  12
HETATM   12  C   UNL     1     -10.042   4.672  70.790  1.00  0.00    -0.264 A  
HETATM   13  C   UNL     1      -9.569   3.718  69.867  1.00  0.00    -0.255 A  
HETATM   14  C   UNL     1      -9.285   2.392  70.241  1.00  0.00    -0.196 A  
HETATM   15  C   UNL     1      -9.463   1.979  71.557  1.00  0.00    -0.195 A  
HETATM   16  C   UNL     1     -10.226   4.214  72.095  1.00  0.00    -0.220 A  
HETATM   17  C   UNL     1     -10.694   4.957  73.287  1.00  0.00    -0.316 C  
HETATM   18  C   UNL     1      -9.937   2.906  72.460  1.00  0.00    -0.159 A  
HETATM   19  O   UNL     1     -10.137   2.630  73.785  1.00  0.00    -0.099 OA 
HETATM   20  C   UNL     1     -10.625   3.864  74.354  1.00  0.00    -0.192 C  
ENDBRANCH   3  12
TORSDOF 5
ENDMDL
MODEL      174
REMARK 921   NORMALIZED FREE ENERGY PREDICTED BY IDOCK:   -3.48 KCAL/MOL
REMARK 922        TOTAL FREE ENERGY PREDICTED BY IDOCK:   -5.18 KCAL/MOL
REMARK 923 INTER-LIGAND FREE ENERGY PREDICTED BY IDOCK:   -4.46 KCAL/MOL
REMARK 924 INTRA-LIGAND FREE ENERGY PREDICTED BY IDOCK:   -0.71 KCAL/MOL
REMARK 927      BINDING AFFINITY PREDICTED BY RF-SCORE:    0.00 PKD
ROOT
HETATM    1  C   UNL     1     -11.122   6.714  68.052  1.00  0.00    -0.296 C  
HETATM    2  C   UNL     1     -10.443   6.124  66.848  1.00  0.00    -0.340 C  
HETATM    3  C   UNL     1      -9.773   7.246  67.598  1.00  0.00    -0.173 C  
ENDROOT
BRANCH   1   4
HETATM    4  C   UNL     1     -11.209   5.983  69.357  1.00  0.00    -0.327 C  
BRANCH   4   5
HETATM    5  N   UNL     1     -12.163   6.644  70.235  1.00  0.00    -0.534 NA 
HETATM    6  H   UNL     1     -13.162   6.595  70.039  1.00  0.00     0.000 HD 
BRANCH   5   7
HETATM    7  C   UNL     1     -11.737   7.289  71.260  1.00  0.00    -0.296 C  
HETATM    8  H   UNL     1     -12.198   8.478  72.861  1.00  0.00     0.000 HD 
HETATM    9  O   UNL     1     -12.513   7.999  72.102  1.00  0.00    -0.312 OA 
BRANCH   7  10
HETATM   10  C   UNL     1     -10.286   7.350  71.643  1.00  0.00    -0.215 C  
HETATM   11  C   UNL     1      -9.853   8.776  71.929  1.00  0.00    -0.395 C  
ENDBRANCH   7  10
ENDBRANCH   5   7
ENDBRANCH   4   5
ENDBRANCH   1   4
BRANCH   3  12
HETATM   12  C   UNL     1      -9.637   8.631  67.009  1.00  0.00    -0.240 A  
HETATM   13  C   UNL     1     -10.672   9.580  67.127  1.00  0.00    -0.252 A  
HETATM   14  C   UNL     1     -10.521  10.910  66.693  1.00  0.00    -0.307 A  
HETATM   15  C   UNL     1      -9.321  11.333  66.129  1.00  0.00    -0.230 A  
HETATM   16  C   UNL     1      -8.458   9.089  66.421  1.00  0.00    -0.126 A  
HETATM   17  C   UNL     1      -7.197   8.356  66.165  1.00  0.00    -0.077 C  
HETATM   18  C   UNL     1      -8.311  10.405  66.001  1.00  0.00    -0.149 A  
HETATM   19  O   UNL     1      -7.081  10.700  65.481  1.00  0.00    -0.128 OA 
HETATM   20  C   UNL     1      -6.344   9.460  65.539  1.00  0.00    -0.065 C  
ENDBRANCH   3  12
TORSDOF 5
ENDMDL
MODEL      175
REMARK 921   NORMALIZED FREE ENERGY PREDICTED BY IDOCK:   -3.46 KCAL/MOL
REMARK 922        TOTAL FREE ENERGY PREDICTED BY IDOCK:   -5.15 KCAL/MOL
REMARK 923 INTER-LIGAND FREE ENERGY PREDICTED BY IDOCK:   -4.57 KCAL/MOL
REMARK 924 INTRA-LIGAND FREE ENERGY PREDICTED BY IDOCK:   -0.59 KCAL/MOL
REMARK 927      BINDING AFFINITY PREDICTED BY RF-SCORE:    0.00 PKD
ROOT
HETATM    1  C   UNL     1      -9.877   9.991  68.445  1.00  0.00    -0.169 C  
HETATM    2  C   UNL     1     -10.663   9.213  69.463  1.00  0.00    -0.226 C  
HETATM    3  C   UNL     1     -11.357  10.273  68.646  1.00  0.00    -0.226 C  
ENDROOT
BRANCH   1   4
HETATM    4  C   UNL     1      -9.427   9.382  67.151  1.00  0.00    -0.145 C  
BRANCH   4   5
HETATM    5  N   UNL     1      -8.006   9.075  67.214  1.00  0.00    -0.099 NA 
HETATM    6  H   UNL     1      -7.689   8.187  67.605  1.00  0.00     0.000 HD 
BRANCH   5   7
HETATM    7  C   UNL     1      -7.154   9.928  66.775  1.00  0.00    -0.090 C  
HETATM    8  H   UNL     1      -6.308  10.835  65.148  1.00  0.00     0.000 HD 
HETATM    9  O   UNL     1      -6.939  10.204  65.473  1.00  0.00    -0.117 OA 
BRANCH   7  10
HETATM   10  C   UNL     1      -6.258  10.728  67.677  1.00  0.00    -0.052 C  
HETATM   11  C   UNL     1      -5.965  12.095  67.087  1.00  0.00    -0.143 C  
ENDBRANCH   7  10
ENDBRANCH   5   7
ENDBRANCH   4   5
ENDBRANCH   1   4
BRANCH   3  12
HETATM   12  C   UNL     1     -11.829  11.572  69.257  1.00  0.00    -0.414 A  
HETATM   13  C   UNL     1     -12.183  11.652  70.619  1.00  0.00    -0.461 A  
HETATM   14  C   UNL     1     -12.509  12.873  71.237  1.00  0.00    -0.298 A  
HETATM   15  C   UNL     1     -12.486  14.058  70.507  1.00  0.00    -0.429 A  
HETATM   16  C   UNL     1     -11.837  12.778  68.556  1.00  0.00    -0.345 A  
HETATM   17  C   UNL     1     -11.508  13.033  67.136  1.00  0.00    -0.379 C  
HETATM   18  C   UNL     1     -12.152  13.982  69.173  1.00  0.00    -0.337 A  
HETATM   19  O   UNL     1     -12.076  15.075  68.354  1.00  0.00    -0.242 OA 
HETATM   20  C   UNL     1     -11.695  14.549  67.064  1.00  0.00    -0.393 C  
ENDBRANCH   3  12
TORSDOF 5
ENDMDL
MODEL      176
REMARK 921   NORMALIZED FREE ENERGY PREDICTED BY IDOCK:   -3.46 KCAL/MOL
REMARK 922        TOTAL FREE ENERGY PREDICTED BY IDOCK:   -5.15 KCAL/MOL
REMARK 923 INTER-LIGAND FREE ENERGY PREDICTED BY IDOCK:   -4.60 KCAL/MOL
REMARK 924 INTRA-LIGAND FREE ENERGY PREDICTED BY IDOCK:   -0.54 KCAL/MOL
REMARK 927      BINDING AFFINITY PREDICTED BY RF-SCORE:    0.00 PKD
ROOT
HETATM    1  C   UNL     1     -10.435  15.398  66.467  1.00  0.00    -0.295 C  
HETATM    2  C   UNL     1     -11.036  14.649  67.623  1.00  0.00    -0.296 C  
HETATM    3  C   UNL     1      -9.982  13.980  66.777  1.00  0.00    -0.268 C  
ENDROOT
BRANCH   1   4
HETATM    4  C   UNL     1      -9.467  16.525  66.664  1.00  0.00    -0.258 C  
BRANCH   4   5
HETATM    5  N   UNL     1      -9.394  16.877  68.074  1.00  0.00    -0.234 NA 
HETATM    6  H   UNL     1     -10.179  16.680  68.695  1.00  0.00     0.000 HD 
BRANCH   5   7
HETATM    7  C   UNL     1      -8.334  17.438  68.532  1.00  0.00    -0.271 C  
HETATM    8  H   UNL     1      -7.357  19.184  68.959  1.00  0.00     0.000 HD 
HETATM    9  O   UNL     1      -8.142  18.769  68.621  1.00  0.00    -0.330 OA 
BRANCH   7  10
HETATM   10  C   UNL     1      -7.143  16.663  69.018  1.00  0.00    -0.216 C  
HETATM   11  C   UNL     1      -6.172  16.381  67.887  1.00  0.00    -0.143 C  
ENDBRANCH   7  10
ENDBRANCH   5   7
ENDBRANCH   4   5
ENDBRANCH   1   4
BRANCH   3  12
HETATM   12  C   UNL     1     -10.312  12.834  65.849  1.00  0.00    -0.298 A  
HETATM   13  C   UNL     1     -11.029  13.045  64.654  1.00  0.00    -0.364 A  
HETATM   14  C   UNL     1     -11.242  12.016  63.718  1.00  0.00    -0.516 A  
HETATM   15  C   UNL     1     -10.738  10.740  63.950  1.00  0.00    -0.011 A  
HETATM   16  C   UNL     1      -9.840  11.538  66.054  1.00  0.00    -0.255 A  
HETATM   17  C   UNL     1      -9.055  10.999  67.187  1.00  0.00    -0.151 C  
HETATM   18  C   UNL     1     -10.048  10.527  65.123  1.00  0.00    -0.314 A  
HETATM   19  O   UNL     1      -9.489   9.325  65.459  1.00  0.00    -0.252 OA 
HETATM   20  C   UNL     1      -8.868   9.547  66.743  1.00  0.00    -0.131 C  
ENDBRANCH   3  12
TORSDOF 5
ENDMDL
MODEL      177
REMARK 921   NORMALIZED FREE ENERGY PREDICTED BY IDOCK:   -3.45 KCAL/MOL
REMARK 922        TOTAL FREE ENERGY PREDICTED BY IDOCK:   -5.13 KCAL/MOL
REMARK 923 INTER-LIGAND FREE ENERGY PREDICTED BY IDOCK:   -4.46 KCAL/MOL
REMARK 924 INTRA-LIGAND FREE ENERGY PREDICTED BY IDOCK:   -0.68 KCAL/MOL
REMARK 927      BINDING AFFINITY PREDICTED BY RF-SCORE:    0.00 PKD
ROOT
HETATM    1  C   UNL     1      -9.636   8.263  70.210  1.00  0.00    -0.169 C  
HETATM    2  C   UNL     1     -10.931   7.511  70.076  1.00  0.00    -0.252 C  
HETATM    3  C   UNL     1     -10.778   8.847  69.395  1.00  0.00    -0.192 C  
ENDROOT
BRANCH   1   4
HETATM    4  C   UNL     1      -8.388   7.834  69.501  1.00  0.00    -0.129 C  
BRANCH   4   5
HETATM    5  N   UNL     1      -8.723   7.268  68.202  1.00  0.00    -0.128 NA 
HETATM    6  H   UNL     1      -9.334   6.454  68.138  1.00  0.00     0.000 HD 
BRANCH   5   7
HETATM    7  C   UNL     1      -8.244   7.801  67.138  1.00  0.00    -0.118 C  
HETATM    8  H   UNL     1      -6.649   7.980  65.868  1.00  0.00     0.000 HD 
HETATM    9  O   UNL     1      -7.004   7.585  66.657  1.00  0.00    -0.070 OA 
BRANCH   7  10
HETATM   10  C   UNL     1      -9.018   8.769  66.288  1.00  0.00    -0.211 C  
HETATM   11  C   UNL     1      -8.549   8.729  64.846  1.00  0.00    -0.177 C  
ENDBRANCH   7  10
ENDBRANCH   5   7
ENDBRANCH   4   5
ENDBRANCH   1   4
BRANCH   3  12
HETATM   12  C   UNL     1     -11.526  10.073  69.864  1.00  0.00    -0.274 A  
HETATM   13  C   UNL     1     -12.129  10.118  71.138  1.00  0.00    -0.485 A  
HETATM   14  C   UNL     1     -12.725  11.288  71.642  1.00  0.00    -0.448 A  
HETATM   15  C   UNL     1     -12.733  12.456  70.885  1.00  0.00    -0.273 A  
HETATM   16  C   UNL     1     -11.572  11.258  69.129  1.00  0.00    -0.387 A  
HETATM   17  C   UNL     1     -11.029  11.540  67.781  1.00  0.00    -0.291 C  
HETATM   18  C   UNL     1     -12.156  12.412  69.635  1.00  0.00    -0.206 A  
HETATM   19  O   UNL     1     -12.083  13.495  68.802  1.00  0.00    -0.344 OA 
HETATM   20  C   UNL     1     -11.406  13.014  67.622  1.00  0.00    -0.300 C  
ENDBRANCH   3  12
TORSDOF 5
ENDMDL
MODEL      178
REMARK 921   NORMALIZED FREE ENERGY PREDICTED BY IDOCK:   -3.43 KCAL/MOL
REMARK 922        TOTAL FREE ENERGY PREDICTED BY IDOCK:   -5.10 KCAL/MOL
REMARK 923 INTER-LIGAND FREE ENERGY PREDICTED BY IDOCK:   -4.47 KCAL/MOL
REMARK 924 INTRA-LIGAND FREE ENERGY PREDICTED BY IDOCK:   -0.63 KCAL/MOL
REMARK 927      BINDING AFFINITY PREDICTED BY RF-SCORE:    0.00 PKD
ROOT
HETATM    1  C   UNL     1     -11.571  11.819  67.416  1.00  0.00    -0.352 C  
HETATM    2  C   UNL     1     -11.677  11.207  68.785  1.00  0.00    -0.394 C  
HETATM    3  C   UNL     1     -10.399  11.048  68.001  1.00  0.00    -0.209 C  
ENDROOT
BRANCH   1   4
HETATM    4  C   UNL     1     -11.434  13.297  67.213  1.00  0.00    -0.338 C  
BRANCH   4   5
HETATM    5  N   UNL     1     -10.185  13.591  66.525  1.00  0.00    -0.277 NA 
HETATM    6  H   UNL     1      -9.918  13.062  65.696  1.00  0.00     0.000 HD 
BRANCH   5   7
HETATM    7  C   UNL     1      -9.422  14.522  66.970  1.00  0.00    -0.239 C  
HETATM    8  H   UNL     1      -8.309  15.238  68.532  1.00  0.00     0.000 HD 
HETATM    9  O   UNL     1      -8.874  14.548  68.202  1.00  0.00    -0.163 OA 
BRANCH   7  10
HETATM   10  C   UNL     1      -9.053  15.734  66.163  1.00  0.00    -0.377 C  
HETATM   11  C   UNL     1     -10.283  16.536  65.783  1.00  0.00    -0.350 C  
ENDBRANCH   7  10
ENDBRANCH   5   7
ENDBRANCH   4   5
ENDBRANCH   1   4
BRANCH   3  12
HETATM   12  C   UNL     1      -9.974   9.717  67.427  1.00  0.00    -0.237 A  
HETATM   13  C   UNL     1     -10.460   8.504  67.958  1.00  0.00    -0.249 A  
HETATM   14  C   UNL     1     -10.173   7.261  67.365  1.00  0.00    -0.304 A  
HETATM   15  C   UNL     1      -9.393   7.193  66.215  1.00  0.00    -0.154 A  
HETATM   16  C   UNL     1      -9.180   9.605  66.286  1.00  0.00    -0.213 A  
HETATM   17  C   UNL     1      -8.535  10.674  65.490  1.00  0.00    -0.177 C  
HETATM   18  C   UNL     1      -8.907   8.376  65.701  1.00  0.00    -0.156 A  
HETATM   19  O   UNL     1      -8.145   8.444  64.567  1.00  0.00    -0.142 OA 
HETATM   20  C   UNL     1      -7.865   9.850  64.390  1.00  0.00    -0.142 C  
ENDBRANCH   3  12
TORSDOF 5
ENDMDL
MODEL      179
REMARK 921   NORMALIZED FREE ENERGY PREDICTED BY IDOCK:   -3.41 KCAL/MOL
REMARK 922        TOTAL FREE ENERGY PREDICTED BY IDOCK:   -5.08 KCAL/MOL
REMARK 923 INTER-LIGAND FREE ENERGY PREDICTED BY IDOCK:   -4.87 KCAL/MOL
REMARK 924 INTRA-LIGAND FREE ENERGY PREDICTED BY IDOCK:   -0.21 KCAL/MOL
REMARK 927      BINDING AFFINITY PREDICTED BY RF-SCORE:    0.00 PKD
ROOT
HETATM    1  C   UNL     1     -10.101   7.617  70.980  1.00  0.00    -0.196 C  
HETATM    2  C   UNL     1     -10.782   7.232  69.697  1.00  0.00    -0.249 C  
HETATM    3  C   UNL     1     -10.898   6.326  70.896  1.00  0.00    -0.329 C  
ENDROOT
BRANCH   1   4
HETATM    4  C   UNL     1     -10.609   8.725  71.851  1.00  0.00    -0.354 C  
BRANCH   4   5
HETATM    5  N   UNL     1     -11.464   9.614  71.078  1.00  0.00    -0.339 NA 
HETATM    6  H   UNL     1     -11.084  10.132  70.286  1.00  0.00     0.000 HD 
BRANCH   5   7
HETATM    7  C   UNL     1     -12.700   9.740  71.399  1.00  0.00    -0.387 C  
HETATM    8  H   UNL     1     -14.451  10.768  71.139  1.00  0.00     0.000 HD 
HETATM    9  O   UNL     1     -13.536  10.673  70.901  1.00  0.00    -0.131 OA 
BRANCH   7  10
HETATM   10  C   UNL     1     -13.379   8.857  72.407  1.00  0.00    -0.488 C  
HETATM   11  C   UNL     1     -14.303   7.861  71.730  1.00  0.00    -0.589 C  
ENDBRANCH   7  10
ENDBRANCH   5   7
ENDBRANCH   4   5
ENDBRANCH   1   4
BRANCH   3  12
HETATM   12  C   UNL     1     -10.214   4.980  70.949  1.00  0.00    -0.287 A  
HETATM   13  C   UNL     1     -10.128   4.251  72.153  1.00  0.00    -0.255 A  
HETATM   14  C   UNL     1      -9.604   2.946  72.201  1.00  0.00    -0.210 A  
HETATM   15  C   UNL     1      -9.151   2.327  71.040  1.00  0.00    -0.171 A  
HETATM   16  C   UNL     1      -9.732   4.332  69.812  1.00  0.00    -0.290 A  
HETATM   17  C   UNL     1      -9.689   4.813  68.412  1.00  0.00    -0.209 C  
HETATM   18  C   UNL     1      -9.222   3.041  69.864  1.00  0.00    -0.154 A  
HETATM   19  O   UNL     1      -8.827   2.538  68.655  1.00  0.00    -0.081 OA 
HETATM   20  C   UNL     1      -9.076   3.600  67.710  1.00  0.00    -0.156 C  
ENDBRANCH   3  12
TORSDOF 5
ENDMDL
MODEL      180
REMARK 921   NORMALIZED FREE ENERGY PREDICTED BY IDOCK:   -3.36 KCAL/MOL
REMARK 922        TOTAL FREE ENERGY PREDICTED BY IDOCK:   -5.02 KCAL/MOL
REMARK 923 INTER-LIGAND FREE ENERGY PREDICTED BY IDOCK:   -4.47 KCAL/MOL
REMARK 924 INTRA-LIGAND FREE ENERGY PREDICTED BY IDOCK:   -0.55 KCAL/MOL
REMARK 927      BINDING AFFINITY PREDICTED BY RF-SCORE:    0.00 PKD
ROOT
HETATM    1  C   UNL     1      -8.975   7.404  68.939  1.00  0.00    -0.130 C  
HETATM    2  C   UNL     1      -8.854   7.272  70.431  1.00  0.00    -0.150 C  
HETATM    3  C   UNL     1     -10.186   7.638  69.826  1.00  0.00    -0.210 C  
ENDROOT
BRANCH   1   4
HETATM    4  C   UNL     1      -8.964   6.212  68.030  1.00  0.00    -0.113 C  
BRANCH   4   5
HETATM    5  N   UNL     1      -8.449   5.050  68.739  1.00  0.00    -0.087 NA 
HETATM    6  H   UNL     1      -7.484   5.034  69.067  1.00  0.00     0.000 HD 
BRANCH   5   7
HETATM    7  C   UNL     1      -9.220   4.046  68.950  1.00  0.00    -0.148 C  
HETATM    8  H   UNL     1     -10.533   3.118  70.216  1.00  0.00     0.000 HD 
HETATM    9  O   UNL     1      -9.963   3.862  70.060  1.00  0.00    -0.159 OA 
BRANCH   7  10
HETATM   10  C   UNL     1      -9.377   2.916  67.973  1.00  0.00    -0.258 C  
HETATM   11  C   UNL     1      -8.032   2.322  67.599  1.00  0.00    -0.064 C  
ENDBRANCH   7  10
ENDBRANCH   5   7
ENDBRANCH   4   5
ENDBRANCH   1   4
BRANCH   3  12
HETATM   12  C   UNL     1     -10.784   9.016  69.986  1.00  0.00    -0.247 A  
HETATM   13  C   UNL     1     -10.428  10.071  69.121  1.00  0.00    -0.238 A  
HETATM   14  C   UNL     1     -11.060  11.327  69.174  1.00  0.00    -0.312 A  
HETATM   15  C   UNL     1     -12.075  11.565  70.096  1.00  0.00    -0.432 A  
HETATM   16  C   UNL     1     -11.792   9.300  70.908  1.00  0.00    -0.346 A  
HETATM   17  C   UNL     1     -12.394   8.418  71.933  1.00  0.00    -0.395 C  
HETATM   18  C   UNL     1     -12.417  10.540  70.951  1.00  0.00    -0.390 A  
HETATM   19  O   UNL     1     -13.409  10.642  71.887  1.00  0.00    -0.424 OA 
HETATM   20  C   UNL     1     -13.434   9.357  72.546  1.00  0.00    -0.362 C  
ENDBRANCH   3  12
TORSDOF 5
ENDMDL
MODEL      181
REMARK 921   NORMALIZED FREE ENERGY PREDICTED BY IDOCK:   -3.35 KCAL/MOL
REMARK 922        TOTAL FREE ENERGY PREDICTED BY IDOCK:   -5.00 KCAL/MOL
REMARK 923 INTER-LIGAND FREE ENERGY PREDICTED BY IDOCK:   -4.63 KCAL/MOL
REMARK 924 INTRA-LIGAND FREE ENERGY PREDICTED BY IDOCK:   -0.36 KCAL/MOL
REMARK 927      BINDING AFFINITY PREDICTED BY RF-SCORE:    0.00 PKD
ROOT
HETATM    1  C   UNL     1      -7.881  15.528  68.573  1.00  0.00    -0.135 C  
HETATM    2  C   UNL     1      -6.962  14.416  68.153  1.00  0.00    -0.126 C  
HETATM    3  C   UNL     1      -8.196  14.704  67.335  1.00  0.00    -0.220 C  
ENDROOT
BRANCH   1   4
HETATM    4  C   UNL     1      -7.514  16.972  68.406  1.00  0.00    -0.213 C  
BRANCH   4   5
HETATM    5  N   UNL     1      -8.506  17.645  67.580  1.00  0.00    -0.217 NA 
HETATM    6  H   UNL     1      -8.892  17.179  66.758  1.00  0.00     0.000 HD 
BRANCH   5   7
HETATM    7  C   UNL     1      -8.891  18.828  67.892  1.00  0.00    -0.296 C  
HETATM    8  H   UNL     1      -8.405  20.636  68.717  1.00  0.00     0.000 HD 
HETATM    9  O   UNL     1      -8.119  19.760  68.486  1.00  0.00    -0.315 OA 
BRANCH   7  10
HETATM   10  C   UNL     1     -10.287  19.326  67.645  1.00  0.00    -0.532 C  
HETATM   11  C   UNL     1     -10.731  19.033  66.224  1.00  0.00    -0.406 C  
ENDBRANCH   7  10
ENDBRANCH   5   7
ENDBRANCH   4   5
ENDBRANCH   1   4
BRANCH   3  12
HETATM   12  C   UNL     1      -9.372  13.758  67.305  1.00  0.00    -0.239 A  
HETATM   13  C   UNL     1     -10.680  14.208  67.580  1.00  0.00    -0.270 A  
HETATM   14  C   UNL     1     -11.803  13.373  67.440  1.00  0.00    -0.418 A  
HETATM   15  C   UNL     1     -11.653  12.057  67.014  1.00  0.00    -0.387 A  
HETATM   16  C   UNL     1      -9.262  12.427  66.899  1.00  0.00    -0.209 A  
HETATM   17  C   UNL     1      -8.049  11.663  66.530  1.00  0.00    -0.075 C  
HETATM   18  C   UNL     1     -10.375  11.610  66.755  1.00  0.00    -0.222 A  
HETATM   19  O   UNL     1     -10.097  10.345  66.314  1.00  0.00    -0.215 OA 
HETATM   20  C   UNL     1      -8.661  10.308  66.170  1.00  0.00    -0.139 C  
ENDBRANCH   3  12
TORSDOF 5
ENDMDL
MODEL      182
REMARK 921   NORMALIZED FREE ENERGY PREDICTED BY IDOCK:   -3.34 KCAL/MOL
REMARK 922        TOTAL FREE ENERGY PREDICTED BY IDOCK:   -4.99 KCAL/MOL
REMARK 923 INTER-LIGAND FREE ENERGY PREDICTED BY IDOCK:   -5.11 KCAL/MOL
REMARK 924 INTRA-LIGAND FREE ENERGY PREDICTED BY IDOCK:    0.12 KCAL/MOL
REMARK 927      BINDING AFFINITY PREDICTED BY RF-SCORE:    0.00 PKD
ROOT
HETATM    1  C   UNL     1     -11.714  11.066  68.053  1.00  0.00    -0.257 C  
HETATM    2  C   UNL     1     -11.837  11.570  69.463  1.00  0.00    -0.419 C  
HETATM    3  C   UNL     1     -10.561  10.897  69.028  1.00  0.00    -0.248 C  
ENDROOT
BRANCH   1   4
HETATM    4  C   UNL     1     -11.545  11.992  66.887  1.00  0.00    -0.318 C  
BRANCH   4   5
HETATM    5  N   UNL     1     -10.236  11.795  66.282  1.00  0.00    -0.215 NA 
HETATM    6  H   UNL     1      -9.431  12.326  66.614  1.00  0.00     0.000 HD 
BRANCH   5   7
HETATM    7  C   UNL     1     -10.101  10.949  65.327  1.00  0.00    -0.280 C  
HETATM    8  H   UNL     1      -9.885   8.988  64.782  1.00  0.00     0.000 HD 
HETATM    9  O   UNL     1      -9.985   9.615  65.488  1.00  0.00    -0.311 OA 
BRANCH   7  10
HETATM   10  C   UNL     1     -10.036  11.349  63.881  1.00  0.00    -0.357 C  
HETATM   11  C   UNL     1     -11.228  12.205  63.494  1.00  0.00    -0.536 C  
ENDBRANCH   7  10
ENDBRANCH   5   7
ENDBRANCH   4   5
ENDBRANCH   1   4
BRANCH   3  12
HETATM   12  C   UNL     1     -10.164   9.532  69.539  1.00  0.00    -0.225 A  
HETATM   13  C   UNL     1      -9.096   8.817  68.960  1.00  0.00    -0.141 A  
HETATM   14  C   UNL     1      -8.632   7.601  69.495  1.00  0.00    -0.132 A  
HETATM   15  C   UNL     1      -9.222   7.064  70.634  1.00  0.00    -0.158 A  
HETATM   16  C   UNL     1     -10.741   8.951  70.668  1.00  0.00    -0.282 A  
HETATM   17  C   UNL     1     -11.857   9.446  71.505  1.00  0.00    -0.456 C  
HETATM   18  C   UNL     1     -10.274   7.754  71.197  1.00  0.00    -0.195 A  
HETATM   19  O   UNL     1     -10.926   7.341  72.326  1.00  0.00    -0.229 OA 
HETATM   20  C   UNL     1     -11.936   8.344  72.562  1.00  0.00    -0.350 C  
ENDBRANCH   3  12
TORSDOF 5
ENDMDL
MODEL      183
REMARK 921   NORMALIZED FREE ENERGY PREDICTED BY IDOCK:   -3.33 KCAL/MOL
REMARK 922        TOTAL FREE ENERGY PREDICTED BY IDOCK:   -4.98 KCAL/MOL
REMARK 923 INTER-LIGAND FREE ENERGY PREDICTED BY IDOCK:   -4.54 KCAL/MOL
REMARK 924 INTRA-LIGAND FREE ENERGY PREDICTED BY IDOCK:   -0.44 KCAL/MOL
REMARK 927      BINDING AFFINITY PREDICTED BY RF-SCORE:    0.00 PKD
ROOT
HETATM    1  C   UNL     1     -10.068  14.070  67.341  1.00  0.00    -0.244 C  
HETATM    2  C   UNL     1     -10.799  14.540  66.115  1.00  0.00    -0.317 C  
HETATM    3  C   UNL     1      -9.538  15.248  66.541  1.00  0.00    -0.294 C  
ENDROOT
BRANCH   1   4
HETATM    4  C   UNL     1      -9.280  12.796  67.360  1.00  0.00    -0.193 C  
BRANCH   4   5
HETATM    5  N   UNL     1      -9.888  11.822  66.466  1.00  0.00    -0.202 NA 
HETATM    6  H   UNL     1     -10.580  12.117  65.778  1.00  0.00     0.000 HD 
BRANCH   5   7
HETATM    7  C   UNL     1      -9.545  10.588  66.548  1.00  0.00    -0.174 C  
HETATM    8  H   UNL     1      -9.539   8.873  67.665  1.00  0.00     0.000 HD 
HETATM    9  O   UNL     1      -9.793   9.787  67.604  1.00  0.00    -0.155 OA 
BRANCH   7  10
HETATM   10  C   UNL     1      -8.794   9.873  65.462  1.00  0.00    -0.186 C  
HETATM   11  C   UNL     1      -9.404  10.146  64.100  1.00  0.00    -0.340 C  
ENDBRANCH   7  10
ENDBRANCH   5   7
ENDBRANCH   4   5
ENDBRANCH   1   4
BRANCH   3  12
HETATM   12  C   UNL     1      -9.561  16.650  67.105  1.00  0.00    -0.244 A  
HETATM   13  C   UNL     1     -10.744  17.417  67.108  1.00  0.00    -0.188 A  
HETATM   14  C   UNL     1     -10.818  18.675  67.734  1.00  0.00    -0.313 A  
HETATM   15  C   UNL     1      -9.706  19.203  68.383  1.00  0.00    -0.451 A  
HETATM   16  C   UNL     1      -8.464  17.223  67.748  1.00  0.00    -0.217 A  
HETATM   17  C   UNL     1      -7.099  16.679  67.929  1.00  0.00    -0.153 C  
HETATM   18  C   UNL     1      -8.545  18.462  68.372  1.00  0.00    -0.325 A  
HETATM   19  O   UNL     1      -7.391  18.862  68.988  1.00  0.00    -0.319 OA 
HETATM   20  C   UNL     1      -6.445  17.802  68.735  1.00  0.00    -0.225 C  
ENDBRANCH   3  12
TORSDOF 5
ENDMDL
MODEL      184
REMARK 921   NORMALIZED FREE ENERGY PREDICTED BY IDOCK:   -3.31 KCAL/MOL
REMARK 922        TOTAL FREE ENERGY PREDICTED BY IDOCK:   -4.96 KCAL/MOL
REMARK 923 INTER-LIGAND FREE ENERGY PREDICTED BY IDOCK:   -4.52 KCAL/MOL
REMARK 924 INTRA-LIGAND FREE ENERGY PREDICTED BY IDOCK:   -0.44 KCAL/MOL
REMARK 927      BINDING AFFINITY PREDICTED BY RF-SCORE:    0.00 PKD
ROOT
HETATM    1  C   UNL     1     -11.420  11.150  68.031  1.00  0.00    -0.366 C  
HETATM    2  C   UNL     1     -11.445  11.615  69.461  1.00  0.00    -0.371 C  
HETATM    3  C   UNL     1     -10.193  10.979  68.911  1.00  0.00    -0.218 C  
ENDROOT
BRANCH   1   4
HETATM    4  C   UNL     1     -11.357  12.110  66.882  1.00  0.00    -0.343 C  
BRANCH   4   5
HETATM    5  N   UNL     1     -11.656  11.416  65.638  1.00  0.00    -0.080 NA 
HETATM    6  H   UNL     1     -11.471  10.417  65.549  1.00  0.00     0.000 HD 
BRANCH   5   7
HETATM    7  C   UNL     1     -12.153  12.071  64.652  1.00  0.00    -0.232 C  
HETATM    8  H   UNL     1     -13.825  12.874  63.787  1.00  0.00     0.000 HD 
HETATM    9  O   UNL     1     -13.456  12.390  64.517  1.00  0.00    -0.668 OA 
BRANCH   7  10
HETATM   10  C   UNL     1     -11.331  12.556  63.494  1.00  0.00    -0.556 C  
HETATM   11  C   UNL     1     -10.124  11.665  63.265  1.00  0.00    -0.454 C  
ENDBRANCH   7  10
ENDBRANCH   5   7
ENDBRANCH   4   5
ENDBRANCH   1   4
BRANCH   3  12
HETATM   12  C   UNL     1      -9.734   9.609  69.353  1.00  0.00    -0.203 A  
HETATM   13  C   UNL     1     -10.621   8.514  69.377  1.00  0.00    -0.203 A  
HETATM   14  C   UNL     1     -10.188   7.207  69.669  1.00  0.00    -0.215 A  
HETATM   15  C   UNL     1      -8.847   6.955  69.942  1.00  0.00    -0.142 A  
HETATM   16  C   UNL     1      -8.402   9.319  69.652  1.00  0.00    -0.140 A  
HETATM   17  C   UNL     1      -7.237  10.230  69.700  1.00  0.00    -0.140 C  
HETATM   18  C   UNL     1      -7.979   8.026  69.932  1.00  0.00    -0.111 A  
HETATM   19  O   UNL     1      -6.637   7.907  70.166  1.00  0.00    -0.037 OA 
HETATM   20  C   UNL     1      -6.118   9.249  70.052  1.00  0.00    -0.042 C  
ENDBRANCH   3  12
TORSDOF 5
ENDMDL
MODEL      185
REMARK 921   NORMALIZED FREE ENERGY PREDICTED BY IDOCK:   -3.31 KCAL/MOL
REMARK 922        TOTAL FREE ENERGY PREDICTED BY IDOCK:   -4.95 KCAL/MOL
REMARK 923 INTER-LIGAND FREE ENERGY PREDICTED BY IDOCK:   -4.30 KCAL/MOL
REMARK 924 INTRA-LIGAND FREE ENERGY PREDICTED BY IDOCK:   -0.65 KCAL/MOL
REMARK 927      BINDING AFFINITY PREDICTED BY RF-SCORE:    0.00 PKD
ROOT
HETATM    1  C   UNL     1     -10.604  10.672  66.298  1.00  0.00    -0.229 C  
HETATM    2  C   UNL     1     -10.308  12.123  66.555  1.00  0.00    -0.239 C  
HETATM    3  C   UNL     1     -10.028  11.108  67.635  1.00  0.00    -0.195 C  
ENDROOT
BRANCH   1   4
HETATM    4  C   UNL     1      -9.760   9.836  65.385  1.00  0.00    -0.313 C  
BRANCH   4   5
HETATM    5  N   UNL     1      -8.569   9.381  66.087  1.00  0.00    -0.132 NA 
HETATM    6  H   UNL     1      -8.074  10.008  66.721  1.00  0.00     0.000 HD 
BRANCH   5   7
HETATM    7  C   UNL     1      -8.146   8.183  65.904  1.00  0.00    -0.115 C  
HETATM    8  H   UNL     1      -8.609   6.194  65.773  1.00  0.00     0.000 HD 
HETATM    9  O   UNL     1      -8.922   7.081  65.908  1.00  0.00    -0.143 OA 
BRANCH   7  10
HETATM   10  C   UNL     1      -6.699   7.853  65.675  1.00  0.00    -0.045 C  
HETATM   11  C   UNL     1      -5.848   9.109  65.636  1.00  0.00    -0.050 C  
ENDBRANCH   7  10
ENDBRANCH   5   7
ENDBRANCH   4   5
ENDBRANCH   1   4
BRANCH   3  12
HETATM   12  C   UNL     1     -10.850  11.041  68.900  1.00  0.00    -0.262 A  
HETATM   13  C   UNL     1     -11.585  12.155  69.354  1.00  0.00    -0.381 A  
HETATM   14  C   UNL     1     -12.451  12.079  70.460  1.00  0.00    -0.292 A  
HETATM   15  C   UNL     1     -12.612  10.879  71.146  1.00  0.00    -0.532 A  
HETATM   16  C   UNL     1     -11.024   9.862  69.626  1.00  0.00    -0.285 A  
HETATM   17  C   UNL     1     -10.414   8.532  69.404  1.00  0.00    -0.223 C  
HETATM   18  C   UNL     1     -11.886   9.791  70.712  1.00  0.00    -0.319 A  
HETATM   19  O   UNL     1     -11.970   8.554  71.290  1.00  0.00    -0.288 OA 
HETATM   20  C   UNL     1     -11.063   7.726  70.530  1.00  0.00    -0.257 C  
ENDBRANCH   3  12
TORSDOF 5
ENDMDL
MODEL      186
REMARK 921   NORMALIZED FREE ENERGY PREDICTED BY IDOCK:   -3.29 KCAL/MOL
REMARK 922        TOTAL FREE ENERGY PREDICTED BY IDOCK:   -4.93 KCAL/MOL
REMARK 923 INTER-LIGAND FREE ENERGY PREDICTED BY IDOCK:   -4.40 KCAL/MOL
REMARK 924 INTRA-LIGAND FREE ENERGY PREDICTED BY IDOCK:   -0.53 KCAL/MOL
REMARK 927      BINDING AFFINITY PREDICTED BY RF-SCORE:    0.00 PKD
ROOT
HETATM    1  C   UNL     1     -10.065   5.701  68.195  1.00  0.00    -0.212 C  
HETATM    2  C   UNL     1     -10.119   5.052  69.550  1.00  0.00    -0.301 C  
HETATM    3  C   UNL     1     -11.112   6.135  69.208  1.00  0.00    -0.463 C  
ENDROOT
BRANCH   1   4
HETATM    4  C   UNL     1     -10.511   4.991  66.953  1.00  0.00    -0.186 C  
BRANCH   4   5
HETATM    5  N   UNL     1      -9.874   3.685  66.870  1.00  0.00    -0.363 NA 
HETATM    6  H   UNL     1     -10.384   2.846  67.147  1.00  0.00     0.000 HD 
BRANCH   5   7
HETATM    7  C   UNL     1      -8.666   3.596  66.446  1.00  0.00    -0.121 C  
HETATM    8  H   UNL     1      -7.315   4.069  64.983  1.00  0.00     0.000 HD 
HETATM    9  O   UNL     1      -8.210   4.135  65.297  1.00  0.00    -0.100 OA 
BRANCH   7  10
HETATM   10  C   UNL     1      -7.593   2.847  67.183  1.00  0.00    -0.070 C  
HETATM   11  C   UNL     1      -6.922   1.824  66.285  1.00  0.00    -0.043 C  
ENDBRANCH   7  10
ENDBRANCH   5   7
ENDBRANCH   4   5
ENDBRANCH   1   4
BRANCH   3  12
HETATM   12  C   UNL     1     -11.058   7.500  69.852  1.00  0.00    -0.185 A  
HETATM   13  C   UNL     1     -10.079   8.444  69.481  1.00  0.00    -0.200 A  
HETATM   14  C   UNL     1     -10.084   9.760  69.978  1.00  0.00    -0.301 A  
HETATM   15  C   UNL     1     -11.075  10.174  70.863  1.00  0.00    -0.326 A  
HETATM   16  C   UNL     1     -12.022   7.948  70.755  1.00  0.00    -0.146 A  
HETATM   17  C   UNL     1     -13.175   7.216  71.326  1.00  0.00    -0.340 C  
HETATM   18  C   UNL     1     -12.026   9.250  71.237  1.00  0.00    -0.340 A  
HETATM   19  O   UNL     1     -13.061   9.538  72.084  1.00  0.00    -0.404 OA 
HETATM   20  C   UNL     1     -13.806   8.306  72.195  1.00  0.00    -0.296 C  
ENDBRANCH   3  12
TORSDOF 5
ENDMDL
MODEL      187
REMARK 921   NORMALIZED FREE ENERGY PREDICTED BY IDOCK:   -3.29 KCAL/MOL
REMARK 922        TOTAL FREE ENERGY PREDICTED BY IDOCK:   -4.93 KCAL/MOL
REMARK 923 INTER-LIGAND FREE ENERGY PREDICTED BY IDOCK:   -4.36 KCAL/MOL
REMARK 924 INTRA-LIGAND FREE ENERGY PREDICTED BY IDOCK:   -0.56 KCAL/MOL
REMARK 927      BINDING AFFINITY PREDICTED BY RF-SCORE:    0.00 PKD
ROOT
HETATM    1  C   UNL     1      -8.576   8.016  69.558  1.00  0.00    -0.136 C  
HETATM    2  C   UNL     1      -8.768   7.144  70.767  1.00  0.00    -0.147 C  
HETATM    3  C   UNL     1      -9.973   7.592  69.980  1.00  0.00    -0.186 C  
ENDROOT
BRANCH   1   4
HETATM    4  C   UNL     1      -8.016   7.485  68.273  1.00  0.00    -0.123 C  
BRANCH   4   5
HETATM    5  N   UNL     1      -8.371   8.370  67.173  1.00  0.00    -0.121 NA 
HETATM    6  H   UNL     1      -8.603   7.984  66.258  1.00  0.00     0.000 HD 
BRANCH   5   7
HETATM    7  C   UNL     1      -8.389   9.639  67.362  1.00  0.00    -0.114 C  
HETATM    8  H   UNL     1      -9.512  11.346  67.485  1.00  0.00     0.000 HD 
HETATM    9  O   UNL     1      -9.498  10.406  67.345  1.00  0.00    -0.148 OA 
BRANCH   7  10
HETATM   10  C   UNL     1      -7.149  10.447  67.614  1.00  0.00    -0.085 C  
HETATM   11  C   UNL     1      -6.379  10.687  66.328  1.00  0.00    -0.119 C  
ENDBRANCH   7  10
ENDBRANCH   5   7
ENDBRANCH   4   5
ENDBRANCH   1   4
BRANCH   3  12
HETATM   12  C   UNL     1     -10.960   8.593  70.531  1.00  0.00    -0.266 A  
HETATM   13  C   UNL     1     -10.745   9.980  70.399  1.00  0.00    -0.369 A  
HETATM   14  C   UNL     1     -11.707  10.927  70.798  1.00  0.00    -0.355 A  
HETATM   15  C   UNL     1     -12.920  10.513  71.338  1.00  0.00    -0.542 A  
HETATM   16  C   UNL     1     -12.180   8.219  71.095  1.00  0.00    -0.253 A  
HETATM   17  C   UNL     1     -12.709   6.861  71.357  1.00  0.00    -0.384 C  
HETATM   18  C   UNL     1     -13.129   9.158  71.480  1.00  0.00    -0.349 A  
HETATM   19  O   UNL     1     -14.285   8.624  71.980  1.00  0.00    -0.427 OA 
HETATM   20  C   UNL     1     -14.081   7.195  71.946  1.00  0.00    -0.239 C  
ENDBRANCH   3  12
TORSDOF 5
ENDMDL
MODEL      188
REMARK 921   NORMALIZED FREE ENERGY PREDICTED BY IDOCK:   -3.27 KCAL/MOL
REMARK 922        TOTAL FREE ENERGY PREDICTED BY IDOCK:   -4.90 KCAL/MOL
REMARK 923 INTER-LIGAND FREE ENERGY PREDICTED BY IDOCK:   -4.51 KCAL/MOL
REMARK 924 INTRA-LIGAND FREE ENERGY PREDICTED BY IDOCK:   -0.39 KCAL/MOL
REMARK 927      BINDING AFFINITY PREDICTED BY RF-SCORE:    0.00 PKD
ROOT
HETATM    1  C   UNL     1     -10.425   6.401  68.563  1.00  0.00    -0.265 C  
HETATM    2  C   UNL     1     -10.795   7.034  67.250  1.00  0.00    -0.403 C  
HETATM    3  C   UNL     1     -10.688   5.533  67.343  1.00  0.00    -0.224 C  
ENDROOT
BRANCH   1   4
HETATM    4  C   UNL     1     -11.381   6.338  69.715  1.00  0.00    -0.436 C  
BRANCH   4   5
HETATM    5  N   UNL     1     -11.613   7.675  70.242  1.00  0.00    -0.477 NA 
HETATM    6  H   UNL     1     -11.537   8.489  69.632  1.00  0.00     0.000 HD 
BRANCH   5   7
HETATM    7  C   UNL     1     -11.917   7.823  71.480  1.00  0.00    -0.300 C  
HETATM    8  H   UNL     1     -11.681   7.159  73.402  1.00  0.00     0.000 HD 
HETATM    9  O   UNL     1     -11.457   7.050  72.485  1.00  0.00    -0.266 OA 
BRANCH   7  10
HETATM   10  C   UNL     1     -12.856   8.886  71.971  1.00  0.00    -0.456 C  
HETATM   11  C   UNL     1     -12.718  10.160  71.159  1.00  0.00    -0.494 C  
ENDBRANCH   7  10
ENDBRANCH   5   7
ENDBRANCH   4   5
ENDBRANCH   1   4
BRANCH   3  12
HETATM   12  C   UNL     1      -9.571   4.768  66.672  1.00  0.00    -0.182 A  
HETATM   13  C   UNL     1      -8.325   4.588  67.307  1.00  0.00    -0.104 A  
HETATM   14  C   UNL     1      -7.315   3.780  66.754  1.00  0.00    -0.068 A  
HETATM   15  C   UNL     1      -7.523   3.121  65.547  1.00  0.00    -0.076 A  
HETATM   16  C   UNL     1      -9.733   4.107  65.455  1.00  0.00    -0.201 A  
HETATM   17  C   UNL     1     -10.910   4.083  64.556  1.00  0.00    -0.142 C  
HETATM   18  C   UNL     1      -8.735   3.305  64.918  1.00  0.00    -0.110 A  
HETATM   19  O   UNL     1      -9.068   2.699  63.738  1.00  0.00    -0.096 OA 
HETATM   20  C   UNL     1     -10.407   3.156  63.448  1.00  0.00    -0.205 C  
ENDBRANCH   3  12
TORSDOF 5
ENDMDL
MODEL      189
REMARK 921   NORMALIZED FREE ENERGY PREDICTED BY IDOCK:   -3.25 KCAL/MOL
REMARK 922        TOTAL FREE ENERGY PREDICTED BY IDOCK:   -4.87 KCAL/MOL
REMARK 923 INTER-LIGAND FREE ENERGY PREDICTED BY IDOCK:   -4.40 KCAL/MOL
REMARK 924 INTRA-LIGAND FREE ENERGY PREDICTED BY IDOCK:   -0.47 KCAL/MOL
REMARK 927      BINDING AFFINITY PREDICTED BY RF-SCORE:    0.00 PKD
ROOT
HETATM    1  C   UNL     1      -9.500   7.791  69.723  1.00  0.00    -0.160 C  
HETATM    2  C   UNL     1      -9.860   7.977  68.275  1.00  0.00    -0.190 C  
HETATM    3  C   UNL     1     -10.477   6.840  69.050  1.00  0.00    -0.229 C  
ENDROOT
BRANCH   1   4
HETATM    4  C   UNL     1     -10.007   8.708  70.795  1.00  0.00    -0.197 C  
BRANCH   4   5
HETATM    5  N   UNL     1     -10.247  10.033  70.243  1.00  0.00    -0.378 NA 
HETATM    6  H   UNL     1      -9.463  10.624  69.966  1.00  0.00     0.000 HD 
BRANCH   5   7
HETATM    7  C   UNL     1     -11.452  10.453  70.106  1.00  0.00    -0.319 C  
HETATM    8  H   UNL     1     -13.312  10.646  70.936  1.00  0.00     0.000 HD 
HETATM    9  O   UNL     1     -12.420  10.335  71.037  1.00  0.00    -0.322 OA 
BRANCH   7  10
HETATM   10  C   UNL     1     -11.948  11.124  68.858  1.00  0.00    -0.367 C  
HETATM   11  C   UNL     1     -11.734  12.625  68.920  1.00  0.00    -0.370 C  
ENDBRANCH   7  10
ENDBRANCH   5   7
ENDBRANCH   4   5
ENDBRANCH   1   4
BRANCH   3  12
HETATM   12  C   UNL     1     -10.107   5.400  68.784  1.00  0.00    -0.255 A  
HETATM   13  C   UNL     1      -9.856   4.940  67.475  1.00  0.00    -0.207 A  
HETATM   14  C   UNL     1      -9.394   3.636  67.216  1.00  0.00    -0.235 A  
HETATM   15  C   UNL     1      -9.166   2.750  68.264  1.00  0.00    -0.250 A  
HETATM   16  C   UNL     1      -9.885   4.476  69.805  1.00  0.00    -0.295 A  
HETATM   17  C   UNL     1     -10.043   4.646  71.267  1.00  0.00    -0.245 C  
HETATM   18  C   UNL     1      -9.422   3.192  69.544  1.00  0.00    -0.120 A  
HETATM   19  O   UNL     1      -9.221   2.425  70.658  1.00  0.00    -0.107 OA 
HETATM   20  C   UNL     1      -9.605   3.268  71.766  1.00  0.00    -0.156 C  
ENDBRANCH   3  12
TORSDOF 5
ENDMDL
MODEL      190
REMARK 921   NORMALIZED FREE ENERGY PREDICTED BY IDOCK:   -3.25 KCAL/MOL
REMARK 922        TOTAL FREE ENERGY PREDICTED BY IDOCK:   -4.87 KCAL/MOL
REMARK 923 INTER-LIGAND FREE ENERGY PREDICTED BY IDOCK:   -4.35 KCAL/MOL
REMARK 924 INTRA-LIGAND FREE ENERGY PREDICTED BY IDOCK:   -0.52 KCAL/MOL
REMARK 927      BINDING AFFINITY PREDICTED BY RF-SCORE:    0.00 PKD
ROOT
HETATM    1  C   UNL     1      -9.390  12.200  68.028  1.00  0.00    -0.197 C  
HETATM    2  C   UNL     1      -8.397  11.554  67.104  1.00  0.00    -0.160 C  
HETATM    3  C   UNL     1      -9.283  10.686  67.962  1.00  0.00    -0.148 C  
ENDROOT
BRANCH   1   4
HETATM    4  C   UNL     1     -10.638  12.859  67.523  1.00  0.00    -0.226 C  
BRANCH   4   5
HETATM    5  N   UNL     1     -10.297  14.033  66.733  1.00  0.00    -0.269 NA 
HETATM    6  H   UNL     1      -9.566  14.671  67.049  1.00  0.00     0.000 HD 
BRANCH   5   7
HETATM    7  C   UNL     1     -10.920  14.259  65.634  1.00  0.00    -0.309 C  
HETATM    8  H   UNL     1     -10.888  15.133  63.784  1.00  0.00     0.000 HD 
HETATM    9  O   UNL     1     -10.426  14.965  64.598  1.00  0.00    -0.337 OA 
BRANCH   7  10
HETATM   10  C   UNL     1     -12.315  13.769  65.369  1.00  0.00    -0.504 C  
HETATM   11  C   UNL     1     -12.432  13.169  63.981  1.00  0.00    -0.346 C  
ENDBRANCH   7  10
ENDBRANCH   5   7
ENDBRANCH   4   5
ENDBRANCH   1   4
BRANCH   3  12
HETATM   12  C   UNL     1      -8.736   9.889  69.123  1.00  0.00    -0.159 A  
HETATM   13  C   UNL     1      -7.376   9.521  69.181  1.00  0.00    -0.072 A  
HETATM   14  C   UNL     1      -6.821   8.885  70.306  1.00  0.00    -0.045 A  
HETATM   15  C   UNL     1      -7.612   8.602  71.415  1.00  0.00    -0.136 A  
HETATM   16  C   UNL     1      -9.499   9.570  70.246  1.00  0.00    -0.307 A  
HETATM   17  C   UNL     1     -10.934   9.828  70.502  1.00  0.00    -0.384 C  
HETATM   18  C   UNL     1      -8.944   8.950  71.358  1.00  0.00    -0.229 A  
HETATM   19  O   UNL     1      -9.820   8.742  72.388  1.00  0.00    -0.284 OA 
HETATM   20  C   UNL     1     -11.083   9.252  71.912  1.00  0.00    -0.238 C  
ENDBRANCH   3  12
TORSDOF 5
ENDMDL
MODEL      191
REMARK 921   NORMALIZED FREE ENERGY PREDICTED BY IDOCK:   -3.23 KCAL/MOL
REMARK 922        TOTAL FREE ENERGY PREDICTED BY IDOCK:   -4.85 KCAL/MOL
REMARK 923 INTER-LIGAND FREE ENERGY PREDICTED BY IDOCK:   -4.35 KCAL/MOL
REMARK 924 INTRA-LIGAND FREE ENERGY PREDICTED BY IDOCK:   -0.51 KCAL/MOL
REMARK 927      BINDING AFFINITY PREDICTED BY RF-SCORE:    0.00 PKD
ROOT
HETATM    1  C   UNL     1      -5.793  18.639  69.228  1.00  0.00    -0.239 C  
HETATM    2  C   UNL     1      -5.783  20.141  69.287  1.00  0.00    -0.320 C  
HETATM    3  C   UNL     1      -7.096  19.407  69.380  1.00  0.00    -0.309 C  
ENDROOT
BRANCH   1   4
HETATM    4  C   UNL     1      -5.315  17.794  70.369  1.00  0.00    -0.263 C  
BRANCH   4   5
HETATM    5  N   UNL     1      -5.151  16.415  69.932  1.00  0.00    -0.133 NA 
HETATM    6  H   UNL     1      -4.338  15.875  70.227  1.00  0.00     0.000 HD 
BRANCH   5   7
HETATM    7  C   UNL     1      -6.039  15.883  69.173  1.00  0.00    -0.129 C  
HETATM    8  H   UNL     1      -6.844  15.749  67.296  1.00  0.00     0.000 HD 
HETATM    9  O   UNL     1      -6.186  16.142  67.858  1.00  0.00    -0.108 OA 
BRANCH   7  10
HETATM   10  C   UNL     1      -7.057  14.898  69.671  1.00  0.00    -0.179 C  
HETATM   11  C   UNL     1      -7.669  14.114  68.524  1.00  0.00    -0.138 C  
ENDBRANCH   7  10
ENDBRANCH   5   7
ENDBRANCH   4   5
ENDBRANCH   1   4
BRANCH   3  12
HETATM   12  C   UNL     1      -8.114  19.447  68.265  1.00  0.00    -0.371 A  
HETATM   13  C   UNL     1      -7.999  20.366  67.203  1.00  0.00    -0.379 A  
HETATM   14  C   UNL     1      -8.866  20.342  66.095  1.00  0.00    -0.177 A  
HETATM   15  C   UNL     1      -9.876  19.389  66.014  1.00  0.00    -0.383 A  
HETATM   16  C   UNL     1      -9.152  18.520  68.156  1.00  0.00    -0.329 A  
HETATM   17  C   UNL     1      -9.530  17.430  69.083  1.00  0.00    -0.025 C  
HETATM   18  C   UNL     1     -10.000  18.496  67.056  1.00  0.00    -0.344 A  
HETATM   19  O   UNL     1     -10.939  17.502  67.087  1.00  0.00    -0.161 OA 
HETATM   20  C   UNL     1     -10.711  16.811  68.334  1.00  0.00    -0.362 C  
ENDBRANCH   3  12
TORSDOF 5
ENDMDL
MODEL      192
REMARK 921   NORMALIZED FREE ENERGY PREDICTED BY IDOCK:   -3.20 KCAL/MOL
REMARK 922        TOTAL FREE ENERGY PREDICTED BY IDOCK:   -4.81 KCAL/MOL
REMARK 923 INTER-LIGAND FREE ENERGY PREDICTED BY IDOCK:   -4.25 KCAL/MOL
REMARK 924 INTRA-LIGAND FREE ENERGY PREDICTED BY IDOCK:   -0.55 KCAL/MOL
REMARK 927      BINDING AFFINITY PREDICTED BY RF-SCORE:    0.00 PKD
ROOT
HETATM    1  C   UNL     1     -11.026   6.153  67.380  1.00  0.00    -0.409 C  
HETATM    2  C   UNL     1     -10.616   7.588  67.203  1.00  0.00    -0.415 C  
HETATM    3  C   UNL     1     -10.104   6.814  68.391  1.00  0.00    -0.168 C  
ENDROOT
BRANCH   1   4
HETATM    4  C   UNL     1     -10.482   5.056  66.516  1.00  0.00    -0.276 C  
BRANCH   4   5
HETATM    5  N   UNL     1      -9.578   5.611  65.518  1.00  0.00    -0.366 NA 
HETATM    6  H   UNL     1      -9.883   6.377  64.918  1.00  0.00     0.000 HD 
BRANCH   5   7
HETATM    7  C   UNL     1      -8.395   5.128  65.399  1.00  0.00    -0.132 C  
HETATM    8  H   UNL     1      -6.631   4.645  66.317  1.00  0.00     0.000 HD 
HETATM    9  O   UNL     1      -7.507   5.002  66.405  1.00  0.00    -0.084 OA 
BRANCH   7  10
HETATM   10  C   UNL     1      -7.835   4.650  64.090  1.00  0.00    -0.087 C  
HETATM   11  C   UNL     1      -7.548   3.160  64.126  1.00  0.00    -0.075 C  
ENDBRANCH   7  10
ENDBRANCH   5   7
ENDBRANCH   4   5
ENDBRANCH   1   4
BRANCH   3  12
HETATM   12  C   UNL     1     -10.571   7.110  69.797  1.00  0.00    -0.250 A  
HETATM   13  C   UNL     1     -11.864   6.751  70.228  1.00  0.00    -0.359 A  
HETATM   14  C   UNL     1     -12.277   6.907  71.564  1.00  0.00    -0.415 A  
HETATM   15  C   UNL     1     -11.403   7.425  72.515  1.00  0.00    -0.358 A  
HETATM   16  C   UNL     1      -9.732   7.644  70.775  1.00  0.00    -0.173 A  
HETATM   17  C   UNL     1      -8.330   8.104  70.652  1.00  0.00    -0.123 C  
HETATM   18  C   UNL     1     -10.142   7.789  72.094  1.00  0.00    -0.210 A  
HETATM   19  O   UNL     1      -9.187   8.293  72.933  1.00  0.00    -0.253 OA 
HETATM   20  C   UNL     1      -8.037   8.526  72.092  1.00  0.00    -0.101 C  
ENDBRANCH   3  12
TORSDOF 5
ENDMDL
MODEL      193
REMARK 921   NORMALIZED FREE ENERGY PREDICTED BY IDOCK:   -3.20 KCAL/MOL
REMARK 922        TOTAL FREE ENERGY PREDICTED BY IDOCK:   -4.81 KCAL/MOL
REMARK 923 INTER-LIGAND FREE ENERGY PREDICTED BY IDOCK:   -4.27 KCAL/MOL
REMARK 924 INTRA-LIGAND FREE ENERGY PREDICTED BY IDOCK:   -0.54 KCAL/MOL
REMARK 927      BINDING AFFINITY PREDICTED BY RF-SCORE:    0.00 PKD
ROOT
HETATM    1  C   UNL     1     -10.435  10.836  67.134  1.00  0.00    -0.285 C  
HETATM    2  C   UNL     1      -9.036  10.682  67.663  1.00  0.00    -0.145 C  
HETATM    3  C   UNL     1      -9.497   9.808  66.524  1.00  0.00    -0.228 C  
ENDROOT
BRANCH   1   4
HETATM    4  C   UNL     1     -10.850  12.016  66.309  1.00  0.00    -0.279 C  
BRANCH   4   5
HETATM    5  N   UNL     1     -10.148  13.209  66.758  1.00  0.00    -0.248 NA 
HETATM    6  H   UNL     1      -9.150  13.171  66.966  1.00  0.00     0.000 HD 
BRANCH   5   7
HETATM    7  C   UNL     1     -10.794  14.310  66.892  1.00  0.00    -0.298 C  
HETATM    8  H   UNL     1     -10.816  16.338  66.615  1.00  0.00     0.000 HD 
HETATM    9  O   UNL     1     -10.338  15.522  66.516  1.00  0.00    -0.272 OA 
BRANCH   7  10
HETATM   10  C   UNL     1     -12.158  14.388  67.514  1.00  0.00    -0.327 C  
HETATM   11  C   UNL     1     -12.087  14.205  69.018  1.00  0.00    -0.348 C  
ENDBRANCH   7  10
ENDBRANCH   5   7
ENDBRANCH   4   5
ENDBRANCH   1   4
BRANCH   3  12
HETATM   12  C   UNL     1      -9.738   8.327  66.702  1.00  0.00    -0.321 A  
HETATM   13  C   UNL     1     -10.758   7.850  67.550  1.00  0.00    -0.252 A  
HETATM   14  C   UNL     1     -11.079   6.483  67.638  1.00  0.00    -0.380 A  
HETATM   15  C   UNL     1     -10.389   5.548  66.872  1.00  0.00    -0.315 A  
HETATM   16  C   UNL     1      -9.057   7.357  65.966  1.00  0.00    -0.129 A  
HETATM   17  C   UNL     1      -7.957   7.528  64.990  1.00  0.00    -0.132 C  
HETATM   18  C   UNL     1      -9.383   6.010  66.051  1.00  0.00    -0.076 A  
HETATM   19  O   UNL     1      -8.645   5.196  65.236  1.00  0.00    -0.138 OA 
HETATM   20  C   UNL     1      -7.725   6.079  64.560  1.00  0.00    -0.100 C  
ENDBRANCH   3  12
TORSDOF 5
ENDMDL
MODEL      194
REMARK 921   NORMALIZED FREE ENERGY PREDICTED BY IDOCK:   -3.20 KCAL/MOL
REMARK 922        TOTAL FREE ENERGY PREDICTED BY IDOCK:   -4.80 KCAL/MOL
REMARK 923 INTER-LIGAND FREE ENERGY PREDICTED BY IDOCK:   -4.41 KCAL/MOL
REMARK 924 INTRA-LIGAND FREE ENERGY PREDICTED BY IDOCK:   -0.40 KCAL/MOL
REMARK 927      BINDING AFFINITY PREDICTED BY RF-SCORE:    0.00 PKD
ROOT
HETATM    1  C   UNL     1     -10.489   6.317  68.462  1.00  0.00    -0.273 C  
HETATM    2  C   UNL     1     -11.025   6.850  67.163  1.00  0.00    -0.427 C  
HETATM    3  C   UNL     1     -10.767   5.372  67.305  1.00  0.00    -0.180 C  
ENDROOT
BRANCH   1   4
HETATM    4  C   UNL     1     -11.336   6.220  69.694  1.00  0.00    -0.422 C  
BRANCH   4   5
HETATM    5  N   UNL     1     -11.707   7.552  70.149  1.00  0.00    -0.497 NA 
HETATM    6  H   UNL     1     -11.619   8.352  69.523  1.00  0.00     0.000 HD 
BRANCH   5   7
HETATM    7  C   UNL     1     -12.146   7.712  71.344  1.00  0.00    -0.316 C  
HETATM    8  H   UNL     1     -11.858   7.385  73.344  1.00  0.00     0.000 HD 
HETATM    9  O   UNL     1     -11.533   7.267  72.459  1.00  0.00    -0.289 OA 
BRANCH   7  10
HETATM   10  C   UNL     1     -13.437   8.415  71.654  1.00  0.00    -0.363 C  
HETATM   11  C   UNL     1     -13.194   9.861  72.046  1.00  0.00    -0.555 C  
ENDBRANCH   7  10
ENDBRANCH   5   7
ENDBRANCH   4   5
ENDBRANCH   1   4
BRANCH   3  12
HETATM   12  C   UNL     1      -9.641   4.683  66.570  1.00  0.00    -0.190 A  
HETATM   13  C   UNL     1      -9.041   5.271  65.437  1.00  0.00    -0.124 A  
HETATM   14  C   UNL     1      -7.915   4.707  64.810  1.00  0.00    -0.096 A  
HETATM   15  C   UNL     1      -7.349   3.535  65.303  1.00  0.00    -0.072 A  
HETATM   16  C   UNL     1      -9.056   3.500  67.021  1.00  0.00    -0.188 A  
HETATM   17  C   UNL     1      -9.434   2.654  68.175  1.00  0.00    -0.217 C  
HETATM   18  C   UNL     1      -7.940   2.952  66.403  1.00  0.00    -0.081 A  
HETATM   19  O   UNL     1      -7.468   1.811  66.992  1.00  0.00    -0.058 OA 
HETATM   20  C   UNL     1      -8.367   1.562  68.094  1.00  0.00    -0.059 C  
ENDBRANCH   3  12
TORSDOF 5
ENDMDL
MODEL      195
REMARK 921   NORMALIZED FREE ENERGY PREDICTED BY IDOCK:   -3.19 KCAL/MOL
REMARK 922        TOTAL FREE ENERGY PREDICTED BY IDOCK:   -4.79 KCAL/MOL
REMARK 923 INTER-LIGAND FREE ENERGY PREDICTED BY IDOCK:   -4.28 KCAL/MOL
REMARK 924 INTRA-LIGAND FREE ENERGY PREDICTED BY IDOCK:   -0.52 KCAL/MOL
REMARK 927      BINDING AFFINITY PREDICTED BY RF-SCORE:    0.00 PKD
ROOT
HETATM    1  C   UNL     1      -9.349   7.237  72.651  1.00  0.00    -0.176 C  
HETATM    2  C   UNL     1     -10.717   7.726  73.037  1.00  0.00    -0.446 C  
HETATM    3  C   UNL     1     -10.499   7.150  71.660  1.00  0.00    -0.218 C  
ENDROOT
BRANCH   1   4
HETATM    4  C   UNL     1      -8.771   5.968  73.200  1.00  0.00    -0.121 C  
BRANCH   4   5
HETATM    5  N   UNL     1      -9.520   4.824  72.701  1.00  0.00    -0.133 NA 
HETATM    6  H   UNL     1     -10.230   4.949  71.980  1.00  0.00     0.000 HD 
BRANCH   5   7
HETATM    7  C   UNL     1      -9.280   3.656  73.176  1.00  0.00    -0.102 C  
HETATM    8  H   UNL     1      -8.056   2.016  73.177  1.00  0.00     0.000 HD 
HETATM    9  O   UNL     1      -8.234   2.881  72.827  1.00  0.00    -0.068 OA 
BRANCH   7  10
HETATM   10  C   UNL     1     -10.166   2.985  74.186  1.00  0.00    -0.202 C  
HETATM   11  C   UNL     1     -11.454   2.498  73.550  1.00  0.00    -0.260 C  
ENDBRANCH   7  10
ENDBRANCH   5   7
ENDBRANCH   4   5
ENDBRANCH   1   4
BRANCH   3  12
HETATM   12  C   UNL     1     -10.529   8.013  70.421  1.00  0.00    -0.218 A  
HETATM   13  C   UNL     1     -10.332   9.407  70.495  1.00  0.00    -0.341 A  
HETATM   14  C   UNL     1     -10.237  10.211  69.345  1.00  0.00    -0.246 A  
HETATM   15  C   UNL     1     -10.331   9.641  68.079  1.00  0.00    -0.262 A  
HETATM   16  C   UNL     1     -10.639   7.483  69.135  1.00  0.00    -0.204 A  
HETATM   17  C   UNL     1     -10.835   6.076  68.719  1.00  0.00    -0.391 C  
HETATM   18  C   UNL     1     -10.536   8.281  68.002  1.00  0.00    -0.181 A  
HETATM   19  O   UNL     1     -10.628   7.600  66.819  1.00  0.00    -0.325 OA 
HETATM   20  C   UNL     1     -10.832   6.222  67.197  1.00  0.00    -0.381 C  
ENDBRANCH   3  12
TORSDOF 5
ENDMDL
MODEL      196
REMARK 921   NORMALIZED FREE ENERGY PREDICTED BY IDOCK:   -3.18 KCAL/MOL
REMARK 922        TOTAL FREE ENERGY PREDICTED BY IDOCK:   -4.78 KCAL/MOL
REMARK 923 INTER-LIGAND FREE ENERGY PREDICTED BY IDOCK:   -4.36 KCAL/MOL
REMARK 924 INTRA-LIGAND FREE ENERGY PREDICTED BY IDOCK:   -0.42 KCAL/MOL
REMARK 927      BINDING AFFINITY PREDICTED BY RF-SCORE:    0.00 PKD
ROOT
HETATM    1  C   UNL     1      -9.507  10.162  68.900  1.00  0.00    -0.183 C  
HETATM    2  C   UNL     1      -9.132  11.616  68.844  1.00  0.00     0.060 C  
HETATM    3  C   UNL     1      -9.922  11.012  67.711  1.00  0.00    -0.194 C  
ENDROOT
BRANCH   1   4
HETATM    4  C   UNL     1     -10.568   9.648  69.826  1.00  0.00    -0.242 C  
BRANCH   4   5
HETATM    5  N   UNL     1     -10.415   8.212  70.009  1.00  0.00    -0.226 NA 
HETATM    6  H   UNL     1      -9.587   7.734  69.654  1.00  0.00     0.000 HD 
BRANCH   5   7
HETATM    7  C   UNL     1     -11.329   7.551  70.621  1.00  0.00    -0.281 C  
HETATM    8  H   UNL     1     -12.552   5.910  70.635  1.00  0.00     0.000 HD 
HETATM    9  O   UNL     1     -11.875   6.399  70.182  1.00  0.00    -0.409 OA 
BRANCH   7  10
HETATM   10  C   UNL     1     -11.932   8.000  71.921  1.00  0.00    -0.359 C  
HETATM   11  C   UNL     1     -11.144   7.469  73.104  1.00  0.00    -0.378 C  
ENDBRANCH   7  10
ENDBRANCH   5   7
ENDBRANCH   4   5
ENDBRANCH   1   4
BRANCH   3  12
HETATM   12  C   UNL     1      -9.318  10.792  66.344  1.00  0.00    -0.198 A  
HETATM   13  C   UNL     1      -8.069  10.155  66.191  1.00  0.00    -0.123 A  
HETATM   14  C   UNL     1      -7.544   9.832  64.927  1.00  0.00    -0.128 A  
HETATM   15  C   UNL     1      -8.257  10.134  63.771  1.00  0.00    -0.163 A  
HETATM   16  C   UNL     1      -9.993  11.095  65.161  1.00  0.00    -0.323 A  
HETATM   17  C   UNL     1     -11.311  11.744  64.980  1.00  0.00    -0.288 C  
HETATM   18  C   UNL     1      -9.473  10.768  63.916  1.00  0.00    -0.274 A  
HETATM   19  O   UNL     1     -10.277  11.101  62.861  1.00  0.00    -0.256 OA 
HETATM   20  C   UNL     1     -11.433  11.729  63.456  1.00  0.00    -0.394 C  
ENDBRANCH   3  12
TORSDOF 5
ENDMDL
MODEL      197
REMARK 921   NORMALIZED FREE ENERGY PREDICTED BY IDOCK:   -3.17 KCAL/MOL
REMARK 922        TOTAL FREE ENERGY PREDICTED BY IDOCK:   -4.77 KCAL/MOL
REMARK 923 INTER-LIGAND FREE ENERGY PREDICTED BY IDOCK:   -4.67 KCAL/MOL
REMARK 924 INTRA-LIGAND FREE ENERGY PREDICTED BY IDOCK:   -0.10 KCAL/MOL
REMARK 927      BINDING AFFINITY PREDICTED BY RF-SCORE:    0.00 PKD
ROOT
HETATM    1  C   UNL     1      -9.131   7.870  67.988  1.00  0.00    -0.132 C  
HETATM    2  C   UNL     1      -8.411   6.861  68.839  1.00  0.00    -0.125 C  
HETATM    3  C   UNL     1      -9.919   6.896  68.849  1.00  0.00    -0.158 C  
ENDROOT
BRANCH   1   4
HETATM    4  C   UNL     1      -9.211   7.743  66.497  1.00  0.00    -0.184 C  
BRANCH   4   5
HETATM    5  N   UNL     1     -10.084   8.775  65.956  1.00  0.00    -0.422 NA 
HETATM    6  H   UNL     1     -11.095   8.640  65.950  1.00  0.00     0.000 HD 
BRANCH   5   7
HETATM    7  C   UNL     1      -9.573   9.855  65.488  1.00  0.00    -0.277 C  
HETATM    8  H   UNL     1      -9.006  11.788  65.847  1.00  0.00     0.000 HD 
HETATM    9  O   UNL     1      -9.384  10.988  66.193  1.00  0.00    -0.179 OA 
BRANCH   7  10
HETATM   10  C   UNL     1      -9.131   9.999  64.060  1.00  0.00    -0.296 C  
HETATM   11  C   UNL     1     -10.135  10.801  63.253  1.00  0.00    -0.314 C  
ENDBRANCH   7  10
ENDBRANCH   5   7
ENDBRANCH   4   5
ENDBRANCH   1   4
BRANCH   3  12
HETATM   12  C   UNL     1     -10.698   7.371  70.053  1.00  0.00    -0.258 A  
HETATM   13  C   UNL     1     -10.854   6.554  71.191  1.00  0.00    -0.296 A  
HETATM   14  C   UNL     1     -11.471   7.019  72.367  1.00  0.00    -0.300 A  
HETATM   15  C   UNL     1     -11.949   8.323  72.441  1.00  0.00    -0.447 A  
HETATM   16  C   UNL     1     -11.208   8.665  70.161  1.00  0.00    -0.152 A  
HETATM   17  C   UNL     1     -11.195   9.758  69.163  1.00  0.00    -0.101 C  
HETATM   18  C   UNL     1     -11.809   9.121  71.326  1.00  0.00    -0.327 A  
HETATM   19  O   UNL     1     -12.221  10.425  71.279  1.00  0.00    -0.356 OA 
HETATM   20  C   UNL     1     -11.881  10.875  69.950  1.00  0.00    -0.349 C  
ENDBRANCH   3  12
TORSDOF 5
ENDMDL
MODEL      198
REMARK 921   NORMALIZED FREE ENERGY PREDICTED BY IDOCK:   -3.15 KCAL/MOL
REMARK 922        TOTAL FREE ENERGY PREDICTED BY IDOCK:   -4.75 KCAL/MOL
REMARK 923 INTER-LIGAND FREE ENERGY PREDICTED BY IDOCK:   -4.09 KCAL/MOL
REMARK 924 INTRA-LIGAND FREE ENERGY PREDICTED BY IDOCK:   -0.66 KCAL/MOL
REMARK 927      BINDING AFFINITY PREDICTED BY RF-SCORE:    0.00 PKD
ROOT
HETATM    1  C   UNL     1      -9.948   7.789  70.472  1.00  0.00    -0.187 C  
HETATM    2  C   UNL     1     -11.133   7.338  71.278  1.00  0.00    -0.270 C  
HETATM    3  C   UNL     1     -11.349   8.232  70.084  1.00  0.00    -0.060 C  
ENDROOT
BRANCH   1   4
HETATM    4  C   UNL     1      -9.204   6.861  69.560  1.00  0.00    -0.148 C  
BRANCH   4   5
HETATM    5  N   UNL     1      -8.569   5.805  70.334  1.00  0.00    -0.131 NA 
HETATM    6  H   UNL     1      -9.136   5.088  70.788  1.00  0.00     0.000 HD 
BRANCH   5   7
HETATM    7  C   UNL     1      -7.291   5.781  70.443  1.00  0.00    -0.080 C  
HETATM    8  H   UNL     1      -5.483   5.690  69.488  1.00  0.00     0.000 HD 
HETATM    9  O   UNL     1      -6.429   5.708  69.408  1.00  0.00    -0.041 OA 
BRANCH   7  10
HETATM   10  C   UNL     1      -6.581   5.815  71.766  1.00  0.00    -0.054 C  
HETATM   11  C   UNL     1      -7.436   6.474  72.832  1.00  0.00    -0.093 C  
ENDBRANCH   7  10
ENDBRANCH   5   7
ENDBRANCH   4   5
ENDBRANCH   1   4
BRANCH   3  12
HETATM   12  C   UNL     1     -11.782   9.671  70.232  1.00  0.00    -0.213 A  
HETATM   13  C   UNL     1     -12.376  10.137  71.423  1.00  0.00    -0.515 A  
HETATM   14  C   UNL     1     -12.677  11.496  71.627  1.00  0.00    -0.396 A  
HETATM   15  C   UNL     1     -12.387  12.436  70.643  1.00  0.00    -0.367 A  
HETATM   16  C   UNL     1     -11.526  10.641  69.262  1.00  0.00    -0.351 A  
HETATM   17  C   UNL     1     -10.909  10.484  67.926  1.00  0.00    -0.333 C  
HETATM   18  C   UNL     1     -11.818  11.983  69.473  1.00  0.00    -0.326 A  
HETATM   19  O   UNL     1     -11.470  12.807  68.438  1.00  0.00    -0.265 OA 
HETATM   20  C   UNL     1     -10.912  11.932  67.435  1.00  0.00    -0.263 C  
ENDBRANCH   3  12
TORSDOF 5
ENDMDL
MODEL      199
REMARK 921   NORMALIZED FREE ENERGY PREDICTED BY IDOCK:   -3.14 KCAL/MOL
REMARK 922        TOTAL FREE ENERGY PREDICTED BY IDOCK:   -4.73 KCAL/MOL
REMARK 923 INTER-LIGAND FREE ENERGY PREDICTED BY IDOCK:   -4.22 KCAL/MOL
REMARK 924 INTRA-LIGAND FREE ENERGY PREDICTED BY IDOCK:   -0.52 KCAL/MOL
REMARK 927      BINDING AFFINITY PREDICTED BY RF-SCORE:    0.00 PKD
ROOT
HETATM    1  C   UNL     1      -8.213  16.475  67.603  1.00  0.00    -0.169 C  
HETATM    2  C   UNL     1      -9.026  15.881  68.719  1.00  0.00    -0.216 C  
HETATM    3  C   UNL     1      -8.880  15.120  67.426  1.00  0.00    -0.199 C  
ENDROOT
BRANCH   1   4
HETATM    4  C   UNL     1      -6.717  16.542  67.655  1.00  0.00    -0.138 C  
BRANCH   4   5
HETATM    5  N   UNL     1      -6.266  16.519  69.039  1.00  0.00    -0.152 NA 
HETATM    6  H   UNL     1      -6.450  17.312  69.653  1.00  0.00     0.000 HD 
BRANCH   5   7
HETATM    7  C   UNL     1      -5.635  15.493  69.481  1.00  0.00    -0.109 C  
HETATM    8  H   UNL     1      -4.731  13.709  69.049  1.00  0.00     0.000 HD 
HETATM    9  O   UNL     1      -5.197  14.469  68.721  1.00  0.00    -0.084 OA 
BRANCH   7  10
HETATM   10  C   UNL     1      -5.317  15.291  70.935  1.00  0.00    -0.124 C  
HETATM   11  C   UNL     1      -5.509  13.843  71.344  1.00  0.00    -0.218 C  
ENDBRANCH   7  10
ENDBRANCH   5   7
ENDBRANCH   4   5
ENDBRANCH   1   4
BRANCH   3  12
HETATM   12  C   UNL     1     -10.036  14.937  66.472  1.00  0.00    -0.279 A  
HETATM   13  C   UNL     1     -10.535  16.016  65.713  1.00  0.00    -0.391 A  
HETATM   14  C   UNL     1     -11.529  15.844  64.732  1.00  0.00    -0.235 A  
HETATM   15  C   UNL     1     -12.054  14.581  64.477  1.00  0.00    -0.501 A  
HETATM   16  C   UNL     1     -10.602  13.691  66.200  1.00  0.00    -0.291 A  
HETATM   17  C   UNL     1     -10.295  12.376  66.806  1.00  0.00    -0.239 C  
HETATM   18  C   UNL     1     -11.578  13.526  65.225  1.00  0.00    -0.311 A  
HETATM   19  O   UNL     1     -11.999  12.236  65.058  1.00  0.00    -0.385 OA 
HETATM   20  C   UNL     1     -11.249  11.470  66.026  1.00  0.00    -0.178 C  
ENDBRANCH   3  12
TORSDOF 5
ENDMDL
MODEL      200
REMARK 921   NORMALIZED FREE ENERGY PREDICTED BY IDOCK:   -3.11 KCAL/MOL
REMARK 922        TOTAL FREE ENERGY PREDICTED BY IDOCK:   -4.70 KCAL/MOL
REMARK 923 INTER-LIGAND FREE ENERGY PREDICTED BY IDOCK:   -4.56 KCAL/MOL
REMARK 924 INTRA-LIGAND FREE ENERGY PREDICTED BY IDOCK:   -0.14 KCAL/MOL
REMARK 927      BINDING AFFINITY PREDICTED BY RF-SCORE:    0.00 PKD
ROOT
HETATM    1  C   UNL     1      -9.804   9.397  68.904  1.00  0.00    -0.176 C  
HETATM    2  C   UNL     1      -9.255  10.561  69.680  1.00  0.00     0.008 C  
HETATM    3  C   UNL     1     -10.514  10.741  68.869  1.00  0.00    -0.228 C  
ENDROOT
BRANCH   1   4
HETATM    4  C   UNL     1     -10.480   8.240  69.574  1.00  0.00    -0.227 C  
BRANCH   4   5
HETATM    5  N   UNL     1     -11.752   8.666  70.140  1.00  0.00    -0.454 NA 
HETATM    6  H   UNL     1     -12.430   9.165  69.563  1.00  0.00     0.000 HD 
BRANCH   5   7
HETATM    7  C   UNL     1     -12.014   8.410  71.370  1.00  0.00    -0.297 C  
HETATM    8  H   UNL     1     -13.008   8.965  73.070  1.00  0.00     0.000 HD 
HETATM    9  O   UNL     1     -12.814   9.155  72.159  1.00  0.00    -0.371 OA 
BRANCH   7  10
HETATM   10  C   UNL     1     -11.435   7.234  72.102  1.00  0.00    -0.310 C  
HETATM   11  C   UNL     1     -10.257   7.651  72.964  1.00  0.00    -0.379 C  
ENDBRANCH   7  10
ENDBRANCH   5   7
ENDBRANCH   4   5
ENDBRANCH   1   4
BRANCH   3  12
HETATM   12  C   UNL     1     -10.541  11.578  67.612  1.00  0.00    -0.235 A  
HETATM   13  C   UNL     1     -11.399  11.259  66.540  1.00  0.00    -0.122 A  
HETATM   14  C   UNL     1     -11.528  12.091  65.413  1.00  0.00    -0.361 A  
HETATM   15  C   UNL     1     -10.803  13.275  65.326  1.00  0.00    -0.314 A  
HETATM   16  C   UNL     1      -9.817  12.763  67.478  1.00  0.00    -0.211 A  
HETATM   17  C   UNL     1      -8.852  13.378  68.418  1.00  0.00    -0.133 C  
HETATM   18  C   UNL     1      -9.954  13.584  66.366  1.00  0.00    -0.295 A  
HETATM   19  O   UNL     1      -9.202  14.726  66.408  1.00  0.00    -0.277 OA 
HETATM   20  C   UNL     1      -8.478  14.650  67.655  1.00  0.00    -0.180 C  
ENDBRANCH   3  12
TORSDOF 5
ENDMDL
MODEL      201
REMARK 921   NORMALIZED FREE ENERGY PREDICTED BY IDOCK:   -3.09 KCAL/MOL
REMARK 922        TOTAL FREE ENERGY PREDICTED BY IDOCK:   -4.67 KCAL/MOL
REMARK 923 INTER-LIGAND FREE ENERGY PREDICTED BY IDOCK:   -4.15 KCAL/MOL
REMARK 924 INTRA-LIGAND FREE ENERGY PREDICTED BY IDOCK:   -0.51 KCAL/MOL
REMARK 927      BINDING AFFINITY PREDICTED BY RF-SCORE:    0.00 PKD
ROOT
HETATM    1  C   UNL     1      -9.493   7.505  72.976  1.00  0.00    -0.255 C  
HETATM    2  C   UNL     1     -10.794   6.941  73.476  1.00  0.00    -0.265 C  
HETATM    3  C   UNL     1     -10.673   7.350  72.029  1.00  0.00    -0.254 C  
ENDROOT
BRANCH   1   4
HETATM    4  C   UNL     1      -8.281   6.649  72.767  1.00  0.00    -0.108 C  
BRANCH   4   5
HETATM    5  N   UNL     1      -8.592   5.564  71.847  1.00  0.00    -0.130 NA 
HETATM    6  H   UNL     1      -9.561   5.345  71.618  1.00  0.00     0.000 HD 
BRANCH   5   7
HETATM    7  C   UNL     1      -7.636   4.883  71.327  1.00  0.00    -0.082 C  
HETATM    8  H   UNL     1      -6.441   4.561  69.697  1.00  0.00     0.000 HD 
HETATM    9  O   UNL     1      -7.148   5.064  70.083  1.00  0.00    -0.051 OA 
BRANCH   7  10
HETATM   10  C   UNL     1      -6.942   3.763  72.047  1.00  0.00    -0.041 C  
HETATM   11  C   UNL     1      -7.753   2.482  71.983  1.00  0.00    -0.048 C  
ENDBRANCH   7  10
ENDBRANCH   5   7
ENDBRANCH   4   5
ENDBRANCH   1   4
BRANCH   3  12
HETATM   12  C   UNL     1     -11.395   8.556  71.477  1.00  0.00    -0.348 A  
HETATM   13  C   UNL     1     -12.427   9.185  72.203  1.00  0.00    -0.436 A  
HETATM   14  C   UNL     1     -13.031  10.377  71.763  1.00  0.00    -0.580 A  
HETATM   15  C   UNL     1     -12.615  10.982  70.581  1.00  0.00    -0.427 A  
HETATM   16  C   UNL     1     -11.020   9.182  70.288  1.00  0.00    -0.279 A  
HETATM   17  C   UNL     1      -9.977   8.788  69.315  1.00  0.00    -0.194 C  
HETATM   18  C   UNL     1     -11.614  10.364  69.863  1.00  0.00    -0.284 A  
HETATM   19  O   UNL     1     -11.106  10.866  68.697  1.00  0.00    -0.212 OA 
HETATM   20  C   UNL     1     -10.091   9.921  68.295  1.00  0.00    -0.161 C  
ENDBRANCH   3  12
TORSDOF 5
ENDMDL
MODEL      202
REMARK 921   NORMALIZED FREE ENERGY PREDICTED BY IDOCK:   -3.09 KCAL/MOL
REMARK 922        TOTAL FREE ENERGY PREDICTED BY IDOCK:   -4.67 KCAL/MOL
REMARK 923 INTER-LIGAND FREE ENERGY PREDICTED BY IDOCK:   -4.38 KCAL/MOL
REMARK 924 INTRA-LIGAND FREE ENERGY PREDICTED BY IDOCK:   -0.29 KCAL/MOL
REMARK 927      BINDING AFFINITY PREDICTED BY RF-SCORE:    0.00 PKD
ROOT
HETATM    1  C   UNL     1      -9.409   9.086  65.413  1.00  0.00    -0.213 C  
HETATM    2  C   UNL     1      -9.652  10.214  64.450  1.00  0.00    -0.366 C  
HETATM    3  C   UNL     1      -9.299  10.527  65.882  1.00  0.00    -0.220 C  
ENDROOT
BRANCH   1   4
HETATM    4  C   UNL     1      -8.169   8.246  65.361  1.00  0.00    -0.145 C  
BRANCH   4   5
HETATM    5  N   UNL     1      -8.520   6.857  65.099  1.00  0.00    -0.314 NA 
HETATM    6  H   UNL     1      -9.491   6.551  65.164  1.00  0.00     0.000 HD 
BRANCH   5   7
HETATM    7  C   UNL     1      -7.599   6.021  64.785  1.00  0.00    -0.090 C  
HETATM    8  H   UNL     1      -7.125   4.109  64.229  1.00  0.00     0.000 HD 
HETATM    9  O   UNL     1      -7.807   4.729  64.462  1.00  0.00    -0.083 OA 
BRANCH   7  10
HETATM   10  C   UNL     1      -6.141   6.381  64.756  1.00  0.00    -0.030 C  
HETATM   11  C   UNL     1      -5.329   5.328  64.025  1.00  0.00    -0.013 C  
ENDBRANCH   7  10
ENDBRANCH   5   7
ENDBRANCH   4   5
ENDBRANCH   1   4
BRANCH   3  12
HETATM   12  C   UNL     1     -10.305  11.116  66.842  1.00  0.00    -0.272 A  
HETATM   13  C   UNL     1     -10.634  10.463  68.047  1.00  0.00    -0.259 A  
HETATM   14  C   UNL     1     -11.476  11.049  69.010  1.00  0.00    -0.368 A  
HETATM   15  C   UNL     1     -12.012  12.316  68.798  1.00  0.00    -0.281 A  
HETATM   16  C   UNL     1     -10.878  12.375  66.658  1.00  0.00    -0.281 A  
HETATM   17  C   UNL     1     -10.725  13.312  65.522  1.00  0.00    -0.299 C  
HETATM   18  C   UNL     1     -11.702  12.952  67.616  1.00  0.00    -0.370 A  
HETATM   19  O   UNL     1     -12.150  14.205  67.297  1.00  0.00    -0.417 OA 
HETATM   20  C   UNL     1     -11.590  14.482  65.995  1.00  0.00    -0.356 C  
ENDBRANCH   3  12
TORSDOF 5
ENDMDL
MODEL      203
REMARK 921   NORMALIZED FREE ENERGY PREDICTED BY IDOCK:   -3.05 KCAL/MOL
REMARK 922        TOTAL FREE ENERGY PREDICTED BY IDOCK:   -4.61 KCAL/MOL
REMARK 923 INTER-LIGAND FREE ENERGY PREDICTED BY IDOCK:   -3.66 KCAL/MOL
REMARK 924 INTRA-LIGAND FREE ENERGY PREDICTED BY IDOCK:   -0.96 KCAL/MOL
REMARK 927      BINDING AFFINITY PREDICTED BY RF-SCORE:    0.00 PKD
ROOT
HETATM    1  C   UNL     1      -9.472  11.587  67.475  1.00  0.00    -0.173 C  
HETATM    2  C   UNL     1      -8.476  11.935  68.545  1.00  0.00    -0.113 C  
HETATM    3  C   UNL     1      -8.919  10.503  68.385  1.00  0.00    -0.141 C  
ENDROOT
BRANCH   1   4
HETATM    4  C   UNL     1      -9.106  11.566  66.022  1.00  0.00    -0.198 C  
BRANCH   4   5
HETATM    5  N   UNL     1      -7.718  11.156  65.864  1.00  0.00    -0.357 NA 
HETATM    6  H   UNL     1      -6.972  11.677  66.325  1.00  0.00     0.000 HD 
BRANCH   5   7
HETATM    7  C   UNL     1      -7.440  10.133  65.140  1.00  0.00    -0.141 C  
HETATM    8  H   UNL     1      -7.094   9.394  63.264  1.00  0.00     0.000 HD 
HETATM    9  O   UNL     1      -7.299  10.151  63.800  1.00  0.00    -0.136 OA 
BRANCH   7  10
HETATM   10  C   UNL     1      -7.251   8.756  65.709  1.00  0.00    -0.084 C  
HETATM   11  C   UNL     1      -8.518   7.931  65.582  1.00  0.00    -0.160 C  
ENDBRANCH   7  10
ENDBRANCH   5   7
ENDBRANCH   4   5
ENDBRANCH   1   4
BRANCH   3  12
HETATM   12  C   UNL     1      -9.796   9.819  69.408  1.00  0.00    -0.217 A  
HETATM   13  C   UNL     1     -10.923  10.467  69.954  1.00  0.00    -0.359 A  
HETATM   14  C   UNL     1     -11.820   9.809  70.815  1.00  0.00    -0.400 A  
HETATM   15  C   UNL     1     -11.617   8.474  71.154  1.00  0.00    -0.325 A  
HETATM   16  C   UNL     1      -9.617   8.489  69.788  1.00  0.00    -0.170 A  
HETATM   17  C   UNL     1      -8.555   7.539  69.388  1.00  0.00    -0.133 C  
HETATM   18  C   UNL     1     -10.510   7.842  70.632  1.00  0.00    -0.213 A  
HETATM   19  O   UNL     1     -10.211   6.529  70.875  1.00  0.00    -0.188 OA 
HETATM   20  C   UNL     1      -8.993   6.282  70.140  1.00  0.00    -0.149 C  
ENDBRANCH   3  12
TORSDOF 5
ENDMDL
MODEL      204
REMARK 921   NORMALIZED FREE ENERGY PREDICTED BY IDOCK:   -3.04 KCAL/MOL
REMARK 922        TOTAL FREE ENERGY PREDICTED BY IDOCK:   -4.60 KCAL/MOL
REMARK 923 INTER-LIGAND FREE ENERGY PREDICTED BY IDOCK:   -3.74 KCAL/MOL
REMARK 924 INTRA-LIGAND FREE ENERGY PREDICTED BY IDOCK:   -0.85 KCAL/MOL
REMARK 927      BINDING AFFINITY PREDICTED BY RF-SCORE:    0.00 PKD
ROOT
HETATM    1  C   UNL     1     -10.665   8.121  70.666  1.00  0.00    -0.238 C  
HETATM    2  C   UNL     1     -10.557   9.401  69.885  1.00  0.00    -0.258 C  
HETATM    3  C   UNL     1     -10.638   8.088  69.147  1.00  0.00    -0.181 C  
ENDROOT
BRANCH   1   4
HETATM    4  C   UNL     1     -11.924   7.724  71.375  1.00  0.00    -0.306 C  
BRANCH   4   5
HETATM    5  N   UNL     1     -11.671   7.593  72.803  1.00  0.00    -0.584 NA 
HETATM    6  H   UNL     1     -12.104   8.237  73.463  1.00  0.00     0.000 HD 
BRANCH   5   7
HETATM    7  C   UNL     1     -10.898   6.658  73.224  1.00  0.00    -0.261 C  
HETATM    8  H   UNL     1      -9.186   6.162  74.228  1.00  0.00     0.000 HD 
HETATM    9  O   UNL     1      -9.758   6.853  73.916  1.00  0.00    -0.216 OA 
BRANCH   7  10
HETATM   10  C   UNL     1     -11.165   5.202  72.976  1.00  0.00    -0.390 C  
HETATM   11  C   UNL     1     -10.000   4.544  72.260  1.00  0.00    -0.239 C  
ENDBRANCH   7  10
ENDBRANCH   5   7
ENDBRANCH   4   5
ENDBRANCH   1   4
BRANCH   3  12
HETATM   12  C   UNL     1      -9.456   7.519  68.398  1.00  0.00    -0.148 A  
HETATM   13  C   UNL     1      -8.373   8.335  68.013  1.00  0.00    -0.129 A  
HETATM   14  C   UNL     1      -7.211   7.805  67.423  1.00  0.00    -0.091 A  
HETATM   15  C   UNL     1      -7.095   6.436  67.204  1.00  0.00    -0.073 A  
HETATM   16  C   UNL     1      -9.309   6.155  68.144  1.00  0.00    -0.115 A  
HETATM   17  C   UNL     1     -10.246   5.046  68.434  1.00  0.00    -0.143 C  
HETATM   18  C   UNL     1      -8.156   5.637  67.568  1.00  0.00    -0.102 A  
HETATM   19  O   UNL     1      -8.158   4.277  67.421  1.00  0.00    -0.098 OA 
HETATM   20  C   UNL     1      -9.440   3.849  67.927  1.00  0.00    -0.173 C  
ENDBRANCH   3  12
TORSDOF 5
ENDMDL
MODEL      205
REMARK 921   NORMALIZED FREE ENERGY PREDICTED BY IDOCK:   -3.01 KCAL/MOL
REMARK 922        TOTAL FREE ENERGY PREDICTED BY IDOCK:   -4.56 KCAL/MOL
REMARK 923 INTER-LIGAND FREE ENERGY PREDICTED BY IDOCK:   -4.52 KCAL/MOL
REMARK 924 INTRA-LIGAND FREE ENERGY PREDICTED BY IDOCK:   -0.04 KCAL/MOL
REMARK 927      BINDING AFFINITY PREDICTED BY RF-SCORE:    0.00 PKD
ROOT
HETATM    1  C   UNL     1     -10.785  10.062  67.579  1.00  0.00    -0.339 C  
HETATM    2  C   UNL     1     -11.136  11.138  68.569  1.00  0.00    -0.298 C  
HETATM    3  C   UNL     1     -10.425   9.897  69.046  1.00  0.00    -0.227 C  
ENDROOT
BRANCH   1   4
HETATM    4  C   UNL     1      -9.682  10.229  66.578  1.00  0.00    -0.193 C  
BRANCH   4   5
HETATM    5  N   UNL     1      -8.581   9.332  66.898  1.00  0.00    -0.126 NA 
HETATM    6  H   UNL     1      -7.832   9.639  67.519  1.00  0.00     0.000 HD 
BRANCH   5   7
HETATM    7  C   UNL     1      -8.559   8.153  66.393  1.00  0.00    -0.139 C  
HETATM    8  H   UNL     1      -9.302   6.246  66.438  1.00  0.00     0.000 HD 
HETATM    9  O   UNL     1      -9.318   7.120  66.811  1.00  0.00    -0.149 OA 
BRANCH   7  10
HETATM   10  C   UNL     1      -7.651   7.763  65.262  1.00  0.00    -0.091 C  
HETATM   11  C   UNL     1      -7.808   8.705  64.083  1.00  0.00    -0.141 C  
ENDBRANCH   7  10
ENDBRANCH   5   7
ENDBRANCH   4   5
ENDBRANCH   1   4
BRANCH   3  12
HETATM   12  C   UNL     1     -11.112   8.865  69.909  1.00  0.00    -0.146 A  
HETATM   13  C   UNL     1     -10.731   7.508  69.867  1.00  0.00    -0.254 A  
HETATM   14  C   UNL     1     -11.273   6.552  70.746  1.00  0.00    -0.377 A  
HETATM   15  C   UNL     1     -12.213   6.927  71.700  1.00  0.00    -0.403 A  
HETATM   16  C   UNL     1     -12.071   9.197  70.866  1.00  0.00    -0.270 A  
HETATM   17  C   UNL     1     -12.667  10.517  71.169  1.00  0.00    -0.518 C  
HETATM   18  C   UNL     1     -12.597   8.250  71.735  1.00  0.00    -0.333 A  
HETATM   19  O   UNL     1     -13.498   8.747  72.637  1.00  0.00    -0.391 OA 
HETATM   20  C   UNL     1     -13.599  10.154  72.326  1.00  0.00    -0.121 C  
ENDBRANCH   3  12
TORSDOF 5
ENDMDL
MODEL      206
REMARK 921   NORMALIZED FREE ENERGY PREDICTED BY IDOCK:   -2.97 KCAL/MOL
REMARK 922        TOTAL FREE ENERGY PREDICTED BY IDOCK:   -4.51 KCAL/MOL
REMARK 923 INTER-LIGAND FREE ENERGY PREDICTED BY IDOCK:   -3.87 KCAL/MOL
REMARK 924 INTRA-LIGAND FREE ENERGY PREDICTED BY IDOCK:   -0.64 KCAL/MOL
REMARK 927      BINDING AFFINITY PREDICTED BY RF-SCORE:    0.00 PKD
ROOT
HETATM    1  C   UNL     1      -9.802  11.561  67.528  1.00  0.00    -0.203 C  
HETATM    2  C   UNL     1      -8.476  11.907  68.144  1.00  0.00    -0.163 C  
HETATM    3  C   UNL     1      -8.824  10.460  67.902  1.00  0.00    -0.125 C  
ENDROOT
BRANCH   1   4
HETATM    4  C   UNL     1     -10.096  11.805  66.079  1.00  0.00    -0.231 C  
BRANCH   4   5
HETATM    5  N   UNL     1     -11.344  12.542  65.941  1.00  0.00    -0.323 NA 
HETATM    6  H   UNL     1     -12.238  12.063  66.049  1.00  0.00     0.000 HD 
BRANCH   5   7
HETATM    7  C   UNL     1     -11.311  13.798  65.684  1.00  0.00    -0.305 C  
HETATM    8  H   UNL     1     -11.074  15.262  64.273  1.00  0.00     0.000 HD 
HETATM    9  O   UNL     1     -11.099  14.331  64.464  1.00  0.00    -0.371 OA 
BRANCH   7  10
HETATM   10  C   UNL     1     -11.491  14.854  66.737  1.00  0.00    -0.304 C  
HETATM   11  C   UNL     1     -10.152  15.377  67.224  1.00  0.00    -0.238 C  
ENDBRANCH   7  10
ENDBRANCH   5   7
ENDBRANCH   4   5
ENDBRANCH   1   4
BRANCH   3  12
HETATM   12  C   UNL     1      -9.115   9.509  69.039  1.00  0.00    -0.144 A  
HETATM   13  C   UNL     1      -9.816   9.934  70.186  1.00  0.00    -0.272 A  
HETATM   14  C   UNL     1     -10.203   9.039  71.200  1.00  0.00    -0.363 A  
HETATM   15  C   UNL     1      -9.903   7.684  71.095  1.00  0.00    -0.184 A  
HETATM   16  C   UNL     1      -8.817   8.147  68.980  1.00  0.00    -0.144 A  
HETATM   17  C   UNL     1      -8.111   7.392  67.920  1.00  0.00    -0.119 C  
HETATM   18  C   UNL     1      -9.208   7.267  69.980  1.00  0.00    -0.148 A  
HETATM   19  O   UNL     1      -8.870   5.962  69.751  1.00  0.00    -0.126 OA 
HETATM   20  C   UNL     1      -8.169   5.974  68.489  1.00  0.00    -0.110 C  
ENDBRANCH   3  12
TORSDOF 5
ENDMDL
MODEL      207
REMARK 921   NORMALIZED FREE ENERGY PREDICTED BY IDOCK:   -2.95 KCAL/MOL
REMARK 922        TOTAL FREE ENERGY PREDICTED BY IDOCK:   -4.49 KCAL/MOL
REMARK 923 INTER-LIGAND FREE ENERGY PREDICTED BY IDOCK:   -3.92 KCAL/MOL
REMARK 924 INTRA-LIGAND FREE ENERGY PREDICTED BY IDOCK:   -0.56 KCAL/MOL
REMARK 927      BINDING AFFINITY PREDICTED BY RF-SCORE:    0.00 PKD
ROOT
HETATM    1  C   UNL     1     -11.107   6.161  69.550  1.00  0.00    -0.490 C  
HETATM    2  C   UNL     1     -12.156   6.867  70.363  1.00  0.00    -0.250 C  
HETATM    3  C   UNL     1     -10.701   7.056  70.710  1.00  0.00    -0.252 C  
ENDROOT
BRANCH   1   4
HETATM    4  C   UNL     1     -10.761   6.584  68.155  1.00  0.00    -0.282 C  
BRANCH   4   5
HETATM    5  N   UNL     1      -9.834   7.706  68.191  1.00  0.00    -0.159 NA 
HETATM    6  H   UNL     1      -8.914   7.600  68.619  1.00  0.00     0.000 HD 
BRANCH   5   7
HETATM    7  C   UNL     1     -10.182   8.831  67.679  1.00  0.00    -0.239 C  
HETATM    8  H   UNL     1     -11.097  10.640  67.957  1.00  0.00     0.000 HD 
HETATM    9  O   UNL     1     -10.839   9.807  68.336  1.00  0.00    -0.233 OA 
BRANCH   7  10
HETATM   10  C   UNL     1      -9.909   9.198  66.248  1.00  0.00    -0.359 C  
HETATM   11  C   UNL     1      -8.782   8.361  65.671  1.00  0.00    -0.204 C  
ENDBRANCH   7  10
ENDBRANCH   5   7
ENDBRANCH   4   5
ENDBRANCH   1   4
BRANCH   3  12
HETATM   12  C   UNL     1     -10.098   6.479  71.969  1.00  0.00    -0.201 A  
HETATM   13  C   UNL     1     -10.563   5.263  72.510  1.00  0.00    -0.276 A  
HETATM   14  C   UNL     1      -9.939   4.647  73.610  1.00  0.00    -0.188 A  
HETATM   15  C   UNL     1      -8.822   5.230  74.202  1.00  0.00    -0.119 A  
HETATM   16  C   UNL     1      -8.989   7.041  72.602  1.00  0.00    -0.141 A  
HETATM   17  C   UNL     1      -8.262   8.288  72.276  1.00  0.00    -0.213 C  
HETATM   18  C   UNL     1      -8.373   6.425  73.683  1.00  0.00    -0.119 A  
HETATM   19  O   UNL     1      -7.276   7.087  74.164  1.00  0.00    -0.088 OA 
HETATM   20  C   UNL     1      -7.163   8.267  73.340  1.00  0.00    -0.113 C  
ENDBRANCH   3  12
TORSDOF 5
ENDMDL
MODEL      208
REMARK 921   NORMALIZED FREE ENERGY PREDICTED BY IDOCK:   -2.92 KCAL/MOL
REMARK 922        TOTAL FREE ENERGY PREDICTED BY IDOCK:   -4.45 KCAL/MOL
REMARK 923 INTER-LIGAND FREE ENERGY PREDICTED BY IDOCK:   -4.03 KCAL/MOL
REMARK 924 INTRA-LIGAND FREE ENERGY PREDICTED BY IDOCK:   -0.42 KCAL/MOL
REMARK 927      BINDING AFFINITY PREDICTED BY RF-SCORE:    0.00 PKD
ROOT
HETATM    1  C   UNL     1      -8.718   7.532  68.557  1.00  0.00    -0.128 C  
HETATM    2  C   UNL     1      -8.843   7.948  69.995  1.00  0.00    -0.141 C  
HETATM    3  C   UNL     1     -10.005   8.164  69.060  1.00  0.00    -0.191 C  
ENDROOT
BRANCH   1   4
HETATM    4  C   UNL     1      -8.735   6.093  68.139  1.00  0.00    -0.114 C  
BRANCH   4   5
HETATM    5  N   UNL     1      -8.959   5.994  66.704  1.00  0.00    -0.124 NA 
HETATM    6  H   UNL     1      -9.289   6.803  66.178  1.00  0.00     0.000 HD 
BRANCH   5   7
HETATM    7  C   UNL     1      -8.739   4.881  66.104  1.00  0.00    -0.117 C  
HETATM    8  H   UNL     1      -8.068   3.937  64.417  1.00  0.00     0.000 HD 
HETATM    9  O   UNL     1      -8.231   4.761  64.861  1.00  0.00    -0.110 OA 
BRANCH   7  10
HETATM   10  C   UNL     1      -9.043   3.545  66.720  1.00  0.00    -0.179 C  
HETATM   11  C   UNL     1      -9.015   2.441  65.679  1.00  0.00    -0.121 C  
ENDBRANCH   7  10
ENDBRANCH   5   7
ENDBRANCH   4   5
ENDBRANCH   1   4
BRANCH   3  12
HETATM   12  C   UNL     1     -10.424   9.545  68.613  1.00  0.00    -0.237 A  
HETATM   13  C   UNL     1     -10.192   9.988  67.295  1.00  0.00    -0.275 A  
HETATM   14  C   UNL     1     -10.680  11.220  66.823  1.00  0.00    -0.323 A  
HETATM   15  C   UNL     1     -11.422  12.049  67.659  1.00  0.00    -0.392 A  
HETATM   16  C   UNL     1     -11.155  10.412  69.425  1.00  0.00    -0.304 A  
HETATM   17  C   UNL     1     -11.573  10.241  70.834  1.00  0.00    -0.454 C  
HETATM   18  C   UNL     1     -11.641  11.625  68.952  1.00  0.00    -0.314 A  
HETATM   19  O   UNL     1     -12.369  12.338  69.863  1.00  0.00    -0.176 OA 
HETATM   20  C   UNL     1     -12.351  11.537  71.064  1.00  0.00    -0.329 C  
ENDBRANCH   3  12
TORSDOF 5
ENDMDL
MODEL      209
REMARK 921   NORMALIZED FREE ENERGY PREDICTED BY IDOCK:   -2.91 KCAL/MOL
REMARK 922        TOTAL FREE ENERGY PREDICTED BY IDOCK:   -4.43 KCAL/MOL
REMARK 923 INTER-LIGAND FREE ENERGY PREDICTED BY IDOCK:   -3.99 KCAL/MOL
REMARK 924 INTRA-LIGAND FREE ENERGY PREDICTED BY IDOCK:   -0.44 KCAL/MOL
REMARK 927      BINDING AFFINITY PREDICTED BY RF-SCORE:    0.00 PKD
ROOT
HETATM    1  C   UNL     1     -10.135   7.214  68.668  1.00  0.00    -0.177 C  
HETATM    2  C   UNL     1     -10.661   8.414  67.932  1.00  0.00    -0.218 C  
HETATM    3  C   UNL     1      -9.946   7.331  67.165  1.00  0.00    -0.279 C  
ENDROOT
BRANCH   1   4
HETATM    4  C   UNL     1     -11.040   6.146  69.202  1.00  0.00    -0.378 C  
BRANCH   4   5
HETATM    5  N   UNL     1     -12.136   6.749  69.947  1.00  0.00    -0.625 NA 
HETATM    6  H   UNL     1     -13.025   6.942  69.487  1.00  0.00     0.000 HD 
BRANCH   5   7
HETATM    7  C   UNL     1     -11.974   7.036  71.187  1.00  0.00    -0.356 C  
HETATM    8  H   UNL     1     -11.950   8.487  72.630  1.00  0.00     0.000 HD 
HETATM    9  O   UNL     1     -12.070   8.274  71.712  1.00  0.00    -0.287 OA 
BRANCH   7  10
HETATM   10  C   UNL     1     -11.632   6.008  72.228  1.00  0.00    -0.359 C  
HETATM   11  C   UNL     1     -10.194   6.153  72.690  1.00  0.00    -0.202 C  
ENDBRANCH   7  10
ENDBRANCH   5   7
ENDBRANCH   4   5
ENDBRANCH   1   4
BRANCH   3  12
HETATM   12  C   UNL     1      -8.577   7.549  66.563  1.00  0.00    -0.134 A  
HETATM   13  C   UNL     1      -7.493   6.709  66.892  1.00  0.00    -0.087 A  
HETATM   14  C   UNL     1      -6.244   6.818  66.255  1.00  0.00    -0.044 A  
HETATM   15  C   UNL     1      -6.041   7.772  65.262  1.00  0.00    -0.038 A  
HETATM   16  C   UNL     1      -8.328   8.504  65.578  1.00  0.00    -0.163 A  
HETATM   17  C   UNL     1      -9.246   9.515  65.007  1.00  0.00    -0.297 C  
HETATM   18  C   UNL     1      -7.095   8.602  64.947  1.00  0.00    -0.080 A  
HETATM   19  O   UNL     1      -7.029   9.566  63.979  1.00  0.00    -0.097 OA 
HETATM   20  C   UNL     1      -8.334  10.184  63.977  1.00  0.00    -0.172 C  
ENDBRANCH   3  12
TORSDOF 5
ENDMDL
MODEL      210
REMARK 921   NORMALIZED FREE ENERGY PREDICTED BY IDOCK:   -2.88 KCAL/MOL
REMARK 922        TOTAL FREE ENERGY PREDICTED BY IDOCK:   -4.40 KCAL/MOL
REMARK 923 INTER-LIGAND FREE ENERGY PREDICTED BY IDOCK:   -3.83 KCAL/MOL
REMARK 924 INTRA-LIGAND FREE ENERGY PREDICTED BY IDOCK:   -0.57 KCAL/MOL
REMARK 927      BINDING AFFINITY PREDICTED BY RF-SCORE:    0.00 PKD
ROOT
HETATM    1  C   UNL     1     -11.043   8.460  70.482  1.00  0.00    -0.267 C  
HETATM    2  C   UNL     1     -10.675   9.048  71.816  1.00  0.00    -0.437 C  
HETATM    3  C   UNL     1      -9.924   7.844  71.306  1.00  0.00    -0.206 C  
ENDROOT
BRANCH   1   4
HETATM    4  C   UNL     1     -10.701   9.137  69.190  1.00  0.00    -0.172 C  
BRANCH   4   5
HETATM    5  N   UNL     1     -10.959   8.239  68.074  1.00  0.00    -0.460 NA 
HETATM    6  H   UNL     1     -11.914   7.971  67.840  1.00  0.00     0.000 HD 
BRANCH   5   7
HETATM    7  C   UNL     1      -9.974   7.787  67.386  1.00  0.00    -0.195 C  
HETATM    8  H   UNL     1      -8.120   8.140  66.595  1.00  0.00     0.000 HD 
HETATM    9  O   UNL     1      -8.849   8.474  67.104  1.00  0.00    -0.127 OA 
BRANCH   7  10
HETATM   10  C   UNL     1      -9.961   6.412  66.781  1.00  0.00    -0.225 C  
HETATM   11  C   UNL     1      -8.611   6.095  66.166  1.00  0.00    -0.141 C  
ENDBRANCH   7  10
ENDBRANCH   5   7
ENDBRANCH   4   5
ENDBRANCH   1   4
BRANCH   3  12
HETATM   12  C   UNL     1     -10.078   6.481  71.938  1.00  0.00    -0.200 A  
HETATM   13  C   UNL     1     -11.252   6.126  72.632  1.00  0.00    -0.312 A  
HETATM   14  C   UNL     1     -11.466   4.825  73.124  1.00  0.00    -0.348 A  
HETATM   15  C   UNL     1     -10.508   3.834  72.931  1.00  0.00    -0.246 A  
HETATM   16  C   UNL     1      -9.134   5.466  71.783  1.00  0.00    -0.152 A  
HETATM   17  C   UNL     1      -7.820   5.510  71.103  1.00  0.00    -0.109 C  
HETATM   18  C   UNL     1      -9.353   4.181  72.264  1.00  0.00    -0.125 A  
HETATM   19  O   UNL     1      -8.346   3.296  71.995  1.00  0.00    -0.068 OA 
HETATM   20  C   UNL     1      -7.351   4.066  71.287  1.00  0.00    -0.040 C  
ENDBRANCH   3  12
TORSDOF 5
ENDMDL
MODEL      211
REMARK 921   NORMALIZED FREE ENERGY PREDICTED BY IDOCK:   -2.88 KCAL/MOL
REMARK 922        TOTAL FREE ENERGY PREDICTED BY IDOCK:   -4.39 KCAL/MOL
REMARK 923 INTER-LIGAND FREE ENERGY PREDICTED BY IDOCK:   -3.71 KCAL/MOL
REMARK 924 INTRA-LIGAND FREE ENERGY PREDICTED BY IDOCK:   -0.68 KCAL/MOL
REMARK 927      BINDING AFFINITY PREDICTED BY RF-SCORE:    0.00 PKD
ROOT
HETATM    1  C   UNL     1     -11.173   6.347  68.797  1.00  0.00    -0.358 C  
HETATM    2  C   UNL     1     -11.762   6.647  70.147  1.00  0.00    -0.412 C  
HETATM    3  C   UNL     1     -10.368   6.079  70.058  1.00  0.00    -0.290 C  
ENDROOT
BRANCH   1   4
HETATM    4  C   UNL     1     -10.719   7.431  67.867  1.00  0.00    -0.149 C  
BRANCH   4   5
HETATM    5  N   UNL     1      -9.283   7.330  67.649  1.00  0.00    -0.126 NA 
HETATM    6  H   UNL     1      -8.654   7.162  68.434  1.00  0.00     0.000 HD 
BRANCH   5   7
HETATM    7  C   UNL     1      -8.814   7.452  66.460  1.00  0.00    -0.148 C  
HETATM    8  H   UNL     1      -8.559   8.655  64.825  1.00  0.00     0.000 HD 
HETATM    9  O   UNL     1      -8.906   8.565  65.705  1.00  0.00    -0.174 OA 
BRANCH   7  10
HETATM   10  C   UNL     1      -8.105   6.340  65.742  1.00  0.00    -0.126 C  
HETATM   11  C   UNL     1      -7.892   5.145  66.653  1.00  0.00    -0.100 C  
ENDBRANCH   7  10
ENDBRANCH   5   7
ENDBRANCH   4   5
ENDBRANCH   1   4
BRANCH   3  12
HETATM   12  C   UNL     1     -10.051   4.669  70.498  1.00  0.00    -0.263 A  
HETATM   13  C   UNL     1      -9.495   3.732  69.603  1.00  0.00    -0.258 A  
HETATM   14  C   UNL     1      -9.081   2.454  70.021  1.00  0.00    -0.179 A  
HETATM   15  C   UNL     1      -9.207   2.074  71.353  1.00  0.00    -0.171 A  
HETATM   16  C   UNL     1     -10.179   4.243  71.820  1.00  0.00    -0.182 A  
HETATM   17  C   UNL     1     -10.707   4.980  72.990  1.00  0.00    -0.307 C  
HETATM   18  C   UNL     1      -9.762   2.983  72.228  1.00  0.00    -0.154 A  
HETATM   19  O   UNL     1      -9.923   2.737  73.564  1.00  0.00    -0.098 OA 
HETATM   20  C   UNL     1     -10.524   3.938  74.094  1.00  0.00    -0.212 C  
ENDBRANCH   3  12
TORSDOF 5
ENDMDL
MODEL      212
REMARK 921   NORMALIZED FREE ENERGY PREDICTED BY IDOCK:   -2.86 KCAL/MOL
REMARK 922        TOTAL FREE ENERGY PREDICTED BY IDOCK:   -4.37 KCAL/MOL
REMARK 923 INTER-LIGAND FREE ENERGY PREDICTED BY IDOCK:   -4.26 KCAL/MOL
REMARK 924 INTRA-LIGAND FREE ENERGY PREDICTED BY IDOCK:   -0.11 KCAL/MOL
REMARK 927      BINDING AFFINITY PREDICTED BY RF-SCORE:    0.00 PKD
ROOT
HETATM    1  C   UNL     1     -10.773   6.361  67.722  1.00  0.00    -0.377 C  
HETATM    2  C   UNL     1     -10.429   7.744  67.244  1.00  0.00    -0.392 C  
HETATM    3  C   UNL     1     -10.092   7.346  68.658  1.00  0.00    -0.186 C  
ENDROOT
BRANCH   1   4
HETATM    4  C   UNL     1     -10.015   5.150  67.271  1.00  0.00    -0.186 C  
BRANCH   4   5
HETATM    5  N   UNL     1      -8.892   5.549  66.435  1.00  0.00    -0.122 NA 
HETATM    6  H   UNL     1      -8.976   6.352  65.811  1.00  0.00     0.000 HD 
BRANCH   5   7
HETATM    7  C   UNL     1      -7.796   4.884  66.488  1.00  0.00    -0.099 C  
HETATM    8  H   UNL     1      -6.886   3.053  66.400  1.00  0.00     0.000 HD 
HETATM    9  O   UNL     1      -7.698   3.546  66.360  1.00  0.00    -0.082 OA 
BRANCH   7  10
HETATM   10  C   UNL     1      -6.460   5.527  66.726  1.00  0.00    -0.047 C  
HETATM   11  C   UNL     1      -5.541   5.341  65.532  1.00  0.00    -0.014 C  
ENDBRANCH   7  10
ENDBRANCH   5   7
ENDBRANCH   4   5
ENDBRANCH   1   4
BRANCH   3  12
HETATM   12  C   UNL     1     -10.821   7.927  69.847  1.00  0.00    -0.221 A  
HETATM   13  C   UNL     1     -11.037   7.167  71.014  1.00  0.00    -0.287 A  
HETATM   14  C   UNL     1     -11.606   7.724  72.175  1.00  0.00    -0.367 A  
HETATM   15  C   UNL     1     -11.973   9.066  72.204  1.00  0.00    -0.395 A  
HETATM   16  C   UNL     1     -11.221   9.262  69.909  1.00  0.00    -0.145 A  
HETATM   17  C   UNL     1     -11.123  10.314  68.873  1.00  0.00    -0.278 C  
HETATM   18  C   UNL     1     -11.775   9.808  71.060  1.00  0.00    -0.370 A  
HETATM   19  O   UNL     1     -12.077  11.139  70.967  1.00  0.00    -0.335 OA 
HETATM   20  C   UNL     1     -11.710  11.512  69.622  1.00  0.00    -0.351 C  
ENDBRANCH   3  12
TORSDOF 5
ENDMDL
MODEL      213
REMARK 921   NORMALIZED FREE ENERGY PREDICTED BY IDOCK:   -2.83 KCAL/MOL
REMARK 922        TOTAL FREE ENERGY PREDICTED BY IDOCK:   -4.33 KCAL/MOL
REMARK 923 INTER-LIGAND FREE ENERGY PREDICTED BY IDOCK:   -3.28 KCAL/MOL
REMARK 924 INTRA-LIGAND FREE ENERGY PREDICTED BY IDOCK:   -1.05 KCAL/MOL
REMARK 927      BINDING AFFINITY PREDICTED BY RF-SCORE:    0.00 PKD
ROOT
HETATM    1  C   UNL     1      -9.991   7.032  69.860  1.00  0.00    -0.183 C  
HETATM    2  C   UNL     1     -11.247   6.556  69.186  1.00  0.00    -0.367 C  
HETATM    3  C   UNL     1     -10.227   7.326  68.387  1.00  0.00    -0.203 C  
ENDROOT
BRANCH   1   4
HETATM    4  C   UNL     1      -8.886   6.095  70.241  1.00  0.00    -0.149 C  
BRANCH   4   5
HETATM    5  N   UNL     1      -7.872   6.805  71.007  1.00  0.00    -0.100 NA 
HETATM    6  H   UNL     1      -7.861   6.746  72.025  1.00  0.00     0.000 HD 
BRANCH   5   7
HETATM    7  C   UNL     1      -6.992   7.508  70.392  1.00  0.00    -0.052 C  
HETATM    8  H   UNL     1      -5.572   7.585  68.920  1.00  0.00     0.000 HD 
HETATM    9  O   UNL     1      -6.224   7.065  69.376  1.00  0.00    -0.032 OA 
BRANCH   7  10
HETATM   10  C   UNL     1      -6.689   8.935  70.747  1.00  0.00    -0.059 C  
HETATM   11  C   UNL     1      -7.741   9.875  70.188  1.00  0.00    -0.188 C  
ENDBRANCH   7  10
ENDBRANCH   5   7
ENDBRANCH   4   5
ENDBRANCH   1   4
BRANCH   3  12
HETATM   12  C   UNL     1     -10.488   8.733  67.903  1.00  0.00    -0.275 A  
HETATM   13  C   UNL     1     -11.346   9.601  68.609  1.00  0.00     0.099 A  
HETATM   14  C   UNL     1     -11.510  10.950  68.245  1.00  0.00    -0.376 A  
HETATM   15  C   UNL     1     -10.813  11.475  67.161  1.00  0.00    -0.314 A  
HETATM   16  C   UNL     1      -9.823   9.292  66.812  1.00  0.00    -0.289 A  
HETATM   17  C   UNL     1      -8.858   8.660  65.884  1.00  0.00    -0.221 C  
HETATM   18  C   UNL     1      -9.983  10.627  66.461  1.00  0.00    -0.215 A  
HETATM   19  O   UNL     1      -9.232  11.025  65.390  1.00  0.00    -0.203 OA 
HETATM   20  C   UNL     1      -8.519   9.841  64.973  1.00  0.00    -0.153 C  
ENDBRANCH   3  12
TORSDOF 5
ENDMDL
MODEL      214
REMARK 921   NORMALIZED FREE ENERGY PREDICTED BY IDOCK:   -2.82 KCAL/MOL
REMARK 922        TOTAL FREE ENERGY PREDICTED BY IDOCK:   -4.32 KCAL/MOL
REMARK 923 INTER-LIGAND FREE ENERGY PREDICTED BY IDOCK:   -3.62 KCAL/MOL
REMARK 924 INTRA-LIGAND FREE ENERGY PREDICTED BY IDOCK:   -0.70 KCAL/MOL
REMARK 927      BINDING AFFINITY PREDICTED BY RF-SCORE:    0.00 PKD
ROOT
HETATM    1  C   UNL     1      -9.603   9.871  66.059  1.00  0.00    -0.284 C  
HETATM    2  C   UNL     1      -8.900  10.978  66.793  1.00  0.00    -0.158 C  
HETATM    3  C   UNL     1      -8.960   9.604  67.410  1.00  0.00    -0.141 C  
ENDROOT
BRANCH   1   4
HETATM    4  C   UNL     1      -9.018   9.225  64.840  1.00  0.00    -0.180 C  
BRANCH   4   5
HETATM    5  N   UNL     1      -8.060   8.201  65.231  1.00  0.00    -0.129 NA 
HETATM    6  H   UNL     1      -7.435   8.357  66.022  1.00  0.00     0.000 HD 
BRANCH   5   7
HETATM    7  C   UNL     1      -8.006   7.100  64.574  1.00  0.00    -0.104 C  
HETATM    8  H   UNL     1      -7.540   6.166  62.813  1.00  0.00     0.000 HD 
HETATM    9  O   UNL     1      -7.579   6.981  63.301  1.00  0.00    -0.094 OA 
BRANCH   7  10
HETATM   10  C   UNL     1      -8.441   5.782  65.148  1.00  0.00    -0.138 C  
HETATM   11  C   UNL     1      -7.557   4.651  64.657  1.00  0.00    -0.073 C  
ENDBRANCH   7  10
ENDBRANCH   5   7
ENDBRANCH   4   5
ENDBRANCH   1   4
BRANCH   3  12
HETATM   12  C   UNL     1      -9.800   9.314  68.631  1.00  0.00    -0.173 A  
HETATM   13  C   UNL     1     -10.272  10.354  69.458  1.00  0.00    -0.258 A  
HETATM   14  C   UNL     1     -11.153  10.118  70.529  1.00  0.00    -0.400 A  
HETATM   15  C   UNL     1     -11.595   8.827  70.804  1.00  0.00    -0.288 A  
HETATM   16  C   UNL     1     -10.250   8.033  68.952  1.00  0.00    -0.220 A  
HETATM   17  C   UNL     1      -9.953   6.746  68.284  1.00  0.00    -0.153 C  
HETATM   18  C   UNL     1     -11.126   7.806  70.006  1.00  0.00    -0.175 A  
HETATM   19  O   UNL     1     -11.499   6.499  70.162  1.00  0.00    -0.368 OA 
HETATM   20  C   UNL     1     -10.789   5.783  69.129  1.00  0.00    -0.285 C  
ENDBRANCH   3  12
TORSDOF 5
ENDMDL
MODEL      215
REMARK 921   NORMALIZED FREE ENERGY PREDICTED BY IDOCK:   -2.74 KCAL/MOL
REMARK 922        TOTAL FREE ENERGY PREDICTED BY IDOCK:   -4.21 KCAL/MOL
REMARK 923 INTER-LIGAND FREE ENERGY PREDICTED BY IDOCK:   -3.70 KCAL/MOL
REMARK 924 INTRA-LIGAND FREE ENERGY PREDICTED BY IDOCK:   -0.52 KCAL/MOL
REMARK 927      BINDING AFFINITY PREDICTED BY RF-SCORE:    0.00 PKD
ROOT
HETATM    1  C   UNL     1     -10.060   7.050  68.491  1.00  0.00    -0.171 C  
HETATM    2  C   UNL     1     -10.613   7.610  67.210  1.00  0.00    -0.388 C  
HETATM    3  C   UNL     1      -9.513   6.581  67.153  1.00  0.00    -0.150 C  
ENDROOT
BRANCH   1   4
HETATM    4  C   UNL     1     -10.831   6.081  69.336  1.00  0.00    -0.363 C  
BRANCH   4   5
HETATM    5  N   UNL     1     -12.031   6.720  69.856  1.00  0.00    -0.659 NA 
HETATM    6  H   UNL     1     -12.900   6.695  69.322  1.00  0.00     0.000 HD 
BRANCH   5   7
HETATM    7  C   UNL     1     -11.989   7.315  70.992  1.00  0.00    -0.327 C  
HETATM    8  H   UNL     1     -12.387   9.013  72.063  1.00  0.00     0.000 HD 
HETATM    9  O   UNL     1     -12.418   8.572  71.222  1.00  0.00    -0.305 OA 
BRANCH   7  10
HETATM   10  C   UNL     1     -11.425   6.678  72.229  1.00  0.00    -0.319 C  
HETATM   11  C   UNL     1     -10.668   7.687  73.072  1.00  0.00    -0.449 C  
ENDBRANCH   7  10
ENDBRANCH   5   7
ENDBRANCH   4   5
ENDBRANCH   1   4
BRANCH   3  12
HETATM   12  C   UNL     1      -8.111   6.935  66.714  1.00  0.00    -0.109 A  
HETATM   13  C   UNL     1      -7.321   7.838  67.454  1.00  0.00    -0.092 A  
HETATM   14  C   UNL     1      -5.974   8.089  67.133  1.00  0.00    -0.049 A  
HETATM   15  C   UNL     1      -5.374   7.438  66.060  1.00  0.00    -0.025 A  
HETATM   16  C   UNL     1      -7.479   6.318  65.635  1.00  0.00    -0.082 A  
HETATM   17  C   UNL     1      -8.021   5.325  64.680  1.00  0.00    -0.109 C  
HETATM   18  C   UNL     1      -6.147   6.564  65.327  1.00  0.00    -0.034 A  
HETATM   19  O   UNL     1      -5.670   5.850  64.262  1.00  0.00    -0.020 OA 
HETATM   20  C   UNL     1      -6.794   5.070  63.803  1.00  0.00    -0.047 C  
ENDBRANCH   3  12
TORSDOF 5
ENDMDL
MODEL      216
REMARK 921   NORMALIZED FREE ENERGY PREDICTED BY IDOCK:   -2.72 KCAL/MOL
REMARK 922        TOTAL FREE ENERGY PREDICTED BY IDOCK:   -4.18 KCAL/MOL
REMARK 923 INTER-LIGAND FREE ENERGY PREDICTED BY IDOCK:   -3.62 KCAL/MOL
REMARK 924 INTRA-LIGAND FREE ENERGY PREDICTED BY IDOCK:   -0.56 KCAL/MOL
REMARK 927      BINDING AFFINITY PREDICTED BY RF-SCORE:    0.00 PKD
ROOT
HETATM    1  C   UNL     1     -10.301   6.665  69.590  1.00  0.00    -0.226 C  
HETATM    2  C   UNL     1     -11.572   6.402  68.833  1.00  0.00     0.059 C  
HETATM    3  C   UNL     1     -10.246   6.140  68.165  1.00  0.00    -0.208 C  
ENDROOT
BRANCH   1   4
HETATM    4  C   UNL     1      -9.840   5.778  70.707  1.00  0.00    -0.183 C  
BRANCH   4   5
HETATM    5  N   UNL     1     -10.838   5.753  71.766  1.00  0.00    -0.248 NA 
HETATM    6  H   UNL     1     -11.352   4.895  71.968  1.00  0.00     0.000 HD 
BRANCH   5   7
HETATM    7  C   UNL     1     -11.066   6.817  72.446  1.00  0.00    -0.257 C  
HETATM    8  H   UNL     1     -12.392   8.298  72.932  1.00  0.00     0.000 HD 
HETATM    9  O   UNL     1     -12.222   7.510  72.429  1.00  0.00    -0.236 OA 
BRANCH   7  10
HETATM   10  C   UNL     1     -10.044   7.447  73.348  1.00  0.00    -0.389 C  
HETATM   11  C   UNL     1      -9.620   6.492  74.448  1.00  0.00    -0.295 C  
ENDBRANCH   7  10
ENDBRANCH   5   7
ENDBRANCH   4   5
ENDBRANCH   1   4
BRANCH   3  12
HETATM   12  C   UNL     1      -9.737   7.001  67.034  1.00  0.00    -0.216 A  
HETATM   13  C   UNL     1     -10.100   8.359  66.929  1.00  0.00    -0.364 A  
HETATM   14  C   UNL     1      -9.544   9.209  65.955  1.00  0.00    -0.342 A  
HETATM   15  C   UNL     1      -8.601   8.724  65.055  1.00  0.00    -0.196 A  
HETATM   16  C   UNL     1      -8.804   6.549  66.101  1.00  0.00    -0.160 A  
HETATM   17  C   UNL     1      -8.215   5.199  65.950  1.00  0.00    -0.115 C  
HETATM   18  C   UNL     1      -8.253   7.394  65.146  1.00  0.00    -0.113 A  
HETATM   19  O   UNL     1      -7.326   6.802  64.333  1.00  0.00    -0.074 OA 
HETATM   20  C   UNL     1      -7.267   5.428  64.771  1.00  0.00    -0.062 C  
ENDBRANCH   3  12
TORSDOF 5
ENDMDL
MODEL      217
REMARK 921   NORMALIZED FREE ENERGY PREDICTED BY IDOCK:   -2.71 KCAL/MOL
REMARK 922        TOTAL FREE ENERGY PREDICTED BY IDOCK:   -4.18 KCAL/MOL
REMARK 923 INTER-LIGAND FREE ENERGY PREDICTED BY IDOCK:   -3.62 KCAL/MOL
REMARK 924 INTRA-LIGAND FREE ENERGY PREDICTED BY IDOCK:   -0.57 KCAL/MOL
REMARK 927      BINDING AFFINITY PREDICTED BY RF-SCORE:    0.00 PKD
ROOT
HETATM    1  C   UNL     1      -9.966   7.876  67.264  1.00  0.00    -0.280 C  
HETATM    2  C   UNL     1     -10.878   6.739  67.630  1.00  0.00    -0.361 C  
HETATM    3  C   UNL     1     -10.604   7.821  68.643  1.00  0.00    -0.152 C  
ENDROOT
BRANCH   1   4
HETATM    4  C   UNL     1     -10.384   8.960  66.317  1.00  0.00    -0.008 C  
BRANCH   4   5
HETATM    5  N   UNL     1      -9.639  10.179  66.597  1.00  0.00    -0.176 NA 
HETATM    6  H   UNL     1      -8.634  10.218  66.427  1.00  0.00     0.000 HD 
BRANCH   5   7
HETATM    7  C   UNL     1     -10.257  11.205  67.058  1.00  0.00    -0.215 C  
HETATM    8  H   UNL     1     -11.894  11.928  68.051  1.00  0.00     0.000 HD 
HETATM    9  O   UNL     1     -11.437  11.168  67.709  1.00  0.00    -0.403 OA 
BRANCH   7  10
HETATM   10  C   UNL     1      -9.739  12.607  66.910  1.00  0.00    -0.234 C  
HETATM   11  C   UNL     1     -10.278  13.262  65.652  1.00  0.00    -0.295 C  
ENDBRANCH   7  10
ENDBRANCH   5   7
ENDBRANCH   4   5
ENDBRANCH   1   4
BRANCH   3  12
HETATM   12  C   UNL     1      -9.773   7.567  69.878  1.00  0.00    -0.171 A  
HETATM   13  C   UNL     1      -8.364   7.573  69.825  1.00  0.00    -0.134 A  
HETATM   14  C   UNL     1      -7.572   7.459  70.983  1.00  0.00    -0.086 A  
HETATM   15  C   UNL     1      -8.168   7.338  72.234  1.00  0.00    -0.111 A  
HETATM   16  C   UNL     1     -10.332   7.425  71.149  1.00  0.00    -0.209 A  
HETATM   17  C   UNL     1     -11.759   7.392  71.541  1.00  0.00    -0.314 C  
HETATM   18  C   UNL     1      -9.545   7.320  72.288  1.00  0.00    -0.146 A  
HETATM   19  O   UNL     1     -10.249   7.224  73.457  1.00  0.00    -0.300 OA 
HETATM   20  C   UNL     1     -11.637   7.247  73.059  1.00  0.00    -0.020 C  
ENDBRANCH   3  12
TORSDOF 5
ENDMDL
MODEL      218
REMARK 921   NORMALIZED FREE ENERGY PREDICTED BY IDOCK:   -2.71 KCAL/MOL
REMARK 922        TOTAL FREE ENERGY PREDICTED BY IDOCK:   -4.18 KCAL/MOL
REMARK 923 INTER-LIGAND FREE ENERGY PREDICTED BY IDOCK:   -3.99 KCAL/MOL
REMARK 924 INTRA-LIGAND FREE ENERGY PREDICTED BY IDOCK:   -0.19 KCAL/MOL
REMARK 927      BINDING AFFINITY PREDICTED BY RF-SCORE:    0.00 PKD
ROOT
HETATM    1  C   UNL     1      -8.675  10.920  67.784  1.00  0.00    -0.129 C  
HETATM    2  C   UNL     1      -7.592   9.950  68.166  1.00  0.00    -0.081 C  
HETATM    3  C   UNL     1      -7.472  10.723  66.877  1.00  0.00    -0.120 C  
ENDROOT
BRANCH   1   4
HETATM    4  C   UNL     1      -8.849  12.236  68.479  1.00  0.00    -0.068 C  
BRANCH   4   5
HETATM    5  N   UNL     1     -10.179  12.318  69.065  1.00  0.00    -0.425 NA 
HETATM    6  H   UNL     1     -10.531  13.207  69.419  1.00  0.00     0.000 HD 
BRANCH   5   7
HETATM    7  C   UNL     1     -10.907  11.262  69.132  1.00  0.00    -0.222 C  
HETATM    8  H   UNL     1     -12.331  10.093  68.241  1.00  0.00     0.000 HD 
HETATM    9  O   UNL     1     -11.792  10.874  68.192  1.00  0.00    -0.564 OA 
BRANCH   7  10
HETATM   10  C   UNL     1     -10.875  10.319  70.300  1.00  0.00    -0.349 C  
HETATM   11  C   UNL     1     -12.231  10.235  70.974  1.00  0.00    -0.487 C  
ENDBRANCH   7  10
ENDBRANCH   5   7
ENDBRANCH   4   5
ENDBRANCH   1   4
BRANCH   3  12
HETATM   12  C   UNL     1      -7.610  10.055  65.529  1.00  0.00    -0.136 A  
HETATM   13  C   UNL     1      -6.894   8.881  65.220  1.00  0.00    -0.072 A  
HETATM   14  C   UNL     1      -7.097   8.176  64.019  1.00  0.00    -0.087 A  
HETATM   15  C   UNL     1      -8.030   8.624  63.089  1.00  0.00    -0.162 A  
HETATM   16  C   UNL     1      -8.521  10.483  64.564  1.00  0.00    -0.133 A  
HETATM   17  C   UNL     1      -9.424  11.656  64.588  1.00  0.00    -0.066 C  
HETATM   18  C   UNL     1      -8.723   9.779  63.383  1.00  0.00    -0.226 A  
HETATM   19  O   UNL     1      -9.678  10.311  62.562  1.00  0.00    -0.262 OA 
HETATM   20  C   UNL     1     -10.143  11.494  63.248  1.00  0.00    -0.406 C  
ENDBRANCH   3  12
TORSDOF 5
ENDMDL
MODEL      219
REMARK 921   NORMALIZED FREE ENERGY PREDICTED BY IDOCK:   -2.70 KCAL/MOL
REMARK 922        TOTAL FREE ENERGY PREDICTED BY IDOCK:   -4.16 KCAL/MOL
REMARK 923 INTER-LIGAND FREE ENERGY PREDICTED BY IDOCK:   -4.43 KCAL/MOL
REMARK 924 INTRA-LIGAND FREE ENERGY PREDICTED BY IDOCK:    0.27 KCAL/MOL
REMARK 927      BINDING AFFINITY PREDICTED BY RF-SCORE:    0.00 PKD
ROOT
HETATM    1  C   UNL     1     -10.428   6.778  68.649  1.00  0.00    -0.232 C  
HETATM    2  C   UNL     1     -10.657   7.820  67.590  1.00  0.00    -0.283 C  
HETATM    3  C   UNL     1     -10.847   6.364  67.247  1.00  0.00    -0.463 C  
ENDROOT
BRANCH   1   4
HETATM    4  C   UNL     1     -11.386   6.568  69.781  1.00  0.00    -0.393 C  
BRANCH   4   5
HETATM    5  N   UNL     1     -11.545   7.804  70.534  1.00  0.00    -0.430 NA 
HETATM    6  H   UNL     1     -11.090   8.660  70.218  1.00  0.00     0.000 HD 
BRANCH   5   7
HETATM    7  C   UNL     1     -12.264   7.809  71.597  1.00  0.00    -0.313 C  
HETATM    8  H   UNL     1     -12.315   7.912  73.640  1.00  0.00     0.000 HD 
HETATM    9  O   UNL     1     -11.783   7.909  72.853  1.00  0.00    -0.350 OA 
BRANCH   7  10
HETATM   10  C   UNL     1     -13.760   7.682  71.575  1.00  0.00    -0.440 C  
HETATM   11  C   UNL     1     -14.407   8.643  72.554  1.00  0.00    -0.347 C  
ENDBRANCH   7  10
ENDBRANCH   5   7
ENDBRANCH   4   5
ENDBRANCH   1   4
BRANCH   3  12
HETATM   12  C   UNL     1      -9.897   5.629  66.332  1.00  0.00    -0.184 A  
HETATM   13  C   UNL     1     -10.035   4.246  66.095  1.00  0.00    -0.231 A  
HETATM   14  C   UNL     1      -9.238   3.565  65.156  1.00  0.00    -0.151 A  
HETATM   15  C   UNL     1      -8.278   4.251  64.419  1.00  0.00    -0.098 A  
HETATM   16  C   UNL     1      -8.910   6.277  65.588  1.00  0.00    -0.086 A  
HETATM   17  C   UNL     1      -8.526   7.706  65.594  1.00  0.00    -0.152 C  
HETATM   18  C   UNL     1      -8.132   5.601  64.657  1.00  0.00    -0.128 A  
HETATM   19  O   UNL     1      -7.238   6.390  63.987  1.00  0.00    -0.054 OA 
HETATM   20  C   UNL     1      -7.421   7.712  64.537  1.00  0.00    -0.094 C  
ENDBRANCH   3  12
TORSDOF 5
ENDMDL
MODEL      220
REMARK 921   NORMALIZED FREE ENERGY PREDICTED BY IDOCK:   -2.69 KCAL/MOL
REMARK 922        TOTAL FREE ENERGY PREDICTED BY IDOCK:   -4.16 KCAL/MOL
REMARK 923 INTER-LIGAND FREE ENERGY PREDICTED BY IDOCK:   -3.52 KCAL/MOL
REMARK 924 INTRA-LIGAND FREE ENERGY PREDICTED BY IDOCK:   -0.64 KCAL/MOL
REMARK 927      BINDING AFFINITY PREDICTED BY RF-SCORE:    0.00 PKD
ROOT
HETATM    1  C   UNL     1     -11.141   6.060  69.339  1.00  0.00    -0.445 C  
HETATM    2  C   UNL     1     -11.772   6.737  70.524  1.00  0.00    -0.430 C  
HETATM    3  C   UNL     1     -10.285   6.490  70.519  1.00  0.00    -0.224 C  
ENDROOT
BRANCH   1   4
HETATM    4  C   UNL     1     -10.962   6.756  68.025  1.00  0.00    -0.209 C  
BRANCH   4   5
HETATM    5  N   UNL     1     -11.115   5.806  66.933  1.00  0.00    -0.518 NA 
HETATM    6  H   UNL     1     -12.036   5.628  66.531  1.00  0.00     0.000 HD 
BRANCH   5   7
HETATM    7  C   UNL     1     -10.083   5.192  66.480  1.00  0.00    -0.239 C  
HETATM    8  H   UNL     1      -9.349   3.566  65.476  1.00  0.00     0.000 HD 
HETATM    9  O   UNL     1     -10.113   4.021  65.812  1.00  0.00    -0.179 OA 
BRANCH   7  10
HETATM   10  C   UNL     1      -8.683   5.704  66.658  1.00  0.00    -0.118 C  
HETATM   11  C   UNL     1      -8.285   6.625  65.520  1.00  0.00    -0.138 C  
ENDBRANCH   7  10
ENDBRANCH   5   7
ENDBRANCH   4   5
ENDBRANCH   1   4
BRANCH   3  12
HETATM   12  C   UNL     1      -9.642   5.472  71.431  1.00  0.00    -0.195 A  
HETATM   13  C   UNL     1     -10.408   4.477  72.071  1.00  0.00    -0.216 A  
HETATM   14  C   UNL     1      -9.817   3.448  72.827  1.00  0.00    -0.200 A  
HETATM   15  C   UNL     1      -8.434   3.380  72.961  1.00  0.00    -0.082 A  
HETATM   16  C   UNL     1      -8.261   5.381  71.606  1.00  0.00    -0.118 A  
HETATM   17  C   UNL     1      -7.192   6.250  71.065  1.00  0.00    -0.075 C  
HETATM   18  C   UNL     1      -7.682   4.358  72.347  1.00  0.00    -0.084 A  
HETATM   19  O   UNL     1      -6.315   4.392  72.389  1.00  0.00    -0.020 OA 
HETATM   20  C   UNL     1      -5.947   5.559  71.622  1.00  0.00    -0.029 C  
ENDBRANCH   3  12
TORSDOF 5
ENDMDL
MODEL      221
REMARK 921   NORMALIZED FREE ENERGY PREDICTED BY IDOCK:   -2.69 KCAL/MOL
REMARK 922        TOTAL FREE ENERGY PREDICTED BY IDOCK:   -4.15 KCAL/MOL
REMARK 923 INTER-LIGAND FREE ENERGY PREDICTED BY IDOCK:   -3.37 KCAL/MOL
REMARK 924 INTRA-LIGAND FREE ENERGY PREDICTED BY IDOCK:   -0.78 KCAL/MOL
REMARK 927      BINDING AFFINITY PREDICTED BY RF-SCORE:    0.00 PKD
ROOT
HETATM    1  C   UNL     1      -9.716  17.925  68.336  1.00  0.00    -0.340 C  
HETATM    2  C   UNL     1      -9.648  18.475  69.733  1.00  0.00     0.705 C  
HETATM    3  C   UNL     1      -9.529  16.988  69.518  1.00  0.00     0.269 C  
ENDROOT
BRANCH   1   4
HETATM    4  C   UNL     1      -8.592  18.089  67.359  1.00  0.00    -0.244 C  
BRANCH   4   5
HETATM    5  N   UNL     1      -9.015  17.655  66.036  1.00  0.00    -0.515 NA 
HETATM    6  H   UNL     1      -8.369  17.151  65.429  1.00  0.00     0.000 HD 
BRANCH   5   7
HETATM    7  C   UNL     1     -10.208  17.911  65.638  1.00  0.00     0.016 C  
HETATM    8  H   UNL     1     -11.595  19.337  65.157  1.00  0.00     0.000 HD 
HETATM    9  O   UNL     1     -10.711  19.147  65.451  1.00  0.00    -0.503 OA 
BRANCH   7  10
HETATM   10  C   UNL     1     -11.219  16.840  65.343  1.00  0.00     0.201 C  
HETATM   11  C   UNL     1     -10.563  15.622  64.719  1.00  0.00    -0.212 C  
ENDBRANCH   7  10
ENDBRANCH   5   7
ENDBRANCH   4   5
ENDBRANCH   1   4
BRANCH   3  12
HETATM   12  C   UNL     1     -10.619  16.030  69.937  1.00  0.00    -0.314 A  
HETATM   13  C   UNL     1     -11.541  16.370  70.948  1.00  0.00    -0.187 A  
HETATM   14  C   UNL     1     -12.635  15.546  71.270  1.00  0.00    -0.509 A  
HETATM   15  C   UNL     1     -12.844  14.354  70.583  1.00  0.00    -0.390 A  
HETATM   16  C   UNL     1     -10.852  14.818  69.286  1.00  0.00    -0.275 A  
HETATM   17  C   UNL     1     -10.086  14.188  68.187  1.00  0.00    -0.239 C  
HETATM   18  C   UNL     1     -11.938  14.012  69.603  1.00  0.00    -0.339 A  
HETATM   19  O   UNL     1     -12.041  12.878  68.846  1.00  0.00    -0.270 OA 
HETATM   20  C   UNL     1     -10.907  12.919  67.954  1.00  0.00    -0.227 C  
ENDBRANCH   3  12
TORSDOF 5
ENDMDL
MODEL      222
REMARK 921   NORMALIZED FREE ENERGY PREDICTED BY IDOCK:   -2.67 KCAL/MOL
REMARK 922        TOTAL FREE ENERGY PREDICTED BY IDOCK:   -4.13 KCAL/MOL
REMARK 923 INTER-LIGAND FREE ENERGY PREDICTED BY IDOCK:   -3.20 KCAL/MOL
REMARK 924 INTRA-LIGAND FREE ENERGY PREDICTED BY IDOCK:   -0.93 KCAL/MOL
REMARK 927      BINDING AFFINITY PREDICTED BY RF-SCORE:    0.00 PKD
ROOT
HETATM    1  C   UNL     1     -10.106   7.364  67.561  1.00  0.00    -0.250 C  
HETATM    2  C   UNL     1     -11.071   6.267  67.916  1.00  0.00    -0.360 C  
HETATM    3  C   UNL     1     -10.514   7.143  69.009  1.00  0.00    -0.221 C  
ENDROOT
BRANCH   1   4
HETATM    4  C   UNL     1     -10.545   8.619  66.871  1.00  0.00    -0.200 C  
BRANCH   4   5
HETATM    5  N   UNL     1      -9.691   9.730  67.267  1.00  0.00    -0.163 NA 
HETATM    6  H   UNL     1     -10.008  10.397  67.970  1.00  0.00     0.000 HD 
BRANCH   5   7
HETATM    7  C   UNL     1      -8.536   9.863  66.725  1.00  0.00    -0.125 C  
HETATM    8  H   UNL     1      -7.464  10.206  65.015  1.00  0.00     0.000 HD 
HETATM    9  O   UNL     1      -8.320  10.107  65.417  1.00  0.00    -0.144 OA 
BRANCH   7  10
HETATM   10  C   UNL     1      -7.252   9.744  67.495  1.00  0.00    -0.089 C  
HETATM   11  C   UNL     1      -6.436   8.555  67.022  1.00  0.00    -0.057 C  
ENDBRANCH   7  10
ENDBRANCH   5   7
ENDBRANCH   4   5
ENDBRANCH   1   4
BRANCH   3  12
HETATM   12  C   UNL     1      -9.528   6.620  70.027  1.00  0.00    -0.161 A  
HETATM   13  C   UNL     1      -8.138   6.686  69.800  1.00  0.00    -0.126 A  
HETATM   14  C   UNL     1      -7.201   6.316  70.782  1.00  0.00    -0.074 A  
HETATM   15  C   UNL     1      -7.629   5.871  72.029  1.00  0.00    -0.097 A  
HETATM   16  C   UNL     1      -9.916   6.150  71.282  1.00  0.00    -0.215 A  
HETATM   17  C   UNL     1     -11.279   5.973  71.831  1.00  0.00    -0.338 C  
HETATM   18  C   UNL     1      -8.987   5.793  72.251  1.00  0.00    -0.139 A  
HETATM   19  O   UNL     1      -9.532   5.389  73.438  1.00  0.00    -0.134 OA 
HETATM   20  C   UNL     1     -10.960   5.463  73.237  1.00  0.00    -0.307 C  
ENDBRANCH   3  12
TORSDOF 5
ENDMDL
MODEL      223
REMARK 921   NORMALIZED FREE ENERGY PREDICTED BY IDOCK:   -2.64 KCAL/MOL
REMARK 922        TOTAL FREE ENERGY PREDICTED BY IDOCK:   -4.09 KCAL/MOL
REMARK 923 INTER-LIGAND FREE ENERGY PREDICTED BY IDOCK:   -3.96 KCAL/MOL
REMARK 924 INTRA-LIGAND FREE ENERGY PREDICTED BY IDOCK:   -0.13 KCAL/MOL
REMARK 927      BINDING AFFINITY PREDICTED BY RF-SCORE:    0.00 PKD
ROOT
HETATM    1  C   UNL     1      -9.997   7.048  69.847  1.00  0.00    -0.183 C  
HETATM    2  C   UNL     1     -11.337   6.694  69.265  1.00  0.00    -0.301 C  
HETATM    3  C   UNL     1     -10.333   7.428  68.414  1.00  0.00    -0.224 C  
ENDROOT
BRANCH   1   4
HETATM    4  C   UNL     1      -8.937   6.017  70.092  1.00  0.00    -0.147 C  
BRANCH   4   5
HETATM    5  N   UNL     1      -8.443   5.501  68.824  1.00  0.00    -0.101 NA 
HETATM    6  H   UNL     1      -7.654   5.949  68.359  1.00  0.00     0.000 HD 
BRANCH   5   7
HETATM    7  C   UNL     1      -9.008   4.477  68.295  1.00  0.00    -0.116 C  
HETATM    8  H   UNL     1      -9.880   2.649  68.587  1.00  0.00     0.000 HD 
HETATM    9  O   UNL     1      -9.463   3.407  68.978  1.00  0.00    -0.165 OA 
BRANCH   7  10
HETATM   10  C   UNL     1      -9.219   4.332  66.815  1.00  0.00    -0.156 C  
HETATM   11  C   UNL     1     -10.444   5.101  66.357  1.00  0.00    -0.356 C  
ENDBRANCH   7  10
ENDBRANCH   5   7
ENDBRANCH   4   5
ENDBRANCH   1   4
BRANCH   3  12
HETATM   12  C   UNL     1     -10.528   8.872  68.013  1.00  0.00    -0.263 A  
HETATM   13  C   UNL     1     -11.159   9.790  68.877  1.00  0.00    -0.139 A  
HETATM   14  C   UNL     1     -11.244  11.162  68.576  1.00  0.00    -0.318 A  
HETATM   15  C   UNL     1     -10.694  11.659  67.399  1.00  0.00    -0.277 A  
HETATM   16  C   UNL     1     -10.006   9.406  66.835  1.00  0.00    -0.293 A  
HETATM   17  C   UNL     1      -9.284   8.721  65.740  1.00  0.00    -0.269 C  
HETATM   18  C   UNL     1     -10.087  10.762  66.547  1.00  0.00    -0.228 A  
HETATM   19  O   UNL     1      -9.493  11.128  65.370  1.00  0.00    -0.210 OA 
HETATM   20  C   UNL     1      -8.988   9.897  64.809  1.00  0.00    -0.217 C  
ENDBRANCH   3  12
TORSDOF 5
ENDMDL
MODEL      224
REMARK 921   NORMALIZED FREE ENERGY PREDICTED BY IDOCK:   -2.61 KCAL/MOL
REMARK 922        TOTAL FREE ENERGY PREDICTED BY IDOCK:   -4.04 KCAL/MOL
REMARK 923 INTER-LIGAND FREE ENERGY PREDICTED BY IDOCK:   -3.28 KCAL/MOL
REMARK 924 INTRA-LIGAND FREE ENERGY PREDICTED BY IDOCK:   -0.76 KCAL/MOL
REMARK 927      BINDING AFFINITY PREDICTED BY RF-SCORE:    0.00 PKD
ROOT
HETATM    1  C   UNL     1      -8.947  11.897  68.163  1.00  0.00    -0.185 C  
HETATM    2  C   UNL     1      -7.634  12.609  68.335  1.00  0.00    -0.132 C  
HETATM    3  C   UNL     1      -7.739  11.480  67.341  1.00  0.00    -0.143 C  
ENDROOT
BRANCH   1   4
HETATM    4  C   UNL     1     -10.112  12.531  67.466  1.00  0.00    -0.207 C  
BRANCH   4   5
HETATM    5  N   UNL     1      -9.644  13.338  66.348  1.00  0.00    -0.306 NA 
HETATM    6  H   UNL     1      -8.782  13.877  66.429  1.00  0.00     0.000 HD 
BRANCH   5   7
HETATM    7  C   UNL     1     -10.324  13.366  65.260  1.00  0.00    -0.319 C  
HETATM    8  H   UNL     1     -11.000  14.477  63.680  1.00  0.00     0.000 HD 
HETATM    9  O   UNL     1     -10.497  14.456  64.486  1.00  0.00    -0.349 OA 
BRANCH   7  10
HETATM   10  C   UNL     1     -11.043  12.166  64.713  1.00  0.00    -0.364 C  
HETATM   11  C   UNL     1     -10.363  11.642  63.462  1.00  0.00    -0.488 C  
ENDBRANCH   7  10
ENDBRANCH   5   7
ENDBRANCH   4   5
ENDBRANCH   1   4
BRANCH   3  12
HETATM   12  C   UNL     1      -7.060  10.150  67.569  1.00  0.00    -0.087 A  
HETATM   13  C   UNL     1      -5.938  10.038  68.416  1.00  0.00    -0.042 A  
HETATM   14  C   UNL     1      -5.364   8.794  68.737  1.00  0.00    -0.033 A  
HETATM   15  C   UNL     1      -5.902   7.619  68.222  1.00  0.00    -0.031 A  
HETATM   16  C   UNL     1      -7.556   8.951  67.058  1.00  0.00    -0.094 A  
HETATM   17  C   UNL     1      -8.713   8.727  66.162  1.00  0.00    -0.184 C  
HETATM   18  C   UNL     1      -6.991   7.725  67.385  1.00  0.00    -0.078 A  
HETATM   19  O   UNL     1      -7.620   6.644  66.830  1.00  0.00    -0.091 OA 
HETATM   20  C   UNL     1      -8.694   7.202  66.042  1.00  0.00    -0.147 C  
ENDBRANCH   3  12
TORSDOF 5
ENDMDL
MODEL      225
REMARK 921   NORMALIZED FREE ENERGY PREDICTED BY IDOCK:   -2.60 KCAL/MOL
REMARK 922        TOTAL FREE ENERGY PREDICTED BY IDOCK:   -4.03 KCAL/MOL
REMARK 923 INTER-LIGAND FREE ENERGY PREDICTED BY IDOCK:   -4.19 KCAL/MOL
REMARK 924 INTRA-LIGAND FREE ENERGY PREDICTED BY IDOCK:    0.16 KCAL/MOL
REMARK 927      BINDING AFFINITY PREDICTED BY RF-SCORE:    0.00 PKD
ROOT
HETATM    1  C   UNL     1      -9.139   9.936  65.548  1.00  0.00    -0.232 C  
HETATM    2  C   UNL     1      -8.191  11.003  66.021  1.00  0.00    -0.129 C  
HETATM    3  C   UNL     1      -8.974  10.206  67.035  1.00  0.00    -0.148 C  
ENDROOT
BRANCH   1   4
HETATM    4  C   UNL     1      -8.656   8.630  64.993  1.00  0.00    -0.158 C  
BRANCH   4   5
HETATM    5  N   UNL     1      -8.168   7.782  66.071  1.00  0.00    -0.116 NA 
HETATM    6  H   UNL     1      -7.296   8.009  66.549  1.00  0.00     0.000 HD 
BRANCH   5   7
HETATM    7  C   UNL     1      -8.842   6.746  66.415  1.00  0.00    -0.144 C  
HETATM    8  H   UNL     1      -9.514   4.881  65.906  1.00  0.00     0.000 HD 
HETATM    9  O   UNL     1      -9.014   5.648  65.652  1.00  0.00    -0.160 OA 
BRANCH   7  10
HETATM   10  C   UNL     1      -9.553   6.633  67.733  1.00  0.00    -0.129 C  
HETATM   11  C   UNL     1     -10.364   5.353  67.812  1.00  0.00    -0.226 C  
ENDBRANCH   7  10
ENDBRANCH   5   7
ENDBRANCH   4   5
ENDBRANCH   1   4
BRANCH   3  12
HETATM   12  C   UNL     1     -10.089  10.823  67.846  1.00  0.00    -0.197 A  
HETATM   13  C   UNL     1     -10.413  10.338  69.129  1.00  0.00    -0.246 A  
HETATM   14  C   UNL     1     -11.365  10.971  69.949  1.00  0.00    -0.364 A  
HETATM   15  C   UNL     1     -12.021  12.117  69.510  1.00  0.00    -0.338 A  
HETATM   16  C   UNL     1     -10.782  11.961  67.434  1.00  0.00    -0.271 A  
HETATM   17  C   UNL     1     -10.668  12.715  66.165  1.00  0.00    -0.293 C  
HETATM   18  C   UNL     1     -11.716  12.586  68.251  1.00  0.00    -0.340 A  
HETATM   19  O   UNL     1     -12.277  13.712  67.712  1.00  0.00    -0.321 OA 
HETATM   20  C   UNL     1     -11.678  13.838  66.405  1.00  0.00    -0.379 C  
ENDBRANCH   3  12
TORSDOF 5
ENDMDL
MODEL      226
REMARK 921   NORMALIZED FREE ENERGY PREDICTED BY IDOCK:   -2.54 KCAL/MOL
REMARK 922        TOTAL FREE ENERGY PREDICTED BY IDOCK:   -3.96 KCAL/MOL
REMARK 923 INTER-LIGAND FREE ENERGY PREDICTED BY IDOCK:   -3.40 KCAL/MOL
REMARK 924 INTRA-LIGAND FREE ENERGY PREDICTED BY IDOCK:   -0.56 KCAL/MOL
REMARK 927      BINDING AFFINITY PREDICTED BY RF-SCORE:    0.00 PKD
ROOT
HETATM    1  C   UNL     1     -10.706   9.853  67.988  1.00  0.00    -0.296 C  
HETATM    2  C   UNL     1     -11.089  10.638  69.211  1.00  0.00    -0.306 C  
HETATM    3  C   UNL     1     -10.015   9.584  69.315  1.00  0.00    -0.191 C  
ENDROOT
BRANCH   1   4
HETATM    4  C   UNL     1      -9.912  10.456  66.869  1.00  0.00    -0.206 C  
BRANCH   4   5
HETATM    5  N   UNL     1      -8.825   9.564  66.493  1.00  0.00    -0.137 NA 
HETATM    6  H   UNL     1      -8.614   8.743  67.061  1.00  0.00     0.000 HD 
BRANCH   5   7
HETATM    7  C   UNL     1      -8.134   9.817  65.442  1.00  0.00    -0.127 C  
HETATM    8  H   UNL     1      -8.106  10.012  63.405  1.00  0.00     0.000 HD 
HETATM    9  O   UNL     1      -8.617   9.825  64.184  1.00  0.00    -0.163 OA 
BRANCH   7  10
HETATM   10  C   UNL     1      -6.665  10.125  65.484  1.00  0.00    -0.122 C  
HETATM   11  C   UNL     1      -5.853   8.886  65.815  1.00  0.00    -0.051 C  
ENDBRANCH   7  10
ENDBRANCH   5   7
ENDBRANCH   4   5
ENDBRANCH   1   4
BRANCH   3  12
HETATM   12  C   UNL     1     -10.236   8.291  70.064  1.00  0.00    -0.202 A  
HETATM   13  C   UNL     1     -11.441   8.043  70.753  1.00  0.00    -0.273 A  
HETATM   14  C   UNL     1     -11.715   6.801  71.355  1.00  0.00    -0.371 A  
HETATM   15  C   UNL     1     -10.791   5.764  71.280  1.00  0.00    -0.313 A  
HETATM   16  C   UNL     1      -9.328   7.233  70.028  1.00  0.00    -0.154 A  
HETATM   17  C   UNL     1      -7.996   7.169  69.385  1.00  0.00    -0.125 C  
HETATM   18  C   UNL     1      -9.607   6.007  70.618  1.00  0.00    -0.173 A  
HETATM   19  O   UNL     1      -8.627   5.066  70.460  1.00  0.00    -0.105 OA 
HETATM   20  C   UNL     1      -7.587   5.732  69.713  1.00  0.00    -0.080 C  
ENDBRANCH   3  12
TORSDOF 5
ENDMDL
MODEL      227
REMARK 921   NORMALIZED FREE ENERGY PREDICTED BY IDOCK:   -2.54 KCAL/MOL
REMARK 922        TOTAL FREE ENERGY PREDICTED BY IDOCK:   -3.95 KCAL/MOL
REMARK 923 INTER-LIGAND FREE ENERGY PREDICTED BY IDOCK:   -3.56 KCAL/MOL
REMARK 924 INTRA-LIGAND FREE ENERGY PREDICTED BY IDOCK:   -0.39 KCAL/MOL
REMARK 927      BINDING AFFINITY PREDICTED BY RF-SCORE:    0.00 PKD
ROOT
HETATM    1  C   UNL     1      -9.628  11.779  66.689  1.00  0.00    -0.219 C  
HETATM    2  C   UNL     1     -10.373  12.386  65.533  1.00  0.00    -0.298 C  
HETATM    3  C   UNL     1     -10.251  10.886  65.629  1.00  0.00    -0.323 C  
ENDROOT
BRANCH   1   4
HETATM    4  C   UNL     1     -10.193  11.756  68.077  1.00  0.00    -0.193 C  
BRANCH   4   5
HETATM    5  N   UNL     1     -10.618  10.406  68.418  1.00  0.00    -0.194 NA 
HETATM    6  H   UNL     1     -11.426   9.989  67.956  1.00  0.00     0.000 HD 
BRANCH   5   7
HETATM    7  C   UNL     1      -9.968   9.744  69.305  1.00  0.00    -0.192 C  
HETATM    8  H   UNL     1      -8.194   9.459  70.285  1.00  0.00     0.000 HD 
HETATM    9  O   UNL     1      -8.676   9.950  69.629  1.00  0.00    -0.177 OA 
BRANCH   7  10
HETATM   10  C   UNL     1     -10.575   8.620  70.094  1.00  0.00    -0.235 C  
HETATM   11  C   UNL     1     -11.611   9.135  71.076  1.00  0.00    -0.370 C  
ENDBRANCH   7  10
ENDBRANCH   5   7
ENDBRANCH   4   5
ENDBRANCH   1   4
BRANCH   3  12
HETATM   12  C   UNL     1      -9.393  10.092  64.673  1.00  0.00    -0.338 A  
HETATM   13  C   UNL     1      -9.620  10.132  63.282  1.00  0.00    -0.231 A  
HETATM   14  C   UNL     1      -8.761   9.497  62.366  1.00  0.00    -0.236 A  
HETATM   15  C   UNL     1      -7.641   8.805  62.815  1.00  0.00    -0.112 A  
HETATM   16  C   UNL     1      -8.271   9.372  65.084  1.00  0.00    -0.136 A  
HETATM   17  C   UNL     1      -7.757   9.150  66.454  1.00  0.00    -0.096 C  
HETATM   18  C   UNL     1      -7.423   8.754  64.175  1.00  0.00    -0.109 A  
HETATM   19  O   UNL     1      -6.350   8.122  64.740  1.00  0.00    -0.049 OA 
HETATM   20  C   UNL     1      -6.508   8.317  66.162  1.00  0.00    -0.050 C  
ENDBRANCH   3  12
TORSDOF 5
ENDMDL
MODEL      228
REMARK 921   NORMALIZED FREE ENERGY PREDICTED BY IDOCK:   -2.52 KCAL/MOL
REMARK 922        TOTAL FREE ENERGY PREDICTED BY IDOCK:   -3.93 KCAL/MOL
REMARK 923 INTER-LIGAND FREE ENERGY PREDICTED BY IDOCK:   -3.54 KCAL/MOL
REMARK 924 INTRA-LIGAND FREE ENERGY PREDICTED BY IDOCK:   -0.40 KCAL/MOL
REMARK 927      BINDING AFFINITY PREDICTED BY RF-SCORE:    0.00 PKD
ROOT
HETATM    1  C   UNL     1      -9.844  17.772  68.320  1.00  0.00    -0.340 C  
HETATM    2  C   UNL     1      -9.939  18.018  69.800  1.00  0.00     0.559 C  
HETATM    3  C   UNL     1      -9.695  16.618  69.298  1.00  0.00    -0.173 C  
ENDROOT
BRANCH   1   4
HETATM    4  C   UNL     1      -8.653  18.196  67.516  1.00  0.00    -0.249 C  
BRANCH   4   5
HETATM    5  N   UNL     1      -8.850  17.850  66.116  1.00  0.00    -0.486 NA 
HETATM    6  H   UNL     1      -8.079  17.471  65.567  1.00  0.00     0.000 HD 
BRANCH   5   7
HETATM    7  C   UNL     1     -10.001  18.026  65.577  1.00  0.00     0.475 C  
HETATM    8  H   UNL     1     -11.359  19.351  64.809  1.00  0.00     0.000 HD 
HETATM    9  O   UNL     1     -10.506  19.220  65.208  1.00  0.00    -0.342 OA 
BRANCH   7  10
HETATM   10  C   UNL     1     -10.957  16.901  65.302  1.00  0.00    -0.049 C  
HETATM   11  C   UNL     1     -10.215  15.610  65.009  1.00  0.00    -0.202 C  
ENDBRANCH   7  10
ENDBRANCH   5   7
ENDBRANCH   4   5
ENDBRANCH   1   4
BRANCH   3  12
HETATM   12  C   UNL     1     -10.747  15.539  69.400  1.00  0.00    -0.251 A  
HETATM   13  C   UNL     1     -10.842  14.518  68.433  1.00  0.00    -0.250 A  
HETATM   14  C   UNL     1     -11.733  13.438  68.571  1.00  0.00    -0.392 A  
HETATM   15  C   UNL     1     -12.557  13.344  69.688  1.00  0.00     0.098 A  
HETATM   16  C   UNL     1     -11.603  15.419  70.495  1.00  0.00    -0.355 A  
HETATM   17  C   UNL     1     -11.740  16.305  71.673  1.00  0.00    -0.490 C  
HETATM   18  C   UNL     1     -12.475  14.347  70.630  1.00  0.00    -0.350 A  
HETATM   19  O   UNL     1     -13.217  14.360  71.779  1.00  0.00    -0.321 OA 
HETATM   20  C   UNL     1     -12.818  15.565  72.466  1.00  0.00    -0.420 C  
ENDBRANCH   3  12
TORSDOF 5
ENDMDL
MODEL      229
REMARK 921   NORMALIZED FREE ENERGY PREDICTED BY IDOCK:   -2.51 KCAL/MOL
REMARK 922        TOTAL FREE ENERGY PREDICTED BY IDOCK:   -3.92 KCAL/MOL
REMARK 923 INTER-LIGAND FREE ENERGY PREDICTED BY IDOCK:   -3.82 KCAL/MOL
REMARK 924 INTRA-LIGAND FREE ENERGY PREDICTED BY IDOCK:   -0.11 KCAL/MOL
REMARK 927      BINDING AFFINITY PREDICTED BY RF-SCORE:    0.00 PKD
ROOT
HETATM    1  C   UNL     1      -9.790   8.877  70.671  1.00  0.00    -0.261 C  
HETATM    2  C   UNL     1      -9.467   9.876  69.596  1.00  0.00    -0.252 C  
HETATM    3  C   UNL     1     -10.416   8.744  69.292  1.00  0.00    -0.228 C  
ENDROOT
BRANCH   1   4
HETATM    4  C   UNL     1     -10.671   9.215  71.835  1.00  0.00    -0.264 C  
BRANCH   4   5
HETATM    5  N   UNL     1     -11.948   8.528  71.708  1.00  0.00    -0.309 NA 
HETATM    6  H   UNL     1     -12.756   9.014  71.318  1.00  0.00     0.000 HD 
BRANCH   5   7
HETATM    7  C   UNL     1     -12.051   7.308  72.090  1.00  0.00    -0.250 C  
HETATM    8  H   UNL     1     -13.109   5.558  72.000  1.00  0.00     0.000 HD 
HETATM    9  O   UNL     1     -13.033   6.462  71.717  1.00  0.00    -0.168 OA 
BRANCH   7  10
HETATM   10  C   UNL     1     -11.080   6.661  73.036  1.00  0.00    -0.238 C  
HETATM   11  C   UNL     1     -10.948   5.175  72.757  1.00  0.00    -0.327 C  
ENDBRANCH   7  10
ENDBRANCH   5   7
ENDBRANCH   4   5
ENDBRANCH   1   4
BRANCH   3  12
HETATM   12  C   UNL     1     -10.037   7.612  68.368  1.00  0.00    -0.208 A  
HETATM   13  C   UNL     1     -10.736   6.387  68.389  1.00  0.00    -0.349 A  
HETATM   14  C   UNL     1     -10.480   5.364  67.457  1.00  0.00    -0.235 A  
HETATM   15  C   UNL     1      -9.516   5.538  66.469  1.00  0.00    -0.161 A  
HETATM   16  C   UNL     1      -9.066   7.739  67.375  1.00  0.00    -0.138 A  
HETATM   17  C   UNL     1      -8.178   8.887  67.081  1.00  0.00    -0.103 C  
HETATM   18  C   UNL     1      -8.823   6.729  66.453  1.00  0.00    -0.144 A  
HETATM   19  O   UNL     1      -7.865   7.028  65.523  1.00  0.00    -0.101 OA 
HETATM   20  C   UNL     1      -7.411   8.355  65.869  1.00  0.00    -0.081 C  
ENDBRANCH   3  12
TORSDOF 5
ENDMDL
MODEL      230
REMARK 921   NORMALIZED FREE ENERGY PREDICTED BY IDOCK:   -2.46 KCAL/MOL
REMARK 922        TOTAL FREE ENERGY PREDICTED BY IDOCK:   -3.85 KCAL/MOL
REMARK 923 INTER-LIGAND FREE ENERGY PREDICTED BY IDOCK:   -3.08 KCAL/MOL
REMARK 924 INTRA-LIGAND FREE ENERGY PREDICTED BY IDOCK:   -0.76 KCAL/MOL
REMARK 927      BINDING AFFINITY PREDICTED BY RF-SCORE:    0.00 PKD
ROOT
HETATM    1  C   UNL     1      -6.967   6.893  68.954  1.00  0.00    -0.082 C  
HETATM    2  C   UNL     1      -7.624   7.890  68.042  1.00  0.00    -0.113 C  
HETATM    3  C   UNL     1      -8.421   6.714  68.546  1.00  0.00    -0.122 C  
ENDROOT
BRANCH   1   4
HETATM    4  C   UNL     1      -6.651   7.208  70.385  1.00  0.00    -0.047 C  
BRANCH   4   5
HETATM    5  N   UNL     1      -7.845   7.054  71.203  1.00  0.00    -0.098 NA 
HETATM    6  H   UNL     1      -8.433   6.227  71.105  1.00  0.00     0.000 HD 
BRANCH   5   7
HETATM    7  C   UNL     1      -8.153   7.968  72.050  1.00  0.00    -0.131 C  
HETATM    8  H   UNL     1      -7.493   9.422  73.331  1.00  0.00     0.000 HD 
HETATM    9  O   UNL     1      -7.266   8.745  72.703  1.00  0.00    -0.323 OA 
BRANCH   7  10
HETATM   10  C   UNL     1      -9.569   8.277  72.442  1.00  0.00    -0.364 C  
HETATM   11  C   UNL     1     -10.251   9.143  71.399  1.00  0.00    -0.402 C  
ENDBRANCH   7  10
ENDBRANCH   5   7
ENDBRANCH   4   5
ENDBRANCH   1   4
BRANCH   3  12
HETATM   12  C   UNL     1      -8.844   5.586  67.635  1.00  0.00    -0.105 A  
HETATM   13  C   UNL     1      -8.903   5.759  66.237  1.00  0.00    -0.140 A  
HETATM   14  C   UNL     1      -9.177   4.692  65.362  1.00  0.00    -0.155 A  
HETATM   15  C   UNL     1      -9.396   3.412  65.861  1.00  0.00    -0.145 A  
HETATM   16  C   UNL     1      -9.088   4.292  68.097  1.00  0.00    -0.168 A  
HETATM   17  C   UNL     1      -9.090   3.783  69.487  1.00  0.00    -0.200 C  
HETATM   18  C   UNL     1      -9.351   3.241  67.228  1.00  0.00    -0.192 A  
HETATM   19  O   UNL     1      -9.531   2.031  67.840  1.00  0.00    -0.191 OA 
HETATM   20  C   UNL     1      -9.397   2.304  69.252  1.00  0.00    -0.105 C  
ENDBRANCH   3  12
TORSDOF 5
ENDMDL
MODEL      231
REMARK 921   NORMALIZED FREE ENERGY PREDICTED BY IDOCK:   -2.44 KCAL/MOL
REMARK 922        TOTAL FREE ENERGY PREDICTED BY IDOCK:   -3.83 KCAL/MOL
REMARK 923 INTER-LIGAND FREE ENERGY PREDICTED BY IDOCK:   -3.59 KCAL/MOL
REMARK 924 INTRA-LIGAND FREE ENERGY PREDICTED BY IDOCK:   -0.24 KCAL/MOL
REMARK 927      BINDING AFFINITY PREDICTED BY RF-SCORE:    0.00 PKD
ROOT
HETATM    1  C   UNL     1      -7.974  10.876  67.412  1.00  0.00    -0.113 C  
HETATM    2  C   UNL     1      -7.262   9.583  67.695  1.00  0.00    -0.082 C  
HETATM    3  C   UNL     1      -6.923  10.356  66.445  1.00  0.00    -0.114 C  
ENDROOT
BRANCH   1   4
HETATM    4  C   UNL     1      -7.689  12.129  68.183  1.00  0.00    -0.129 C  
BRANCH   4   5
HETATM    5  N   UNL     1      -8.934  12.718  68.654  1.00  0.00    -0.395 NA 
HETATM    6  H   UNL     1      -9.181  12.676  69.643  1.00  0.00     0.000 HD 
BRANCH   5   7
HETATM    7  C   UNL     1      -9.719  13.290  67.816  1.00  0.00    -0.217 C  
HETATM    8  H   UNL     1      -9.920  14.633  66.284  1.00  0.00     0.000 HD 
HETATM    9  O   UNL     1      -9.339  14.209  66.905  1.00  0.00    -0.243 OA 
BRANCH   7  10
HETATM   10  C   UNL     1     -11.195  13.016  67.757  1.00  0.00    -0.313 C  
HETATM   11  C   UNL     1     -11.953  14.209  67.207  1.00  0.00    -0.449 C  
ENDBRANCH   7  10
ENDBRANCH   5   7
ENDBRANCH   4   5
ENDBRANCH   1   4
BRANCH   3  12
HETATM   12  C   UNL     1      -7.303   9.858  65.071  1.00  0.00    -0.135 A  
HETATM   13  C   UNL     1      -6.592   8.810  64.451  1.00  0.00    -0.071 A  
HETATM   14  C   UNL     1      -7.001   8.251  63.226  1.00  0.00    -0.086 A  
HETATM   15  C   UNL     1      -8.142   8.722  62.585  1.00  0.00    -0.171 A  
HETATM   16  C   UNL     1      -8.429  10.315  64.386  1.00  0.00    -0.182 A  
HETATM   17  C   UNL     1      -9.384  11.380  64.768  1.00  0.00    -0.118 C  
HETATM   18  C   UNL     1      -8.833   9.754  63.182  1.00  0.00    -0.246 A  
HETATM   19  O   UNL     1      -9.978  10.292  62.661  1.00  0.00    -0.119 OA 
HETATM   20  C   UNL     1     -10.363  11.323  63.595  1.00  0.00    -0.408 C  
ENDBRANCH   3  12
TORSDOF 5
ENDMDL
MODEL      232
REMARK 921   NORMALIZED FREE ENERGY PREDICTED BY IDOCK:   -2.40 KCAL/MOL
REMARK 922        TOTAL FREE ENERGY PREDICTED BY IDOCK:   -3.77 KCAL/MOL
REMARK 923 INTER-LIGAND FREE ENERGY PREDICTED BY IDOCK:   -3.33 KCAL/MOL
REMARK 924 INTRA-LIGAND FREE ENERGY PREDICTED BY IDOCK:   -0.44 KCAL/MOL
REMARK 927      BINDING AFFINITY PREDICTED BY RF-SCORE:    0.00 PKD
ROOT
HETATM    1  C   UNL     1      -8.593  11.266  67.710  1.00  0.00    -0.126 C  
HETATM    2  C   UNL     1      -7.107  11.472  67.805  1.00  0.00    -0.079 C  
HETATM    3  C   UNL     1      -7.727  11.171  66.464  1.00  0.00    -0.146 C  
ENDROOT
BRANCH   1   4
HETATM    4  C   UNL     1      -9.564  12.401  67.830  1.00  0.00    -0.202 C  
BRANCH   4   5
HETATM    5  N   UNL     1     -10.255  12.330  69.109  1.00  0.00    -0.418 NA 
HETATM    6  H   UNL     1      -9.871  11.771  69.871  1.00  0.00     0.000 HD 
BRANCH   5   7
HETATM    7  C   UNL     1     -11.351  12.978  69.272  1.00  0.00    -0.251 C  
HETATM    8  H   UNL     1     -13.155  13.096  70.232  1.00  0.00     0.000 HD 
HETATM    9  O   UNL     1     -12.343  12.617  70.111  1.00  0.00    -0.250 OA 
BRANCH   7  10
HETATM   10  C   UNL     1     -11.680  14.234  68.518  1.00  0.00    -0.376 C  
HETATM   11  C   UNL     1     -11.164  15.462  69.245  1.00  0.00    -0.300 C  
ENDBRANCH   7  10
ENDBRANCH   5   7
ENDBRANCH   4   5
ENDBRANCH   1   4
BRANCH   3  12
HETATM   12  C   UNL     1      -7.510   9.852  65.762  1.00  0.00    -0.110 A  
HETATM   13  C   UNL     1      -6.867   8.777  66.409  1.00  0.00    -0.075 A  
HETATM   14  C   UNL     1      -6.761   7.504  65.819  1.00  0.00    -0.045 A  
HETATM   15  C   UNL     1      -7.302   7.266  64.559  1.00  0.00    -0.080 A  
HETATM   16  C   UNL     1      -8.021   9.578  64.493  1.00  0.00    -0.133 A  
HETATM   17  C   UNL     1      -8.751  10.474  63.568  1.00  0.00    -0.187 C  
HETATM   18  C   UNL     1      -7.920   8.317  63.918  1.00  0.00    -0.146 A  
HETATM   19  O   UNL     1      -8.506   8.207  62.687  1.00  0.00    -0.143 OA 
HETATM   20  C   UNL     1      -9.028   9.523  62.404  1.00  0.00    -0.265 C  
ENDBRANCH   3  12
TORSDOF 5
ENDMDL
MODEL      233
REMARK 921   NORMALIZED FREE ENERGY PREDICTED BY IDOCK:   -2.31 KCAL/MOL
REMARK 922        TOTAL FREE ENERGY PREDICTED BY IDOCK:   -3.65 KCAL/MOL
REMARK 923 INTER-LIGAND FREE ENERGY PREDICTED BY IDOCK:   -3.31 KCAL/MOL
REMARK 924 INTRA-LIGAND FREE ENERGY PREDICTED BY IDOCK:   -0.34 KCAL/MOL
REMARK 927      BINDING AFFINITY PREDICTED BY RF-SCORE:    0.00 PKD
ROOT
HETATM    1  C   UNL     1      -9.264  18.749  66.899  1.00  0.00    -0.316 C  
HETATM    2  C   UNL     1     -10.666  19.226  67.153  1.00  0.00    -0.584 C  
HETATM    3  C   UNL     1      -9.936  18.469  68.234  1.00  0.00    -0.409 C  
ENDROOT
BRANCH   1   4
HETATM    4  C   UNL     1      -8.097  19.688  66.860  1.00  0.00    -0.287 C  
BRANCH   4   5
HETATM    5  N   UNL     1      -6.854  18.944  67.010  1.00  0.00    -0.201 NA 
HETATM    6  H   UNL     1      -6.503  18.370  66.244  1.00  0.00     0.000 HD 
BRANCH   5   7
HETATM    7  C   UNL     1      -6.203  19.017  68.114  1.00  0.00    -0.218 C  
HETATM    8  H   UNL     1      -4.954  20.113  69.308  1.00  0.00     0.000 HD 
HETATM    9  O   UNL     1      -5.436  20.059  68.491  1.00  0.00    -0.205 OA 
BRANCH   7  10
HETATM   10  C   UNL     1      -6.200  17.916  69.136  1.00  0.00    -0.231 C  
HETATM   11  C   UNL     1      -6.478  18.457  70.526  1.00  0.00     0.717 C  
ENDBRANCH   7  10
ENDBRANCH   5   7
ENDBRANCH   4   5
ENDBRANCH   1   4
BRANCH   3  12
HETATM   12  C   UNL     1     -10.329  17.067  68.632  1.00  0.00    -0.351 A  
HETATM   13  C   UNL     1     -11.581  16.799  69.223  1.00  0.00     0.413 A  
HETATM   14  C   UNL     1     -12.017  15.489  69.491  1.00  0.00    -0.372 A  
HETATM   15  C   UNL     1     -11.212  14.400  69.170  1.00  0.00    -0.300 A  
HETATM   16  C   UNL     1      -9.544  15.950  68.343  1.00  0.00    -0.208 A  
HETATM   17  C   UNL     1      -8.203  15.890  67.719  1.00  0.00    -0.157 C  
HETATM   18  C   UNL     1      -9.983  14.658  68.603  1.00  0.00    -0.234 A  
HETATM   19  O   UNL     1      -9.108  13.677  68.225  1.00  0.00    -0.191 OA 
HETATM   20  C   UNL     1      -7.970  14.379  67.682  1.00  0.00    -0.179 C  
ENDBRANCH   3  12
TORSDOF 5
ENDMDL
MODEL      234
REMARK 921   NORMALIZED FREE ENERGY PREDICTED BY IDOCK:   -2.29 KCAL/MOL
REMARK 922        TOTAL FREE ENERGY PREDICTED BY IDOCK:   -3.64 KCAL/MOL
REMARK 923 INTER-LIGAND FREE ENERGY PREDICTED BY IDOCK:   -3.03 KCAL/MOL
REMARK 924 INTRA-LIGAND FREE ENERGY PREDICTED BY IDOCK:   -0.61 KCAL/MOL
REMARK 927      BINDING AFFINITY PREDICTED BY RF-SCORE:    0.00 PKD
ROOT
HETATM    1  C   UNL     1      -9.036  11.737  68.341  1.00  0.00    -0.176 C  
HETATM    2  C   UNL     1      -7.829  12.612  68.151  1.00  0.00    -0.145 C  
HETATM    3  C   UNL     1      -8.086  11.486  67.182  1.00  0.00    -0.159 C  
ENDROOT
BRANCH   1   4
HETATM    4  C   UNL     1     -10.424  12.219  68.047  1.00  0.00    -0.218 C  
BRANCH   4   5
HETATM    5  N   UNL     1     -11.013  12.803  69.243  1.00  0.00    -0.443 NA 
HETATM    6  H   UNL     1     -10.933  12.326  70.141  1.00  0.00     0.000 HD 
BRANCH   5   7
HETATM    7  C   UNL     1     -11.633  13.924  69.160  1.00  0.00    -0.313 C  
HETATM    8  H   UNL     1     -13.151  15.107  69.854  1.00  0.00     0.000 HD 
HETATM    9  O   UNL     1     -12.691  14.278  69.916  1.00  0.00    -0.262 OA 
BRANCH   7  10
HETATM   10  C   UNL     1     -11.259  14.995  68.176  1.00  0.00    -0.316 C  
HETATM   11  C   UNL     1     -10.508  16.126  68.854  1.00  0.00    -0.258 C  
ENDBRANCH   7  10
ENDBRANCH   5   7
ENDBRANCH   4   5
ENDBRANCH   1   4
BRANCH   3  12
HETATM   12  C   UNL     1      -7.213  10.254  67.140  1.00  0.00    -0.090 A  
HETATM   13  C   UNL     1      -5.949  10.233  67.764  1.00  0.00    -0.045 A  
HETATM   14  C   UNL     1      -5.172   9.062  67.841  1.00  0.00    -0.034 A  
HETATM   15  C   UNL     1      -5.641   7.871  67.297  1.00  0.00    -0.037 A  
HETATM   16  C   UNL     1      -7.638   9.045  66.590  1.00  0.00    -0.089 A  
HETATM   17  C   UNL     1      -8.903   8.734  65.886  1.00  0.00    -0.222 C  
HETATM   18  C   UNL     1      -6.871   7.890  66.676  1.00  0.00    -0.071 A  
HETATM   19  O   UNL     1      -7.449   6.783  66.119  1.00  0.00    -0.077 OA 
HETATM   20  C   UNL     1      -8.712   7.245  65.594  1.00  0.00    -0.070 C  
ENDBRANCH   3  12
TORSDOF 5
ENDMDL
MODEL      235
REMARK 921   NORMALIZED FREE ENERGY PREDICTED BY IDOCK:   -2.25 KCAL/MOL
REMARK 922        TOTAL FREE ENERGY PREDICTED BY IDOCK:   -3.58 KCAL/MOL
REMARK 923 INTER-LIGAND FREE ENERGY PREDICTED BY IDOCK:   -3.51 KCAL/MOL
REMARK 924 INTRA-LIGAND FREE ENERGY PREDICTED BY IDOCK:   -0.07 KCAL/MOL
REMARK 927      BINDING AFFINITY PREDICTED BY RF-SCORE:    0.00 PKD
ROOT
HETATM    1  C   UNL     1     -11.138  10.094  68.222  1.00  0.00    -0.285 C  
HETATM    2  C   UNL     1     -12.000  10.024  69.452  1.00  0.00     0.156 C  
HETATM    3  C   UNL     1     -10.547  10.399  69.589  1.00  0.00    -0.289 C  
ENDROOT
BRANCH   1   4
HETATM    4  C   UNL     1     -11.263  11.205  67.224  1.00  0.00    -0.277 C  
BRANCH   4   5
HETATM    5  N   UNL     1     -10.026  11.970  67.174  1.00  0.00    -0.195 NA 
HETATM    6  H   UNL     1      -9.129  11.507  67.323  1.00  0.00     0.000 HD 
BRANCH   5   7
HETATM    7  C   UNL     1     -10.070  13.231  66.941  1.00  0.00    -0.250 C  
HETATM    8  H   UNL     1     -11.162  14.815  66.244  1.00  0.00     0.000 HD 
HETATM    9  O   UNL     1     -11.129  13.882  66.417  1.00  0.00    -0.304 OA 
BRANCH   7  10
HETATM   10  C   UNL     1      -8.918  14.155  67.210  1.00  0.00    -0.221 C  
HETATM   11  C   UNL     1      -8.308  13.889  68.574  1.00  0.00    -0.132 C  
ENDBRANCH   7  10
ENDBRANCH   5   7
ENDBRANCH   4   5
ENDBRANCH   1   4
BRANCH   3  12
HETATM   12  C   UNL     1      -9.539   9.474  70.229  1.00  0.00    -0.314 A  
HETATM   13  C   UNL     1      -8.154   9.665  70.049  1.00  0.00    -0.190 A  
HETATM   14  C   UNL     1      -7.198   8.890  70.730  1.00  0.00    -0.083 A  
HETATM   15  C   UNL     1      -7.600   7.899  71.620  1.00  0.00    -0.084 A  
HETATM   16  C   UNL     1      -9.902   8.458  71.114  1.00  0.00    -0.242 A  
HETATM   17  C   UNL     1     -11.255   8.018  71.524  1.00  0.00    -0.296 C  
HETATM   18  C   UNL     1      -8.954   7.701  71.789  1.00  0.00    -0.119 A  
HETATM   19  O   UNL     1      -9.476   6.773  72.647  1.00  0.00    -0.140 OA 
HETATM   20  C   UNL     1     -10.907   6.908  72.517  1.00  0.00    -0.244 C  
ENDBRANCH   3  12
TORSDOF 5
ENDMDL
MODEL      236
REMARK 921   NORMALIZED FREE ENERGY PREDICTED BY IDOCK:   -2.00 KCAL/MOL
REMARK 922        TOTAL FREE ENERGY PREDICTED BY IDOCK:   -3.26 KCAL/MOL
REMARK 923 INTER-LIGAND FREE ENERGY PREDICTED BY IDOCK:   -3.07 KCAL/MOL
REMARK 924 INTRA-LIGAND FREE ENERGY PREDICTED BY IDOCK:   -0.19 KCAL/MOL
REMARK 927      BINDING AFFINITY PREDICTED BY RF-SCORE:    0.00 PKD
ROOT
HETATM    1  C   UNL     1     -10.516   6.501  68.565  1.00  0.00    -0.257 C  
HETATM    2  C   UNL     1     -11.000   6.838  67.183  1.00  0.00    -0.458 C  
HETATM    3  C   UNL     1     -10.516   5.441  67.476  1.00  0.00    -0.235 C  
ENDROOT
BRANCH   1   4
HETATM    4  C   UNL     1     -11.454   6.348  69.723  1.00  0.00    -0.399 C  
BRANCH   4   5
HETATM    5  N   UNL     1     -10.733   6.527  70.975  1.00  0.00    -0.234 NA 
HETATM    6  H   UNL     1     -11.075   7.183  71.677  1.00  0.00     0.000 HD 
BRANCH   5   7
HETATM    7  C   UNL     1      -9.662   5.852  71.190  1.00  0.00    -0.174 C  
HETATM    8  H   UNL     1      -7.629   5.874  71.417  1.00  0.00     0.000 HD 
HETATM    9  O   UNL     1      -8.421   6.374  71.259  1.00  0.00    -0.122 OA 
BRANCH   7  10
HETATM   10  C   UNL     1      -9.658   4.362  71.376  1.00  0.00    -0.234 C  
HETATM   11  C   UNL     1      -8.518   3.716  70.611  1.00  0.00    -0.102 C  
ENDBRANCH   7  10
ENDBRANCH   5   7
ENDBRANCH   4   5
ENDBRANCH   1   4
BRANCH   3  12
HETATM   12  C   UNL     1      -9.224   4.907  66.905  1.00  0.00    -0.124 A  
HETATM   13  C   UNL     1      -8.821   3.575  67.129  1.00  0.00    -0.146 A  
HETATM   14  C   UNL     1      -7.685   3.022  66.509  1.00  0.00    -0.077 A  
HETATM   15  C   UNL     1      -6.917   3.789  65.638  1.00  0.00    -0.061 A  
HETATM   16  C   UNL     1      -8.416   5.648  66.042  1.00  0.00    -0.132 A  
HETATM   17  C   UNL     1      -8.568   7.052  65.597  1.00  0.00    -0.121 C  
HETATM   18  C   UNL     1      -7.300   5.096  65.427  1.00  0.00    -0.072 A  
HETATM   19  O   UNL     1      -6.640   5.945  64.582  1.00  0.00    -0.040 OA 
HETATM   20  C   UNL     1      -7.371   7.187  64.655  1.00  0.00    -0.079 C  
ENDBRANCH   3  12
TORSDOF 5
ENDMDL
MODEL      237
REMARK 921   NORMALIZED FREE ENERGY PREDICTED BY IDOCK:   -1.99 KCAL/MOL
REMARK 922        TOTAL FREE ENERGY PREDICTED BY IDOCK:   -3.25 KCAL/MOL
REMARK 923 INTER-LIGAND FREE ENERGY PREDICTED BY IDOCK:   -3.40 KCAL/MOL
REMARK 924 INTRA-LIGAND FREE ENERGY PREDICTED BY IDOCK:    0.15 KCAL/MOL
REMARK 927      BINDING AFFINITY PREDICTED BY RF-SCORE:    0.00 PKD
ROOT
HETATM    1  C   UNL     1     -10.326   6.572  68.935  1.00  0.00    -0.225 C  
HETATM    2  C   UNL     1     -10.889   6.363  67.557  1.00  0.00    -0.438 C  
HETATM    3  C   UNL     1     -10.434   5.170  68.359  1.00  0.00    -0.084 C  
ENDROOT
BRANCH   1   4
HETATM    4  C   UNL     1     -11.191   6.943  70.102  1.00  0.00    -0.313 C  
BRANCH   4   5
HETATM    5  N   UNL     1     -10.366   7.180  71.277  1.00  0.00    -0.198 NA 
HETATM    6  H   UNL     1      -9.350   7.212  71.194  1.00  0.00     0.000 HD 
BRANCH   5   7
HETATM    7  C   UNL     1     -10.926   7.348  72.420  1.00  0.00    -0.275 C  
HETATM    8  H   UNL     1     -12.328   8.355  73.518  1.00  0.00     0.000 HD 
HETATM    9  O   UNL     1     -11.914   8.230  72.672  1.00  0.00    -0.399 OA 
BRANCH   7  10
HETATM   10  C   UNL     1     -10.528   6.580  73.647  1.00  0.00    -0.330 C  
HETATM   11  C   UNL     1     -10.841   5.103  73.496  1.00  0.00    -0.360 C  
ENDBRANCH   7  10
ENDBRANCH   5   7
ENDBRANCH   4   5
ENDBRANCH   1   4
BRANCH   3  12
HETATM   12  C   UNL     1      -9.201   4.381  67.987  1.00  0.00    -0.174 A  
HETATM   13  C   UNL     1      -9.300   3.152  67.302  1.00  0.00    -0.217 A  
HETATM   14  C   UNL     1      -8.165   2.461  66.840  1.00  0.00    -0.084 A  
HETATM   15  C   UNL     1      -6.891   2.983  67.046  1.00  0.00    -0.045 A  
HETATM   16  C   UNL     1      -7.907   4.860  68.191  1.00  0.00    -0.083 A  
HETATM   17  C   UNL     1      -7.469   6.108  68.856  1.00  0.00    -0.087 C  
HETATM   18  C   UNL     1      -6.791   4.177  67.726  1.00  0.00    -0.051 A  
HETATM   19  O   UNL     1      -5.600   4.801  67.976  1.00  0.00    -0.015 OA 
HETATM   20  C   UNL     1      -5.952   6.004  68.693  1.00  0.00    -0.020 C  
ENDBRANCH   3  12
TORSDOF 5
ENDMDL
MODEL      238
REMARK 921   NORMALIZED FREE ENERGY PREDICTED BY IDOCK:   -1.94 KCAL/MOL
REMARK 922        TOTAL FREE ENERGY PREDICTED BY IDOCK:   -3.18 KCAL/MOL
REMARK 923 INTER-LIGAND FREE ENERGY PREDICTED BY IDOCK:   -3.54 KCAL/MOL
REMARK 924 INTRA-LIGAND FREE ENERGY PREDICTED BY IDOCK:    0.36 KCAL/MOL
REMARK 927      BINDING AFFINITY PREDICTED BY RF-SCORE:    0.00 PKD
ROOT
HETATM    1  C   UNL     1      -8.029  16.274  67.999  1.00  0.00    -0.151 C  
HETATM    2  C   UNL     1      -7.319  15.005  67.618  1.00  0.00    -0.209 C  
HETATM    3  C   UNL     1      -8.200  15.692  66.605  1.00  0.00    -0.284 C  
ENDROOT
BRANCH   1   4
HETATM    4  C   UNL     1      -7.305  17.577  68.153  1.00  0.00    -0.218 C  
BRANCH   4   5
HETATM    5  N   UNL     1      -8.061  18.645  67.516  1.00  0.00    -0.247 NA 
HETATM    6  H   UNL     1      -8.701  18.436  66.751  1.00  0.00     0.000 HD 
BRANCH   5   7
HETATM    7  C   UNL     1      -7.916  19.853  67.924  1.00  0.00    -0.288 C  
HETATM    8  H   UNL     1      -6.668  21.260  68.732  1.00  0.00     0.000 HD 
HETATM    9  O   UNL     1      -6.776  20.366  68.429  1.00  0.00    -0.291 OA 
BRANCH   7  10
HETATM   10  C   UNL     1      -9.029  20.861  67.908  1.00  0.00     0.112 C  
HETATM   11  C   UNL     1      -9.583  21.045  66.508  1.00  0.00     0.471 C  
ENDBRANCH   7  10
ENDBRANCH   5   7
ENDBRANCH   4   5
ENDBRANCH   1   4
BRANCH   3  12
HETATM   12  C   UNL     1      -9.517  15.100  66.162  1.00  0.00    -0.354 A  
HETATM   13  C   UNL     1     -10.065  15.403  64.898  1.00  0.00    -0.059 A  
HETATM   14  C   UNL     1     -11.227  14.772  64.417  1.00  0.00    -0.184 A  
HETATM   15  C   UNL     1     -11.876  13.812  65.186  1.00  0.00    -0.365 A  
HETATM   16  C   UNL     1     -10.208  14.147  66.910  1.00  0.00    -0.267 A  
HETATM   17  C   UNL     1      -9.892  13.607  68.252  1.00  0.00    -0.232 C  
HETATM   18  C   UNL     1     -11.350  13.522  66.427  1.00  0.00    -0.316 A  
HETATM   19  O   UNL     1     -11.884  12.586  67.269  1.00  0.00    -0.402 OA 
HETATM   20  C   UNL     1     -11.030  12.602  68.433  1.00  0.00    -0.257 C  
ENDBRANCH   3  12
TORSDOF 5
ENDMDL
MODEL      239
REMARK 921   NORMALIZED FREE ENERGY PREDICTED BY IDOCK:   -1.68 KCAL/MOL
REMARK 922        TOTAL FREE ENERGY PREDICTED BY IDOCK:   -2.84 KCAL/MOL
REMARK 923 INTER-LIGAND FREE ENERGY PREDICTED BY IDOCK:   -2.99 KCAL/MOL
REMARK 924 INTRA-LIGAND FREE ENERGY PREDICTED BY IDOCK:    0.15 KCAL/MOL
REMARK 927      BINDING AFFINITY PREDICTED BY RF-SCORE:    0.00 PKD
ROOT
HETATM    1  C   UNL     1      -7.003  12.624  68.637  1.00  0.00    -0.091 C  
HETATM    2  C   UNL     1      -6.515  11.478  69.478  1.00  0.00    -0.124 C  
HETATM    3  C   UNL     1      -6.884  11.232  68.037  1.00  0.00    -0.067 C  
ENDROOT
BRANCH   1   4
HETATM    4  C   UNL     1      -6.084  13.702  68.149  1.00  0.00    -0.118 C  
BRANCH   4   5
HETATM    5  N   UNL     1      -5.901  14.707  69.186  1.00  0.00    -0.097 NA 
HETATM    6  H   UNL     1      -5.326  14.503  70.004  1.00  0.00     0.000 HD 
BRANCH   5   7
HETATM    7  C   UNL     1      -6.468  15.852  69.065  1.00  0.00    -0.137 C  
HETATM    8  H   UNL     1      -7.166  17.535  69.997  1.00  0.00     0.000 HD 
HETATM    9  O   UNL     1      -6.746  16.687  70.086  1.00  0.00     0.142 OA 
BRANCH   7  10
HETATM   10  C   UNL     1      -6.918  16.406  67.744  1.00  0.00    -0.157 C  
HETATM   11  C   UNL     1      -6.232  17.725  67.439  1.00  0.00    -0.164 C  
ENDBRANCH   7  10
ENDBRANCH   5   7
ENDBRANCH   4   5
ENDBRANCH   1   4
BRANCH   3  12
HETATM   12  C   UNL     1      -8.110  10.440  67.650  1.00  0.00    -0.107 A  
HETATM   13  C   UNL     1      -8.018   9.080  67.292  1.00  0.00    -0.099 A  
HETATM   14  C   UNL     1      -9.158   8.293  67.045  1.00  0.00    -0.172 A  
HETATM   15  C   UNL     1     -10.431   8.845  67.155  1.00  0.00    -0.344 A  
HETATM   16  C   UNL     1      -9.402  10.961  67.730  1.00  0.00    -0.162 A  
HETATM   17  C   UNL     1      -9.835  12.331  68.087  1.00  0.00    -0.212 C  
HETATM   18  C   UNL     1     -10.524  10.177  67.493  1.00  0.00    -0.253 A  
HETATM   19  O   UNL     1     -11.715  10.831  67.650  1.00  0.00    -0.538 OA 
HETATM   20  C   UNL     1     -11.355  12.183  68.005  1.00  0.00    -0.295 C  
ENDBRANCH   3  12
TORSDOF 5
ENDMDL
