MODEL        1
REMARK 921   NORMALIZED FREE ENERGY PREDICTED BY IDOCK:   -7.98 KCAL/MOL
REMARK 922        TOTAL FREE ENERGY PREDICTED BY IDOCK:  -10.68 KCAL/MOL
REMARK 923 INTER-LIGAND FREE ENERGY PREDICTED BY IDOCK:   -9.85 KCAL/MOL
REMARK 924 INTRA-LIGAND FREE ENERGY PREDICTED BY IDOCK:   -0.82 KCAL/MOL
REMARK 927      BINDING AFFINITY PREDICTED BY RF-SCORE:    0.00 PKD
ROOT
HETATM    1  C   UNL     1      -9.917  13.828  65.848  1.00  0.00    -0.308 C  
HETATM    2  C   UNL     1     -10.228  15.533  65.949  1.00  0.00    -0.367 C  
HETATM    3  C   UNL     1     -10.382  13.654  67.292  1.00  0.00    -0.249 C  
HETATM    4  C   UNL     1     -10.725  16.447  64.835  1.00  0.00    -0.213 C  
HETATM    5  C   UNL     1     -11.872  13.394  67.019  1.00  0.00    -0.443 C  
HETATM    6  C   UNL     1      -9.303  16.375  66.963  1.00  0.00    -0.241 C  
HETATM    7  C   UNL     1     -11.469  13.064  63.830  1.00  0.00    -0.486 C  
HETATM    8  C   UNL     1     -11.781  12.068  66.355  1.00  0.00    -0.326 C  
HETATM    9  C   UNL     1     -11.085  11.036  67.385  1.00  0.00    -0.370 C  
HETATM   10  H   UNL     1     -10.534  11.282  62.766  1.00  0.00     0.000 HD 
HETATM   11  O   UNL     1     -10.172  10.604  63.326  1.00  0.00    -0.274 OA 
HETATM   12  C   UNL     1     -10.852  12.455  65.115  1.00  0.00    -0.333 C  
HETATM   13  C   UNL     1     -11.703  11.040  68.795  1.00  0.00    -0.314 C  
HETATM   14  C   UNL     1     -10.623  10.866  64.661  1.00  0.00    -0.262 C  
HETATM   15  C   UNL     1     -10.674  10.474  69.730  1.00  0.00    -0.314 C  
HETATM   16  O   UNL     1     -11.987  12.296  69.394  1.00  0.00    -0.297 OA 
HETATM   17  C   UNL     1     -10.032   9.758  65.576  1.00  0.00    -0.329 C  
HETATM   18  C   UNL     1     -10.478   8.999  69.494  1.00  0.00    -0.223 C  
HETATM   19  C   UNL     1     -10.761   9.600  66.924  1.00  0.00    -0.185 C  
HETATM   20  H   UNL     1     -12.369  12.299  70.263  1.00  0.00     0.000 HD 
HETATM   21  C   UNL     1     -10.273   7.198  67.735  1.00  0.00    -0.234 C  
HETATM   22  C   UNL     1      -9.676   8.491  70.706  1.00  0.00    -0.221 C  
HETATM   23  C   UNL     1      -9.949   8.684  68.056  1.00  0.00    -0.221 C  
HETATM   24  C   UNL     1      -8.160   8.487  70.631  1.00  0.00    -0.117 C  
HETATM   25  C   UNL     1      -8.384   8.823  68.057  1.00  0.00    -0.119 C  
HETATM   26  H   UNL     1      -6.642   9.678  71.123  1.00  0.00     0.000 HD 
HETATM   27  O   UNL     1      -7.591   9.680  71.170  1.00  0.00    -0.318 OA 
HETATM   28  C   UNL     1      -7.617   8.183  69.246  1.00  0.00    -0.095 C  
ENDROOT
BRANCH   6  29
HETATM   29  C   UNL     1      -7.791  16.377  66.819  1.00  0.00    -0.301 C  
BRANCH  29  30
HETATM   30  C   UNL     1      -7.230  17.734  66.505  1.00  0.00    -0.243 C  
HETATM   31  O   UNL     1      -7.625  18.391  65.550  1.00  0.00    -0.510 OA 
HETATM   32  N   UNL     1      -6.222  18.156  67.354  1.00  0.00    -0.163 N  
HETATM   33  H   UNL     1      -5.968  17.580  68.157  1.00  0.00     0.000 HD 
BRANCH  32  34
HETATM   34  C   UNL     1      -5.524  19.400  67.122  1.00  0.00    -0.164 C  
BRANCH  34  35
HETATM   35  C   UNL     1      -5.377  20.208  68.412  1.00  0.00    -0.209 C  
HETATM   36  S   UNL     1      -6.408  19.522  69.683  1.00  0.00    -0.310 S  
HETATM   37  O   UNL     1      -6.114  20.617  70.834  1.00  0.00    -0.568 OA 
HETATM   38  O   UNL     1      -5.885  18.253  70.130  1.00  0.00    -0.238 OA 
HETATM   39  O   UNL     1      -7.796  19.701  69.315  1.00  0.00    -0.290 OA 
ENDBRANCH  34  35
ENDBRANCH  32  34
ENDBRANCH  29  30
ENDBRANCH   6  29
TORSDOF 4
ENDMDL
MODEL        2
REMARK 921   NORMALIZED FREE ENERGY PREDICTED BY IDOCK:   -7.94 KCAL/MOL
REMARK 922        TOTAL FREE ENERGY PREDICTED BY IDOCK:  -10.62 KCAL/MOL
REMARK 923 INTER-LIGAND FREE ENERGY PREDICTED BY IDOCK:   -9.73 KCAL/MOL
REMARK 924 INTRA-LIGAND FREE ENERGY PREDICTED BY IDOCK:   -0.89 KCAL/MOL
REMARK 927      BINDING AFFINITY PREDICTED BY RF-SCORE:    0.00 PKD
ROOT
HETATM    1  C   UNL     1      -9.729  14.511  67.036  1.00  0.00    -0.247 C  
HETATM    2  C   UNL     1      -9.934  16.167  67.516  1.00  0.00    -0.243 C  
HETATM    3  C   UNL     1     -10.288  14.048  68.380  1.00  0.00    -0.251 C  
HETATM    4  C   UNL     1     -10.304  17.346  66.624  1.00  0.00    -0.306 C  
HETATM    5  C   UNL     1     -11.773  13.973  67.992  1.00  0.00    -0.394 C  
HETATM    6  C   UNL     1      -9.017  16.682  68.734  1.00  0.00    -0.253 C  
HETATM    7  C   UNL     1     -11.206  14.348  64.832  1.00  0.00    -0.392 C  
HETATM    8  C   UNL     1     -11.730  12.830  67.043  1.00  0.00    -0.440 C  
HETATM    9  C   UNL     1     -11.164  11.540  67.835  1.00  0.00    -0.344 C  
HETATM   10  H   UNL     1     -10.328  12.788  63.426  1.00  0.00     0.000 HD 
HETATM   11  O   UNL     1     -10.046  11.975  63.828  1.00  0.00    -0.356 OA 
HETATM   12  C   UNL     1     -10.706  13.417  65.967  1.00  0.00    -0.283 C  
HETATM   13  C   UNL     1     -11.862  11.271  69.180  1.00  0.00    -0.355 C  
HETATM   14  C   UNL     1     -10.556  11.960  65.168  1.00  0.00    -0.287 C  
HETATM   15  C   UNL     1     -10.928  10.429  70.001  1.00  0.00    -0.370 C  
HETATM   16  O   UNL     1     -12.098  12.375  70.041  1.00  0.00    -0.309 OA 
HETATM   17  C   UNL     1     -10.092  10.631  65.825  1.00  0.00    -0.327 C  
HETATM   18  C   UNL     1     -10.816   9.036  69.439  1.00  0.00    -0.152 C  
HETATM   19  C   UNL     1     -10.908  10.227  67.069  1.00  0.00    -0.248 C  
HETATM   20  H   UNL     1     -12.529  12.210  70.871  1.00  0.00     0.000 HD 
HETATM   21  C   UNL     1     -10.626   7.672  67.321  1.00  0.00    -0.388 C  
HETATM   22  C   UNL     1     -10.120   8.205  70.533  1.00  0.00    -0.201 C  
HETATM   23  C   UNL     1     -10.225   9.017  67.991  1.00  0.00    -0.260 C  
HETATM   24  C   UNL     1      -8.606   8.102  70.523  1.00  0.00    -0.130 C  
HETATM   25  C   UNL     1      -8.657   9.032  68.089  1.00  0.00    -0.130 C  
HETATM   26  H   UNL     1      -7.045   9.029  71.341  1.00  0.00     0.000 HD 
HETATM   27  O   UNL     1      -7.993   9.094  71.347  1.00  0.00    -0.314 OA 
HETATM   28  C   UNL     1      -8.004   8.081  69.129  1.00  0.00    -0.114 C  
ENDROOT
BRANCH   6  29
HETATM   29  C   UNL     1      -7.502  16.601  68.659  1.00  0.00    -0.211 C  
BRANCH  29  30
HETATM   30  C   UNL     1      -6.824  17.899  68.990  1.00  0.00    -0.242 C  
HETATM   31  O   UNL     1      -6.016  17.988  69.907  1.00  0.00    -0.240 OA 
HETATM   32  N   UNL     1      -7.208  18.972  68.206  1.00  0.00    -0.266 N  
HETATM   33  H   UNL     1      -7.854  18.822  67.431  1.00  0.00     0.000 HD 
BRANCH  32  34
HETATM   34  C   UNL     1      -6.709  20.303  68.467  1.00  0.00    -0.270 C  
BRANCH  34  35
HETATM   35  C   UNL     1      -6.419  21.056  67.169  1.00  0.00    -0.342 C  
HETATM   36  S   UNL     1      -6.484  19.943  65.789  1.00  0.00    -0.247 S  
HETATM   37  O   UNL     1      -6.051  20.984  64.632  1.00  0.00    -0.269 OA 
HETATM   38  O   UNL     1      -7.844  19.532  65.533  1.00  0.00    -0.402 OA 
HETATM   39  O   UNL     1      -5.396  18.995  65.893  1.00  0.00    -0.144 OA 
ENDBRANCH  34  35
ENDBRANCH  32  34
ENDBRANCH  29  30
ENDBRANCH   6  29
TORSDOF 4
ENDMDL
MODEL        3
REMARK 921   NORMALIZED FREE ENERGY PREDICTED BY IDOCK:   -7.82 KCAL/MOL
REMARK 922        TOTAL FREE ENERGY PREDICTED BY IDOCK:  -10.47 KCAL/MOL
REMARK 923 INTER-LIGAND FREE ENERGY PREDICTED BY IDOCK:   -9.57 KCAL/MOL
REMARK 924 INTRA-LIGAND FREE ENERGY PREDICTED BY IDOCK:   -0.90 KCAL/MOL
REMARK 927      BINDING AFFINITY PREDICTED BY RF-SCORE:    0.00 PKD
ROOT
HETATM    1  C   UNL     1      -9.426  13.108  66.932  1.00  0.00    -0.244 C  
HETATM    2  C   UNL     1      -9.572  14.839  66.965  1.00  0.00    -0.248 C  
HETATM    3  C   UNL     1     -10.106  13.022  68.297  1.00  0.00    -0.239 C  
HETATM    4  C   UNL     1      -9.809  15.766  65.779  1.00  0.00    -0.383 C  
HETATM    5  C   UNL     1     -11.562  12.905  67.815  1.00  0.00    -0.391 C  
HETATM    6  C   UNL     1      -8.719  15.611  68.090  1.00  0.00    -0.168 C  
HETATM    7  C   UNL     1     -10.746  12.447  64.722  1.00  0.00    -0.332 C  
HETATM    8  C   UNL     1     -11.514  11.558  67.189  1.00  0.00    -0.313 C  
HETATM    9  C   UNL     1     -11.081  10.491  68.322  1.00  0.00    -0.340 C  
HETATM   10  H   UNL     1      -9.857  10.552  63.828  1.00  0.00     0.000 HD 
HETATM   11  O   UNL     1      -9.650   9.857  64.442  1.00  0.00    -0.294 OA 
HETATM   12  C   UNL     1     -10.383  11.816  66.091  1.00  0.00    -0.266 C  
HETATM   13  C   UNL     1     -11.889  10.596  69.628  1.00  0.00    -0.286 C  
HETATM   14  C   UNL     1     -10.257  10.200  65.696  1.00  0.00    -0.218 C  
HETATM   15  C   UNL     1     -11.066   9.956  70.709  1.00  0.00    -0.417 C  
HETATM   16  O   UNL     1     -12.124  11.890  70.163  1.00  0.00    -0.317 OA 
HETATM   17  C   UNL     1      -9.918   9.065  66.701  1.00  0.00    -0.349 C  
HETATM   18  C   UNL     1     -10.992   8.463  70.523  1.00  0.00    -0.258 C  
HETATM   19  C   UNL     1     -10.843   9.018  67.932  1.00  0.00    -0.118 C  
HETATM   20  H   UNL     1     -12.624  11.955  70.968  1.00  0.00     0.000 HD 
HETATM   21  C   UNL     1     -10.726   6.602  68.836  1.00  0.00    -0.304 C  
HETATM   22  C   UNL     1     -10.426   7.912  71.845  1.00  0.00    -0.284 C  
HETATM   23  C   UNL     1     -10.299   8.057  69.181  1.00  0.00    -0.226 C  
HETATM   24  C   UNL     1      -8.923   7.754  71.988  1.00  0.00    -0.134 C  
HETATM   25  C   UNL     1      -8.745   8.039  69.405  1.00  0.00    -0.137 C  
HETATM   26  H   UNL     1      -7.376   8.801  72.679  1.00  0.00     0.000 HD 
HETATM   27  O   UNL     1      -8.317   8.899  72.588  1.00  0.00    -0.392 OA 
HETATM   28  C   UNL     1      -8.223   7.360  70.701  1.00  0.00    -0.112 C  
ENDROOT
BRANCH   6  29
HETATM   29  C   UNL     1      -7.209  15.459  68.165  1.00  0.00    -0.124 C  
BRANCH  29  30
HETATM   30  C   UNL     1      -6.467  16.636  67.600  1.00  0.00    -0.151 C  
HETATM   31  O   UNL     1      -5.536  16.495  66.816  1.00  0.00    -0.339 OA 
HETATM   32  N   UNL     1      -6.897  17.869  68.058  1.00  0.00    -0.194 N  
HETATM   33  H   UNL     1      -7.707  17.920  68.677  1.00  0.00     0.000 HD 
BRANCH  32  34
HETATM   34  C   UNL     1      -6.220  19.085  67.672  1.00  0.00    -0.203 C  
BRANCH  34  35
HETATM   35  C   UNL     1      -7.195  20.256  67.557  1.00  0.00    -0.298 C  
HETATM   36  S   UNL     1      -8.845  19.655  67.302  1.00  0.00    -0.332 S  
HETATM   37  O   UNL     1      -9.586  21.080  67.125  1.00  0.00    -0.360 OA 
HETATM   38  O   UNL     1      -9.350  19.036  68.504  1.00  0.00    -0.341 OA 
HETATM   39  O   UNL     1      -8.919  19.009  66.009  1.00  0.00    -0.456 OA 
ENDBRANCH  34  35
ENDBRANCH  32  34
ENDBRANCH  29  30
ENDBRANCH   6  29
TORSDOF 4
ENDMDL
MODEL        4
REMARK 921   NORMALIZED FREE ENERGY PREDICTED BY IDOCK:   -7.73 KCAL/MOL
REMARK 922        TOTAL FREE ENERGY PREDICTED BY IDOCK:  -10.36 KCAL/MOL
REMARK 923 INTER-LIGAND FREE ENERGY PREDICTED BY IDOCK:   -8.66 KCAL/MOL
REMARK 924 INTRA-LIGAND FREE ENERGY PREDICTED BY IDOCK:   -1.70 KCAL/MOL
REMARK 927      BINDING AFFINITY PREDICTED BY RF-SCORE:    0.00 PKD
ROOT
HETATM    1  C   UNL     1      -9.923  14.706  66.530  1.00  0.00    -0.292 C  
HETATM    2  C   UNL     1     -10.151  16.371  66.966  1.00  0.00    -0.272 C  
HETATM    3  C   UNL     1     -10.356  14.276  67.930  1.00  0.00    -0.233 C  
HETATM    4  C   UNL     1     -10.634  17.502  66.066  1.00  0.00    -0.217 C  
HETATM    5  C   UNL     1     -11.864  14.135  67.664  1.00  0.00    -0.427 C  
HETATM    6  C   UNL     1      -9.162  16.963  68.089  1.00  0.00    -0.234 C  
HETATM    7  C   UNL     1     -11.561  14.408  64.458  1.00  0.00    -0.393 C  
HETATM    8  C   UNL     1     -11.853  12.958  66.756  1.00  0.00    -0.452 C  
HETATM    9  C   UNL     1     -11.178  11.720  67.545  1.00  0.00    -0.354 C  
HETATM   10  H   UNL     1     -10.738  12.828  63.042  1.00  0.00     0.000 HD 
HETATM   11  O   UNL     1     -10.395  12.041  63.448  1.00  0.00    -0.430 OA 
HETATM   12  C   UNL     1     -10.939  13.539  65.581  1.00  0.00    -0.296 C  
HETATM   13  C   UNL     1     -11.758  11.478  68.950  1.00  0.00    -0.339 C  
HETATM   14  C   UNL     1     -10.797  12.059  64.824  1.00  0.00    -0.306 C  
HETATM   15  C   UNL     1     -10.732  10.701  69.723  1.00  0.00    -0.283 C  
HETATM   16  O   UNL     1     -11.967  12.605  69.787  1.00  0.00    -0.319 OA 
HETATM   17  C   UNL     1     -10.234  10.773  65.489  1.00  0.00    -0.330 C  
HETATM   18  C   UNL     1     -10.612   9.292  69.202  1.00  0.00    -0.228 C  
HETATM   19  C   UNL     1     -10.934  10.388  66.807  1.00  0.00    -0.116 C  
HETATM   20  H   UNL     1     -12.326  12.456  70.655  1.00  0.00     0.000 HD 
HETATM   21  C   UNL     1     -10.538   7.856  67.126  1.00  0.00    -0.383 C  
HETATM   22  C   UNL     1      -9.802   8.528  70.266  1.00  0.00    -0.194 C  
HETATM   23  C   UNL     1     -10.136   9.239  67.713  1.00  0.00    -0.253 C  
HETATM   24  C   UNL     1      -8.291   8.477  70.139  1.00  0.00    -0.123 C  
HETATM   25  C   UNL     1      -8.567   9.311  67.686  1.00  0.00    -0.116 C  
HETATM   26  H   UNL     1      -6.706   9.488  70.797  1.00  0.00     0.000 HD 
HETATM   27  O   UNL     1      -7.653   9.520  70.876  1.00  0.00    -0.270 OA 
HETATM   28  C   UNL     1      -7.799   8.424  68.704  1.00  0.00    -0.116 C  
ENDROOT
BRANCH   6  29
HETATM   29  C   UNL     1      -7.656  16.932  67.896  1.00  0.00    -0.179 C  
BRANCH  29  30
HETATM   30  C   UNL     1      -6.912  16.481  69.120  1.00  0.00    -0.225 C  
HETATM   31  O   UNL     1      -6.257  17.263  69.801  1.00  0.00    -0.248 OA 
HETATM   32  N   UNL     1      -7.000  15.127  69.388  1.00  0.00    -0.163 N  
HETATM   33  H   UNL     1      -7.596  14.538  68.807  1.00  0.00     0.000 HD 
BRANCH  32  34
HETATM   34  C   UNL     1      -6.262  14.534  70.480  1.00  0.00    -0.165 C  
BRANCH  34  35
HETATM   35  C   UNL     1      -5.653  13.191  70.078  1.00  0.00    -0.120 C  
HETATM   36  S   UNL     1      -6.310  12.664  68.516  1.00  0.00    -0.078 S  
HETATM   37  O   UNL     1      -5.575  11.228  68.428  1.00  0.00    -0.043 OA 
HETATM   38  O   UNL     1      -5.801  13.491  67.448  1.00  0.00    -0.348 OA 
HETATM   39  O   UNL     1      -7.720  12.377  68.668  1.00  0.00    -0.118 OA 
ENDBRANCH  34  35
ENDBRANCH  32  34
ENDBRANCH  29  30
ENDBRANCH   6  29
TORSDOF 4
ENDMDL
MODEL        5
REMARK 921   NORMALIZED FREE ENERGY PREDICTED BY IDOCK:   -7.56 KCAL/MOL
REMARK 922        TOTAL FREE ENERGY PREDICTED BY IDOCK:  -10.15 KCAL/MOL
REMARK 923 INTER-LIGAND FREE ENERGY PREDICTED BY IDOCK:   -9.22 KCAL/MOL
REMARK 924 INTRA-LIGAND FREE ENERGY PREDICTED BY IDOCK:   -0.93 KCAL/MOL
REMARK 927      BINDING AFFINITY PREDICTED BY RF-SCORE:    0.00 PKD
ROOT
HETATM    1  C   UNL     1     -11.514  10.300  69.341  1.00  0.00    -0.248 C  
HETATM    2  C   UNL     1     -11.315  12.024  69.380  1.00  0.00    -0.317 C  
HETATM    3  C   UNL     1     -10.057  10.138  68.913  1.00  0.00    -0.211 C  
HETATM    4  C   UNL     1     -11.980  13.007  70.336  1.00  0.00    -0.337 C  
HETATM    5  C   UNL     1      -9.423  10.030  70.309  1.00  0.00    -0.041 C  
HETATM    6  C   UNL     1     -11.040  12.749  67.969  1.00  0.00    -0.284 C  
HETATM    7  C   UNL     1     -12.259   9.736  71.829  1.00  0.00    -0.449 C  
HETATM    8  C   UNL     1      -9.972   8.716  70.736  1.00  0.00    -0.241 C  
HETATM    9  C   UNL     1      -9.485   7.599  69.675  1.00  0.00    -0.156 C  
HETATM   10  H   UNL     1     -13.601   7.897  71.837  1.00  0.00     0.000 HD 
HETATM   11  O   UNL     1     -13.323   7.175  71.286  1.00  0.00    -0.368 OA 
HETATM   12  C   UNL     1     -11.533   9.041  70.649  1.00  0.00    -0.291 C  
HETATM   13  C   UNL     1      -7.976   7.630  69.375  1.00  0.00    -0.125 C  
HETATM   14  C   UNL     1     -11.979   7.448  70.868  1.00  0.00    -0.277 C  
HETATM   15  C   UNL     1      -7.774   6.946  68.054  1.00  0.00    -0.113 C  
HETATM   16  O   UNL     1      -7.368   8.893  69.149  1.00  0.00    -0.069 OA 
HETATM   17  C   UNL     1     -11.524   6.268  69.966  1.00  0.00    -0.460 C  
HETATM   18  C   UNL     1      -8.026   5.464  68.165  1.00  0.00    -0.095 C  
HETATM   19  C   UNL     1      -9.996   6.149  69.806  1.00  0.00    -0.213 C  
HETATM   20  H   UNL     1      -6.436   8.913  68.965  1.00  0.00     0.000 HD 
HETATM   21  C   UNL     1      -9.522   3.693  69.168  1.00  0.00    -0.235 C  
HETATM   22  C   UNL     1      -7.470   4.854  66.866  1.00  0.00    -0.087 C  
HETATM   23  C   UNL     1      -9.497   5.133  68.583  1.00  0.00    -0.178 C  
HETATM   24  C   UNL     1      -8.395   4.705  65.672  1.00  0.00    -0.116 C  
HETATM   25  C   UNL     1     -10.392   5.121  67.293  1.00  0.00    -0.225 C  
HETATM   26  H   UNL     1      -8.898   5.732  64.042  1.00  0.00     0.000 HD 
HETATM   27  O   UNL     1      -8.319   5.825  64.790  1.00  0.00    -0.135 OA 
HETATM   28  C   UNL     1      -9.830   4.383  66.047  1.00  0.00    -0.241 C  
ENDROOT
BRANCH   6  29
HETATM   29  C   UNL     1     -12.020  12.609  66.817  1.00  0.00    -0.362 C  
BRANCH  29  30
HETATM   30  C   UNL     1     -12.106  13.840  65.962  1.00  0.00    -0.436 C  
HETATM   31  O   UNL     1     -13.090  14.078  65.271  1.00  0.00    -0.782 OA 
HETATM   32  N   UNL     1     -10.985  14.650  65.994  1.00  0.00    -0.318 N  
HETATM   33  H   UNL     1     -10.216  14.417  66.622  1.00  0.00     0.000 HD 
BRANCH  32  34
HETATM   34  C   UNL     1     -10.886  15.820  65.152  1.00  0.00    -0.428 C  
BRANCH  34  35
HETATM   35  C   UNL     1     -10.368  17.028  65.932  1.00  0.00    -0.298 C  
HETATM   36  S   UNL     1     -10.130  16.598  67.638  1.00  0.00    -0.280 S  
HETATM   37  O   UNL     1      -9.696  18.055  68.185  1.00  0.00    -0.294 OA 
HETATM   38  O   UNL     1      -9.001  15.711  67.784  1.00  0.00    -0.175 OA 
HETATM   39  O   UNL     1     -11.417  16.319  68.239  1.00  0.00    -0.333 OA 
ENDBRANCH  34  35
ENDBRANCH  32  34
ENDBRANCH  29  30
ENDBRANCH   6  29
TORSDOF 4
ENDMDL
MODEL        6
REMARK 921   NORMALIZED FREE ENERGY PREDICTED BY IDOCK:   -7.46 KCAL/MOL
REMARK 922        TOTAL FREE ENERGY PREDICTED BY IDOCK:  -10.03 KCAL/MOL
REMARK 923 INTER-LIGAND FREE ENERGY PREDICTED BY IDOCK:   -9.41 KCAL/MOL
REMARK 924 INTRA-LIGAND FREE ENERGY PREDICTED BY IDOCK:   -0.62 KCAL/MOL
REMARK 927      BINDING AFFINITY PREDICTED BY RF-SCORE:    0.00 PKD
ROOT
HETATM    1  C   UNL     1      -9.205  10.193  66.684  1.00  0.00    -0.181 C  
HETATM    2  C   UNL     1     -10.112  10.896  65.381  1.00  0.00    -0.336 C  
HETATM    3  C   UNL     1     -10.395   9.306  67.040  1.00  0.00    -0.325 C  
HETATM    4  C   UNL     1      -9.577  11.370  64.036  1.00  0.00    -0.224 C  
HETATM    5  C   UNL     1     -10.048   8.099  66.153  1.00  0.00     0.096 C  
HETATM    6  C   UNL     1     -11.394  11.779  65.791  1.00  0.00    -0.309 C  
HETATM    7  C   UNL     1      -7.085   9.176  65.445  1.00  0.00    -0.081 C  
HETATM    8  C   UNL     1      -8.830   7.613  66.851  1.00  0.00    -0.142 C  
HETATM    9  C   UNL     1      -9.233   7.249  68.373  1.00  0.00    -0.137 C  
HETATM   10  H   UNL     1      -5.288   9.196  66.842  1.00  0.00     0.000 HD 
HETATM   11  O   UNL     1      -5.451   8.919  67.736  1.00  0.00    -0.035 OA 
HETATM   12  C   UNL     1      -7.916   8.917  66.728  1.00  0.00    -0.107 C  
HETATM   13  C   UNL     1     -10.481   6.356  68.497  1.00  0.00    -0.224 C  
HETATM   14  C   UNL     1      -6.755   8.323  67.768  1.00  0.00    -0.066 C  
HETATM   15  C   UNL     1     -11.019   6.541  69.886  1.00  0.00    -0.393 C  
HETATM   16  O   UNL     1     -11.610   6.674  67.698  1.00  0.00    -0.664 OA 
HETATM   17  C   UNL     1      -7.022   7.871  69.231  1.00  0.00    -0.056 C  
HETATM   18  C   UNL     1     -10.104   5.922  70.911  1.00  0.00    -0.251 C  
HETATM   19  C   UNL     1      -8.138   6.818  69.370  1.00  0.00    -0.123 C  
HETATM   20  H   UNL     1     -12.380   6.122  67.774  1.00  0.00     0.000 HD 
HETATM   21  C   UNL     1      -7.696   5.580  71.592  1.00  0.00    -0.107 C  
HETATM   22  C   UNL     1     -10.917   5.883  72.219  1.00  0.00    -0.313 C  
HETATM   23  C   UNL     1      -8.685   6.579  70.926  1.00  0.00    -0.136 C  
HETATM   24  C   UNL     1     -10.831   7.064  73.168  1.00  0.00    -0.316 C  
HETATM   25  C   UNL     1      -8.734   7.855  71.840  1.00  0.00    -0.168 C  
HETATM   26  H   UNL     1     -11.816   8.756  73.532  1.00  0.00     0.000 HD 
HETATM   27  O   UNL     1     -11.869   8.017  72.937  1.00  0.00    -0.337 OA 
HETATM   28  C   UNL     1      -9.464   7.722  73.205  1.00  0.00    -0.344 C  
ENDROOT
BRANCH   6  29
HETATM   29  C   UNL     1     -11.252  12.981  66.708  1.00  0.00    -0.333 C  
BRANCH  29  30
HETATM   30  C   UNL     1     -11.676  12.700  68.121  1.00  0.00    -0.347 C  
HETATM   31  O   UNL     1     -12.260  11.667  68.426  1.00  0.00    -0.498 OA 
HETATM   32  N   UNL     1     -11.385  13.705  69.026  1.00  0.00    -0.271 N  
HETATM   33  H   UNL     1     -10.859  14.523  68.716  1.00  0.00     0.000 HD 
BRANCH  32  34
HETATM   34  C   UNL     1     -11.814  13.616  70.403  1.00  0.00    -0.237 C  
BRANCH  34  35
HETATM   35  C   UNL     1     -12.828  14.708  70.745  1.00  0.00    -0.358 C  
HETATM   36  S   UNL     1     -13.255  14.628  72.465  1.00  0.00    -0.465 S  
HETATM   37  O   UNL     1     -14.373  15.795  72.481  1.00  0.00    -0.528 OA 
HETATM   38  O   UNL     1     -12.148  15.060  73.283  1.00  0.00    -0.370 OA 
HETATM   39  O   UNL     1     -13.970  13.395  72.719  1.00  0.00    -0.724 OA 
ENDBRANCH  34  35
ENDBRANCH  32  34
ENDBRANCH  29  30
ENDBRANCH   6  29
TORSDOF 4
ENDMDL
MODEL        7
REMARK 921   NORMALIZED FREE ENERGY PREDICTED BY IDOCK:   -7.41 KCAL/MOL
REMARK 922        TOTAL FREE ENERGY PREDICTED BY IDOCK:   -9.96 KCAL/MOL
REMARK 923 INTER-LIGAND FREE ENERGY PREDICTED BY IDOCK:   -8.81 KCAL/MOL
REMARK 924 INTRA-LIGAND FREE ENERGY PREDICTED BY IDOCK:   -1.15 KCAL/MOL
REMARK 927      BINDING AFFINITY PREDICTED BY RF-SCORE:    0.00 PKD
ROOT
HETATM    1  C   UNL     1      -9.748  11.071  66.223  1.00  0.00    -0.244 C  
HETATM    2  C   UNL     1     -10.226  11.330  64.574  1.00  0.00    -0.370 C  
HETATM    3  C   UNL     1     -10.473   9.727  66.227  1.00  0.00    -0.160 C  
HETATM    4  C   UNL     1      -9.434  12.044  63.486  1.00  0.00     0.025 C  
HETATM    5  C   UNL     1      -9.308   8.842  65.753  1.00  0.00    -0.286 C  
HETATM    6  C   UNL     1     -11.802  11.519  64.303  1.00  0.00    -0.099 C  
HETATM    7  C   UNL     1      -7.095  11.173  66.091  1.00  0.00     0.003 C  
HETATM    8  C   UNL     1      -8.418   8.938  66.940  1.00  0.00    -0.113 C  
HETATM    9  C   UNL     1      -9.226   8.377  68.221  1.00  0.00    -0.136 C  
HETATM   10  H   UNL     1      -6.252  11.958  68.054  1.00  0.00     0.000 HD 
HETATM   11  O   UNL     1      -6.640  11.605  68.846  1.00  0.00    -0.066 OA 
HETATM   12  C   UNL     1      -8.189  10.519  66.972  1.00  0.00    -0.125 C  
HETATM   13  C   UNL     1      -9.897   7.010  67.993  1.00  0.00    -0.138 C  
HETATM   14  C   UNL     1      -7.444  10.480  68.464  1.00  0.00    -0.091 C  
HETATM   15  C   UNL     1     -10.992   6.880  69.013  1.00  0.00    -0.225 C  
HETATM   16  O   UNL     1     -10.602   6.809  66.777  1.00  0.00    -0.393 OA 
HETATM   17  C   UNL     1      -8.080   9.904  69.760  1.00  0.00    -0.185 C  
HETATM   18  C   UNL     1     -10.426   6.708  70.399  1.00  0.00    -0.249 C  
HETATM   19  C   UNL     1      -8.585   8.455  69.622  1.00  0.00    -0.132 C  
HETATM   20  H   UNL     1     -11.015   5.965  66.636  1.00  0.00     0.000 HD 
HETATM   21  C   UNL     1      -8.637   7.474  72.010  1.00  0.00    -0.126 C  
HETATM   22  C   UNL     1     -11.610   6.258  71.274  1.00  0.00    -0.336 C  
HETATM   23  C   UNL     1      -9.575   7.937  70.859  1.00  0.00    -0.172 C  
HETATM   24  C   UNL     1     -12.444   7.314  71.977  1.00  0.00    -0.242 C  
HETATM   25  C   UNL     1     -10.542   9.018  71.461  1.00  0.00    -0.415 C  
HETATM   26  H   UNL     1     -14.106   8.359  71.648  1.00  0.00     0.000 HD 
HETATM   27  O   UNL     1     -13.584   7.698  71.209  1.00  0.00    -0.306 OA 
HETATM   28  C   UNL     1     -11.644   8.519  72.436  1.00  0.00    -0.425 C  
ENDROOT
BRANCH   6  29
HETATM   29  C   UNL     1     -12.585  12.620  64.995  1.00  0.00    -0.504 C  
BRANCH  29  30
HETATM   30  C   UNL     1     -12.178  13.999  64.560  1.00  0.00    -0.434 C  
HETATM   31  O   UNL     1     -12.579  14.489  63.511  1.00  0.00    -0.746 OA 
HETATM   32  N   UNL     1     -11.300  14.642  65.414  1.00  0.00    -0.335 N  
HETATM   33  H   UNL     1     -11.037  14.196  66.293  1.00  0.00     0.000 HD 
BRANCH  32  34
HETATM   34  C   UNL     1     -10.749  15.936  65.082  1.00  0.00    -0.429 C  
BRANCH  34  35
HETATM   35  C   UNL     1      -9.989  16.540  66.262  1.00  0.00    -0.329 C  
HETATM   36  S   UNL     1     -10.288  15.592  67.732  1.00  0.00    -0.271 S  
HETATM   37  O   UNL     1      -9.461  16.512  68.772  1.00  0.00    -0.229 OA 
HETATM   38  O   UNL     1      -9.631  14.310  67.651  1.00  0.00    -0.212 OA 
HETATM   39  O   UNL     1     -11.679  15.727  68.107  1.00  0.00    -0.316 OA 
ENDBRANCH  34  35
ENDBRANCH  32  34
ENDBRANCH  29  30
ENDBRANCH   6  29
TORSDOF 4
ENDMDL
MODEL        8
REMARK 921   NORMALIZED FREE ENERGY PREDICTED BY IDOCK:   -7.35 KCAL/MOL
REMARK 922        TOTAL FREE ENERGY PREDICTED BY IDOCK:   -9.89 KCAL/MOL
REMARK 923 INTER-LIGAND FREE ENERGY PREDICTED BY IDOCK:   -9.16 KCAL/MOL
REMARK 924 INTRA-LIGAND FREE ENERGY PREDICTED BY IDOCK:   -0.73 KCAL/MOL
REMARK 927      BINDING AFFINITY PREDICTED BY RF-SCORE:    0.00 PKD
ROOT
HETATM    1  C   UNL     1      -9.850   8.762  69.206  1.00  0.00    -0.180 C  
HETATM    2  C   UNL     1      -9.659   8.658  70.929  1.00  0.00    -0.252 C  
HETATM    3  C   UNL     1      -9.730  10.282  69.281  1.00  0.00    -0.240 C  
HETATM    4  C   UNL     1      -8.962   7.554  71.714  1.00  0.00    -0.140 C  
HETATM    5  C   UNL     1      -8.206  10.396  69.115  1.00  0.00    -0.157 C  
HETATM    6  C   UNL     1     -10.839   9.291  71.823  1.00  0.00    -0.358 C  
HETATM    7  C   UNL     1      -7.830   7.292  68.300  1.00  0.00    -0.122 C  
HETATM    8  C   UNL     1      -8.070   9.948  67.705  1.00  0.00    -0.110 C  
HETATM    9  C   UNL     1      -8.935  10.946  66.774  1.00  0.00    -0.158 C  
HETATM   10  H   UNL     1      -8.395   6.342  66.310  1.00  0.00     0.000 HD 
HETATM   11  O   UNL     1      -8.843   6.907  65.690  1.00  0.00    -0.121 OA 
HETATM   12  C   UNL     1      -8.700   8.485  67.830  1.00  0.00    -0.137 C  
HETATM   13  C   UNL     1      -8.667  12.439  67.033  1.00  0.00    -0.207 C  
HETATM   14  C   UNL     1      -8.733   8.250  66.178  1.00  0.00    -0.150 C  
HETATM   15  C   UNL     1      -9.857  13.197  66.519  1.00  0.00    -0.265 C  
HETATM   16  O   UNL     1      -8.597  12.879  68.381  1.00  0.00    -0.224 OA 
HETATM   17  C   UNL     1      -9.465   9.173  65.165  1.00  0.00    -0.097 C  
HETATM   18  C   UNL     1      -9.916  13.160  65.013  1.00  0.00    -0.163 C  
HETATM   19  C   UNL     1      -9.067  10.658  65.265  1.00  0.00    -0.221 C  
HETATM   20  H   UNL     1      -8.431  13.801  68.541  1.00  0.00     0.000 HD 
HETATM   21  C   UNL     1      -9.608  11.709  62.969  1.00  0.00    -0.311 C  
HETATM   22  C   UNL     1     -10.954  14.225  64.616  1.00  0.00    -0.379 C  
HETATM   23  C   UNL     1     -10.075  11.709  64.452  1.00  0.00    -0.322 C  
HETATM   24  C   UNL     1     -12.407  13.813  64.470  1.00  0.00    -0.358 C  
HETATM   25  C   UNL     1     -11.600  11.336  64.454  1.00  0.00     0.097 C  
HETATM   26  H   UNL     1     -14.057  13.756  65.583  1.00  0.00     0.000 HD 
HETATM   27  O   UNL     1     -13.147  14.014  65.674  1.00  0.00    -0.639 OA 
HETATM   28  C   UNL     1     -12.593  12.408  63.926  1.00  0.00    -0.528 C  
ENDROOT
BRANCH   6  29
HETATM   29  C   UNL     1     -12.272   8.812  71.674  1.00  0.00    -0.399 C  
BRANCH  29  30
HETATM   30  C   UNL     1     -13.286   9.867  72.011  1.00  0.00    -0.456 C  
HETATM   31  O   UNL     1     -14.398   9.580  72.440  1.00  0.00    -0.250 OA 
HETATM   32  N   UNL     1     -12.876  11.166  71.768  1.00  0.00    -0.416 N  
HETATM   33  H   UNL     1     -11.922  11.340  71.451  1.00  0.00     0.000 HD 
BRANCH  32  34
HETATM   34  C   UNL     1     -13.776  12.280  71.958  1.00  0.00    -0.052 C  
BRANCH  34  35
HETATM   35  C   UNL     1     -13.064  13.472  72.598  1.00  0.00    -0.298 C  
HETATM   36  S   UNL     1     -12.849  14.768  71.405  1.00  0.00    -0.365 S  
HETATM   37  O   UNL     1     -12.012  15.796  72.329  1.00  0.00    -0.399 OA 
HETATM   38  O   UNL     1     -14.116  15.382  71.089  1.00  0.00    -0.489 OA 
HETATM   39  O   UNL     1     -11.929  14.321  70.381  1.00  0.00    -0.294 OA 
ENDBRANCH  34  35
ENDBRANCH  32  34
ENDBRANCH  29  30
ENDBRANCH   6  29
TORSDOF 4
ENDMDL
MODEL        9
REMARK 921   NORMALIZED FREE ENERGY PREDICTED BY IDOCK:   -7.29 KCAL/MOL
REMARK 922        TOTAL FREE ENERGY PREDICTED BY IDOCK:   -9.82 KCAL/MOL
REMARK 923 INTER-LIGAND FREE ENERGY PREDICTED BY IDOCK:   -9.07 KCAL/MOL
REMARK 924 INTRA-LIGAND FREE ENERGY PREDICTED BY IDOCK:   -0.76 KCAL/MOL
REMARK 927      BINDING AFFINITY PREDICTED BY RF-SCORE:    0.00 PKD
ROOT
HETATM    1  C   UNL     1      -9.307  12.895  66.332  1.00  0.00    -0.192 C  
HETATM    2  C   UNL     1     -10.419  11.584  66.085  1.00  0.00    -0.296 C  
HETATM    3  C   UNL     1     -10.440  13.757  66.885  1.00  0.00    -0.272 C  
HETATM    4  C   UNL     1     -10.131  10.094  66.218  1.00  0.00    -0.303 C  
HETATM    5  C   UNL     1     -10.312  13.372  68.368  1.00  0.00    -0.253 C  
HETATM    6  C   UNL     1     -11.567  11.813  64.980  1.00  0.00    -0.214 C  
HETATM    7  C   UNL     1      -7.499  11.834  67.965  1.00  0.00    -0.101 C  
HETATM    8  C   UNL     1      -9.002  14.001  68.680  1.00  0.00    -0.104 C  
HETATM    9  C   UNL     1      -9.123  15.586  68.392  1.00  0.00    -0.190 C  
HETATM   10  H   UNL     1      -5.470  12.803  67.609  1.00  0.00     0.000 HD 
HETATM   11  O   UNL     1      -5.471  13.748  67.506  1.00  0.00    -0.336 OA 
HETATM   12  C   UNL     1      -8.081  13.230  67.627  1.00  0.00    -0.174 C  
HETATM   13  C   UNL     1     -10.355  16.250  69.032  1.00  0.00    -0.264 C  
HETATM   14  C   UNL     1      -6.766  14.220  67.902  1.00  0.00    -0.167 C  
HETATM   15  C   UNL     1     -10.614  17.521  68.275  1.00  0.00    -0.354 C  
HETATM   16  O   UNL     1     -11.604  15.582  68.922  1.00  0.00    -0.332 OA 
HETATM   17  C   UNL     1      -6.768  15.765  67.733  1.00  0.00    -0.178 C  
HETATM   18  C   UNL     1      -9.545  18.546  68.553  1.00  0.00    -0.388 C  
HETATM   19  C   UNL     1      -7.875  16.483  68.526  1.00  0.00    -0.210 C  
HETATM   20  H   UNL     1     -12.364  15.991  69.317  1.00  0.00     0.000 HD 
HETATM   21  C   UNL     1      -7.065  18.911  68.866  1.00  0.00    -0.354 C  
HETATM   22  C   UNL     1     -10.096  19.875  68.004  1.00  0.00    -0.572 C  
HETATM   23  C   UNL     1      -8.126  18.074  68.096  1.00  0.00    -0.276 C  
HETATM   24  C   UNL     1      -9.789  20.257  66.568  1.00  0.00    -0.399 C  
HETATM   25  C   UNL     1      -7.954  18.407  66.571  1.00  0.00    -0.294 C  
HETATM   26  H   UNL     1     -10.625  20.078  64.769  1.00  0.00     0.000 HD 
HETATM   27  O   UNL     1     -10.816  19.839  65.669  1.00  0.00    -0.462 OA 
HETATM   28  C   UNL     1      -8.417  19.812  66.096  1.00  0.00    -0.367 C  
ENDROOT
BRANCH   6  29
HETATM   29  C   UNL     1     -11.210  12.148  63.542  1.00  0.00    -0.536 C  
BRANCH  29  30
HETATM   30  C   UNL     1      -9.959  11.465  63.069  1.00  0.00    -0.322 C  
HETATM   31  O   UNL     1      -8.929  12.090  62.844  1.00  0.00    -0.033 OA 
HETATM   32  N   UNL     1     -10.078  10.100  62.881  1.00  0.00    -0.512 N  
HETATM   33  H   UNL     1     -10.951   9.633  63.128  1.00  0.00     0.000 HD 
BRANCH  32  34
HETATM   34  C   UNL     1      -8.986   9.323  62.342  1.00  0.00    -0.204 C  
BRANCH  34  35
HETATM   35  C   UNL     1      -8.381   8.399  63.399  1.00  0.00    -0.064 C  
HETATM   36  S   UNL     1      -6.781   8.991  63.886  1.00  0.00    -0.089 S  
HETATM   37  O   UNL     1      -6.386   7.790  64.892  1.00  0.00    -0.044 OA 
HETATM   38  O   UNL     1      -6.903  10.201  64.663  1.00  0.00    -0.128 OA 
HETATM   39  O   UNL     1      -5.873   8.880  62.764  1.00  0.00    -0.085 OA 
ENDBRANCH  34  35
ENDBRANCH  32  34
ENDBRANCH  29  30
ENDBRANCH   6  29
TORSDOF 4
ENDMDL
MODEL       10
REMARK 921   NORMALIZED FREE ENERGY PREDICTED BY IDOCK:   -7.29 KCAL/MOL
REMARK 922        TOTAL FREE ENERGY PREDICTED BY IDOCK:   -9.81 KCAL/MOL
REMARK 923 INTER-LIGAND FREE ENERGY PREDICTED BY IDOCK:   -8.76 KCAL/MOL
REMARK 924 INTRA-LIGAND FREE ENERGY PREDICTED BY IDOCK:   -1.05 KCAL/MOL
REMARK 927      BINDING AFFINITY PREDICTED BY RF-SCORE:    0.00 PKD
ROOT
HETATM    1  C   UNL     1      -8.600   9.433  66.183  1.00  0.00    -0.147 C  
HETATM    2  C   UNL     1      -9.249  10.015  64.681  1.00  0.00    -0.310 C  
HETATM    3  C   UNL     1      -9.931   8.755  66.500  1.00  0.00    -0.360 C  
HETATM    4  C   UNL     1      -8.503  10.202  63.366  1.00  0.00    -0.185 C  
HETATM    5  C   UNL     1      -9.647   7.390  65.853  1.00  0.00     0.198 C  
HETATM    6  C   UNL     1     -10.441  11.092  64.781  1.00  0.00    -0.388 C  
HETATM    7  C   UNL     1      -6.505   7.996  65.403  1.00  0.00    -0.048 C  
HETATM    8  C   UNL     1      -8.594   6.887  66.773  1.00  0.00    -0.120 C  
HETATM    9  C   UNL     1      -9.216   6.822  68.263  1.00  0.00    -0.122 C  
HETATM   10  H   UNL     1      -4.896   8.037  67.012  1.00  0.00     0.000 HD 
HETATM   11  O   UNL     1      -5.197   7.928  67.907  1.00  0.00    -0.030 OA 
HETATM   12  C   UNL     1      -7.506   8.043  66.586  1.00  0.00    -0.089 C  
HETATM   13  C   UNL     1     -10.576   6.108  68.346  1.00  0.00    -0.265 C  
HETATM   14  C   UNL     1      -6.563   7.496  67.849  1.00  0.00    -0.058 C  
HETATM   15  C   UNL     1     -11.243   6.574  69.608  1.00  0.00    -0.446 C  
HETATM   16  O   UNL     1     -11.553   6.419  67.364  1.00  0.00    -0.678 OA 
HETATM   17  C   UNL     1      -7.055   7.319  69.312  1.00  0.00    -0.079 C  
HETATM   18  C   UNL     1     -10.544   6.028  70.826  1.00  0.00    -0.316 C  
HETATM   19  C   UNL     1      -8.311   6.436  69.451  1.00  0.00    -0.122 C  
HETATM   20  H   UNL     1     -12.393   5.978  67.415  1.00  0.00     0.000 HD 
HETATM   21  C   UNL     1      -8.297   5.530  71.869  1.00  0.00    -0.119 C  
HETATM   22  C   UNL     1     -11.500   6.294  72.003  1.00  0.00    -0.359 C  
HETATM   23  C   UNL     1      -9.061   6.514  70.937  1.00  0.00    -0.154 C  
HETATM   24  C   UNL     1     -11.369   7.595  72.774  1.00  0.00    -0.367 C  
HETATM   25  C   UNL     1      -9.046   7.918  71.640  1.00  0.00    -0.175 C  
HETATM   26  H   UNL     1     -12.155   9.424  72.751  1.00  0.00     0.000 HD 
HETATM   27  O   UNL     1     -12.237   8.609  72.269  1.00  0.00    -0.362 OA 
HETATM   28  C   UNL     1      -9.940   8.091  72.899  1.00  0.00    -0.360 C  
ENDROOT
BRANCH   6  29
HETATM   29  C   UNL     1     -10.248  12.402  65.525  1.00  0.00    -0.297 C  
BRANCH  29  30
HETATM   30  C   UNL     1     -11.156  12.549  66.711  1.00  0.00    -0.279 C  
HETATM   31  O   UNL     1     -12.030  11.726  66.960  1.00  0.00    -0.610 OA 
HETATM   32  N   UNL     1     -10.948  13.690  67.466  1.00  0.00    -0.264 N  
HETATM   33  H   UNL     1     -10.176  14.313  67.230  1.00  0.00     0.000 HD 
BRANCH  32  34
HETATM   34  C   UNL     1     -11.805  14.011  68.583  1.00  0.00    -0.361 C  
BRANCH  34  35
HETATM   35  C   UNL     1     -11.744  15.500  68.924  1.00  0.00    -0.370 C  
HETATM   36  S   UNL     1     -10.379  16.264  68.087  1.00  0.00    -0.289 S  
HETATM   37  O   UNL     1     -10.525  17.747  68.712  1.00  0.00    -0.343 OA 
HETATM   38  O   UNL     1     -10.638  16.350  66.670  1.00  0.00    -0.302 OA 
HETATM   39  O   UNL     1      -9.141  15.733  68.617  1.00  0.00    -0.185 OA 
ENDBRANCH  34  35
ENDBRANCH  32  34
ENDBRANCH  29  30
ENDBRANCH   6  29
TORSDOF 4
ENDMDL
MODEL       11
REMARK 921   NORMALIZED FREE ENERGY PREDICTED BY IDOCK:   -7.28 KCAL/MOL
REMARK 922        TOTAL FREE ENERGY PREDICTED BY IDOCK:   -9.80 KCAL/MOL
REMARK 923 INTER-LIGAND FREE ENERGY PREDICTED BY IDOCK:   -9.32 KCAL/MOL
REMARK 924 INTRA-LIGAND FREE ENERGY PREDICTED BY IDOCK:   -0.48 KCAL/MOL
REMARK 927      BINDING AFFINITY PREDICTED BY RF-SCORE:    0.00 PKD
ROOT
HETATM    1  C   UNL     1      -9.710  10.957  66.252  1.00  0.00    -0.245 C  
HETATM    2  C   UNL     1     -10.293  11.340  64.662  1.00  0.00    -0.373 C  
HETATM    3  C   UNL     1     -10.517   9.661  66.240  1.00  0.00    -0.149 C  
HETATM    4  C   UNL     1      -9.540  12.067  63.555  1.00  0.00    -0.111 C  
HETATM    5  C   UNL     1      -9.449   8.738  65.631  1.00  0.00    -0.171 C  
HETATM    6  C   UNL     1     -11.869  11.637  64.525  1.00  0.00    -0.138 C  
HETATM    7  C   UNL     1      -7.074  10.910  65.919  1.00  0.00    -0.029 C  
HETATM    8  C   UNL     1      -8.469   8.711  66.748  1.00  0.00    -0.117 C  
HETATM    9  C   UNL     1      -9.214   8.125  68.057  1.00  0.00    -0.137 C  
HETATM   10  H   UNL     1      -6.038  11.527  67.850  1.00  0.00     0.000 HD 
HETATM   11  O   UNL     1      -6.389  11.152  68.650  1.00  0.00    -0.043 OA 
HETATM   12  C   UNL     1      -8.139  10.271  66.847  1.00  0.00    -0.119 C  
HETATM   13  C   UNL     1      -9.986   6.817  67.809  1.00  0.00    -0.138 C  
HETATM   14  C   UNL     1      -7.288  10.102  68.272  1.00  0.00    -0.081 C  
HETATM   15  C   UNL     1     -11.007   6.693  68.902  1.00  0.00    -0.325 C  
HETATM   16  O   UNL     1     -10.790   6.728  66.642  1.00  0.00    -0.520 OA 
HETATM   17  C   UNL     1      -7.861   9.490  69.580  1.00  0.00    -0.116 C  
HETATM   18  C   UNL     1     -10.352   6.407  70.229  1.00  0.00    -0.252 C  
HETATM   19  C   UNL     1      -8.466   8.084  69.405  1.00  0.00    -0.132 C  
HETATM   20  H   UNL     1     -11.266   5.920  66.489  1.00  0.00     0.000 HD 
HETATM   21  C   UNL     1      -8.403   6.971  71.734  1.00  0.00    -0.110 C  
HETATM   22  C   UNL     1     -11.494   5.978  71.168  1.00  0.00    -0.246 C  
HETATM   23  C   UNL     1      -9.393   7.555  70.686  1.00  0.00    -0.163 C  
HETATM   24  C   UNL     1     -12.204   7.039  71.989  1.00  0.00    -0.282 C  
HETATM   25  C   UNL     1     -10.242   8.655  71.419  1.00  0.00    -0.324 C  
HETATM   26  H   UNL     1     -13.816   8.198  71.848  1.00  0.00     0.000 HD 
HETATM   27  O   UNL     1     -13.371   7.535  71.334  1.00  0.00    -0.351 OA 
HETATM   28  C   UNL     1     -11.297   8.166  72.448  1.00  0.00    -0.456 C  
ENDROOT
BRANCH   6  29
HETATM   29  C   UNL     1     -12.527  12.741  65.334  1.00  0.00    -0.478 C  
BRANCH  29  30
HETATM   30  C   UNL     1     -12.088  14.117  64.922  1.00  0.00    -0.428 C  
HETATM   31  O   UNL     1     -12.420  14.606  63.848  1.00  0.00    -0.813 OA 
HETATM   32  N   UNL     1     -11.266  14.761  65.829  1.00  0.00    -0.334 N  
HETATM   33  H   UNL     1     -11.062  14.317  66.725  1.00  0.00     0.000 HD 
BRANCH  32  34
HETATM   34  C   UNL     1     -10.691  16.052  65.530  1.00  0.00    -0.361 C  
BRANCH  34  35
HETATM   35  C   UNL     1     -10.309  16.804  66.805  1.00  0.00    -0.293 C  
HETATM   36  S   UNL     1      -9.254  18.176  66.412  1.00  0.00    -0.211 S  
HETATM   37  O   UNL     1      -8.960  18.680  67.919  1.00  0.00    -0.278 OA 
HETATM   38  O   UNL     1      -9.998  19.210  65.733  1.00  0.00    -0.462 OA 
HETATM   39  O   UNL     1      -7.992  17.675  65.911  1.00  0.00    -0.531 OA 
ENDBRANCH  34  35
ENDBRANCH  32  34
ENDBRANCH  29  30
ENDBRANCH   6  29
TORSDOF 4
ENDMDL
MODEL       12
REMARK 921   NORMALIZED FREE ENERGY PREDICTED BY IDOCK:   -7.21 KCAL/MOL
REMARK 922        TOTAL FREE ENERGY PREDICTED BY IDOCK:   -9.71 KCAL/MOL
REMARK 923 INTER-LIGAND FREE ENERGY PREDICTED BY IDOCK:   -7.91 KCAL/MOL
REMARK 924 INTRA-LIGAND FREE ENERGY PREDICTED BY IDOCK:   -1.80 KCAL/MOL
REMARK 927      BINDING AFFINITY PREDICTED BY RF-SCORE:    0.00 PKD
ROOT
HETATM    1  C   UNL     1     -10.723  10.080  70.693  1.00  0.00    -0.325 C  
HETATM    2  C   UNL     1     -10.553   8.354  70.602  1.00  0.00    -0.234 C  
HETATM    3  C   UNL     1     -10.265  10.206  69.242  1.00  0.00    -0.238 C  
HETATM    4  C   UNL     1     -11.410   7.306  71.300  1.00  0.00    -0.290 C  
HETATM    5  C   UNL     1     -11.641  10.109  68.563  1.00  0.00     0.013 C  
HETATM    6  C   UNL     1      -9.058   7.788  70.413  1.00  0.00    -0.155 C  
HETATM    7  C   UNL     1     -13.285  10.387  71.331  1.00  0.00    -0.459 C  
HETATM    8  C   UNL     1     -12.238  11.393  69.017  1.00  0.00    -0.200 C  
HETATM    9  C   UNL     1     -11.299  12.598  68.491  1.00  0.00    -0.333 C  
HETATM   10  H   UNL     1     -13.556  12.288  72.554  1.00  0.00     0.000 HD 
HETATM   11  O   UNL     1     -13.083  13.053  72.247  1.00  0.00    -0.401 OA 
HETATM   12  C   UNL     1     -12.169  11.173  70.597  1.00  0.00    -0.492 C  
HETATM   13  C   UNL     1     -10.944  12.514  66.996  1.00  0.00    -0.267 C  
HETATM   14  C   UNL     1     -12.589  12.752  70.935  1.00  0.00    -0.255 C  
HETATM   15  C   UNL     1      -9.705  13.337  66.789  1.00  0.00    -0.258 C  
HETATM   16  O   UNL     1     -10.550  11.253  66.475  1.00  0.00    -0.247 OA 
HETATM   17  C   UNL     1     -11.815  14.003  70.434  1.00  0.00    -0.356 C  
HETATM   18  C   UNL     1      -9.998  14.808  66.945  1.00  0.00    -0.246 C  
HETATM   19  C   UNL     1     -11.616  14.049  68.907  1.00  0.00    -0.351 C  
HETATM   20  H   UNL     1     -10.332  11.200  65.552  1.00  0.00     0.000 HD 
HETATM   21  C   UNL     1     -11.253  16.532  68.297  1.00  0.00    -0.265 C  
HETATM   22  C   UNL     1      -8.760  15.534  66.388  1.00  0.00    -0.333 C  
HETATM   23  C   UNL     1     -10.503  15.172  68.379  1.00  0.00    -0.233 C  
HETATM   24  C   UNL     1      -7.626  15.878  67.335  1.00  0.00    -0.179 C  
HETATM   25  C   UNL     1      -9.256  15.391  69.308  1.00  0.00    -0.259 C  
HETATM   26  H   UNL     1      -5.906  15.084  67.948  1.00  0.00     0.000 HD 
HETATM   27  O   UNL     1      -6.616  14.869  67.355  1.00  0.00    -0.272 OA 
HETATM   28  C   UNL     1      -8.086  16.238  68.737  1.00  0.00    -0.227 C  
ENDROOT
BRANCH   6  29
HETATM   29  C   UNL     1      -7.966   8.121  71.414  1.00  0.00    -0.119 C  
BRANCH  29  30
HETATM   30  C   UNL     1      -6.992   9.146  70.908  1.00  0.00    -0.101 C  
HETATM   31  O   UNL     1      -6.283   9.793  71.670  1.00  0.00    -0.295 OA 
HETATM   32  N   UNL     1      -6.991   9.318  69.535  1.00  0.00    -0.050 N  
HETATM   33  H   UNL     1      -7.575   8.718  68.954  1.00  0.00     0.000 HD 
BRANCH  32  34
HETATM   34  C   UNL     1      -6.173  10.333  68.912  1.00  0.00    -0.047 C  
BRANCH  34  35
HETATM   35  C   UNL     1      -6.899  10.994  67.740  1.00  0.00    -0.069 C  
HETATM   36  S   UNL     1      -7.236   9.796  66.475  1.00  0.00    -0.096 S  
HETATM   37  O   UNL     1      -7.888  10.791  65.382  1.00  0.00    -0.111 OA 
HETATM   38  O   UNL     1      -8.261   8.876  66.909  1.00  0.00    -0.110 OA 
HETATM   39  O   UNL     1      -5.985   9.347  65.903  1.00  0.00    -0.053 OA 
ENDBRANCH  34  35
ENDBRANCH  32  34
ENDBRANCH  29  30
ENDBRANCH   6  29
TORSDOF 4
ENDMDL
MODEL       13
REMARK 921   NORMALIZED FREE ENERGY PREDICTED BY IDOCK:   -7.18 KCAL/MOL
REMARK 922        TOTAL FREE ENERGY PREDICTED BY IDOCK:   -9.69 KCAL/MOL
REMARK 923 INTER-LIGAND FREE ENERGY PREDICTED BY IDOCK:   -9.04 KCAL/MOL
REMARK 924 INTRA-LIGAND FREE ENERGY PREDICTED BY IDOCK:   -0.65 KCAL/MOL
REMARK 927      BINDING AFFINITY PREDICTED BY RF-SCORE:    0.00 PKD
ROOT
HETATM    1  C   UNL     1     -10.717  12.994  69.322  1.00  0.00     0.027 C  
HETATM    2  C   UNL     1     -11.162  11.371  68.893  1.00  0.00    -0.310 C  
HETATM    3  C   UNL     1     -10.346  13.280  67.869  1.00  0.00    -0.239 C  
HETATM    4  C   UNL     1     -12.279  10.530  69.500  1.00  0.00    -0.154 C  
HETATM    5  C   UNL     1     -11.714  13.787  67.384  1.00  0.00    -0.417 C  
HETATM    6  C   UNL     1      -9.973  10.407  68.396  1.00  0.00    -0.177 C  
HETATM    7  C   UNL     1     -12.963  13.966  70.359  1.00  0.00    -0.087 C  
HETATM    8  C   UNL     1     -11.796  15.062  68.144  1.00  0.00    -0.286 C  
HETATM    9  C   UNL     1     -10.537  15.982  67.722  1.00  0.00    -0.309 C  
HETATM   10  H   UNL     1     -12.473  15.534  71.935  1.00  0.00     0.000 HD 
HETATM   11  O   UNL     1     -11.787  16.152  71.710  1.00  0.00    -0.472 OA 
HETATM   12  C   UNL     1     -11.698  14.489  69.632  1.00  0.00    -0.356 C  
HETATM   13  C   UNL     1     -10.338  16.118  66.202  1.00  0.00    -0.339 C  
HETATM   14  C   UNL     1     -11.520  16.004  70.310  1.00  0.00    -0.359 C  
HETATM   15  C   UNL     1      -8.909  16.520  65.978  1.00  0.00    -0.267 C  
HETATM   16  O   UNL     1     -10.443  14.945  65.409  1.00  0.00    -0.327 OA 
HETATM   17  C   UNL     1     -10.398  17.014  69.942  1.00  0.00     0.154 C  
HETATM   18  C   UNL     1      -8.662  17.933  66.440  1.00  0.00    -0.249 C  
HETATM   19  C   UNL     1     -10.302  17.328  68.437  1.00  0.00    -0.366 C  
HETATM   20  H   UNL     1     -10.321  15.029  64.470  1.00  0.00     0.000 HD 
HETATM   21  C   UNL     1      -9.145  19.629  68.248  1.00  0.00    -0.395 C  
HETATM   22  C   UNL     1      -7.291  18.323  65.858  1.00  0.00    -0.237 C  
HETATM   23  C   UNL     1      -8.909  18.117  67.973  1.00  0.00    -0.286 C  
HETATM   24  C   UNL     1      -6.045  18.062  66.684  1.00  0.00    -0.166 C  
HETATM   25  C   UNL     1      -7.602  17.709  68.743  1.00  0.00    -0.253 C  
HETATM   26  H   UNL     1      -4.669  16.639  66.893  1.00  0.00     0.000 HD 
HETATM   27  O   UNL     1      -5.449  16.802  66.376  1.00  0.00    -0.348 OA 
HETATM   28  C   UNL     1      -6.253  18.234  68.178  1.00  0.00    -0.183 C  
ENDROOT
BRANCH   6  29
HETATM   29  C   UNL     1      -8.766  10.139  69.278  1.00  0.00    -0.186 C  
BRANCH  29  30
HETATM   30  C   UNL     1      -8.972   8.996  70.230  1.00  0.00    -0.198 C  
HETATM   31  O   UNL     1      -8.601   7.859  69.963  1.00  0.00    -0.132 OA 
HETATM   32  N   UNL     1      -9.634   9.326  71.400  1.00  0.00    -0.232 N  
HETATM   33  H   UNL     1      -9.878  10.300  71.580  1.00  0.00     0.000 HD 
BRANCH  32  34
HETATM   34  C   UNL     1      -9.983   8.314  72.369  1.00  0.00    -0.309 C  
BRANCH  34  35
HETATM   35  C   UNL     1     -11.499   8.147  72.482  1.00  0.00    -0.404 C  
HETATM   36  S   UNL     1     -12.020   6.691  71.611  1.00  0.00    -0.348 S  
HETATM   37  O   UNL     1     -13.613   6.851  71.826  1.00  0.00    -0.312 OA 
HETATM   38  O   UNL     1     -11.591   5.503  72.309  1.00  0.00    -0.222 OA 
HETATM   39  O   UNL     1     -11.793   6.881  70.194  1.00  0.00    -0.299 OA 
ENDBRANCH  34  35
ENDBRANCH  32  34
ENDBRANCH  29  30
ENDBRANCH   6  29
TORSDOF 4
ENDMDL
MODEL       14
REMARK 921   NORMALIZED FREE ENERGY PREDICTED BY IDOCK:   -7.18 KCAL/MOL
REMARK 922        TOTAL FREE ENERGY PREDICTED BY IDOCK:   -9.69 KCAL/MOL
REMARK 923 INTER-LIGAND FREE ENERGY PREDICTED BY IDOCK:   -8.13 KCAL/MOL
REMARK 924 INTRA-LIGAND FREE ENERGY PREDICTED BY IDOCK:   -1.55 KCAL/MOL
REMARK 927      BINDING AFFINITY PREDICTED BY RF-SCORE:    0.00 PKD
ROOT
HETATM    1  C   UNL     1     -11.546  10.428  69.135  1.00  0.00    -0.234 C  
HETATM    2  C   UNL     1     -11.362  12.155  69.129  1.00  0.00    -0.333 C  
HETATM    3  C   UNL     1     -10.103  10.269  68.659  1.00  0.00    -0.187 C  
HETATM    4  C   UNL     1     -12.003  13.153  70.086  1.00  0.00    -0.381 C  
HETATM    5  C   UNL     1      -9.421  10.197  70.035  1.00  0.00    -0.086 C  
HETATM    6  C   UNL     1     -11.143  12.851  67.695  1.00  0.00    -0.297 C  
HETATM    7  C   UNL     1     -12.200   9.912  71.658  1.00  0.00    -0.482 C  
HETATM    8  C   UNL     1      -9.942   8.889  70.509  1.00  0.00    -0.243 C  
HETATM    9  C   UNL     1      -9.482   7.752  69.456  1.00  0.00    -0.160 C  
HETATM   10  H   UNL     1     -13.523   8.062  71.753  1.00  0.00     0.000 HD 
HETATM   11  O   UNL     1     -13.257   7.331  71.208  1.00  0.00    -0.372 OA 
HETATM   12  C   UNL     1     -11.509   9.198  70.469  1.00  0.00    -0.271 C  
HETATM   13  C   UNL     1      -7.984   7.791  69.104  1.00  0.00    -0.119 C  
HETATM   14  C   UNL     1     -11.931   7.607  70.738  1.00  0.00    -0.169 C  
HETATM   15  C   UNL     1      -7.821   7.079  67.791  1.00  0.00    -0.113 C  
HETATM   16  O   UNL     1      -7.396   9.054  68.829  1.00  0.00    -0.074 OA 
HETATM   17  C   UNL     1     -11.497   6.411  69.846  1.00  0.00    -0.483 C  
HETATM   18  C   UNL     1      -8.056   5.598  67.943  1.00  0.00    -0.101 C  
HETATM   19  C   UNL     1      -9.975   6.302  69.636  1.00  0.00    -0.201 C  
HETATM   20  H   UNL     1      -6.472   9.077  68.612  1.00  0.00     0.000 HD 
HETATM   21  C   UNL     1      -9.499   3.836  69.035  1.00  0.00    -0.233 C  
HETATM   22  C   UNL     1      -7.539   4.964  66.639  1.00  0.00    -0.088 C  
HETATM   23  C   UNL     1      -9.508   5.264  68.418  1.00  0.00    -0.159 C  
HETATM   24  C   UNL     1      -8.503   4.782  65.481  1.00  0.00    -0.127 C  
HETATM   25  C   UNL     1     -10.447   5.215  67.160  1.00  0.00    -0.224 C  
HETATM   26  H   UNL     1      -9.072   5.769  63.848  1.00  0.00     0.000 HD 
HETATM   27  O   UNL     1      -8.468   5.883  64.573  1.00  0.00    -0.106 OA 
HETATM   28  C   UNL     1      -9.921   4.455  65.912  1.00  0.00    -0.255 C  
ENDROOT
BRANCH   6  29
HETATM   29  C   UNL     1     -12.161  12.677  66.580  1.00  0.00    -0.267 C  
BRANCH  29  30
HETATM   30  C   UNL     1     -11.559  12.782  65.209  1.00  0.00    -0.344 C  
HETATM   31  O   UNL     1     -11.708  13.780  64.513  1.00  0.00    -0.373 OA 
HETATM   32  N   UNL     1     -10.862  11.661  64.792  1.00  0.00    -0.307 N  
HETATM   33  H   UNL     1     -10.738  10.880  65.436  1.00  0.00     0.000 HD 
BRANCH  32  34
HETATM   34  C   UNL     1     -10.306  11.581  63.461  1.00  0.00    -0.433 C  
BRANCH  34  35
HETATM   35  C   UNL     1      -9.090  10.656  63.418  1.00  0.00    -0.241 C  
HETATM   36  S   UNL     1      -8.703  10.078  65.051  1.00  0.00    -0.188 S  
HETATM   37  O   UNL     1      -7.367   9.244  64.690  1.00  0.00    -0.097 OA 
HETATM   38  O   UNL     1      -9.703   9.144  65.508  1.00  0.00    -0.247 OA 
HETATM   39  O   UNL     1      -8.262  11.197  65.856  1.00  0.00    -0.141 OA 
ENDBRANCH  34  35
ENDBRANCH  32  34
ENDBRANCH  29  30
ENDBRANCH   6  29
TORSDOF 4
ENDMDL
MODEL       15
REMARK 921   NORMALIZED FREE ENERGY PREDICTED BY IDOCK:   -7.15 KCAL/MOL
REMARK 922        TOTAL FREE ENERGY PREDICTED BY IDOCK:   -9.65 KCAL/MOL
REMARK 923 INTER-LIGAND FREE ENERGY PREDICTED BY IDOCK:   -8.83 KCAL/MOL
REMARK 924 INTRA-LIGAND FREE ENERGY PREDICTED BY IDOCK:   -0.82 KCAL/MOL
REMARK 927      BINDING AFFINITY PREDICTED BY RF-SCORE:    0.00 PKD
ROOT
HETATM    1  C   UNL     1      -9.954  12.843  67.934  1.00  0.00    -0.233 C  
HETATM    2  C   UNL     1     -10.033  11.343  67.064  1.00  0.00    -0.227 C  
HETATM    3  C   UNL     1      -9.797  13.603  66.618  1.00  0.00    -0.284 C  
HETATM    4  C   UNL     1     -10.855  10.111  67.423  1.00  0.00    -0.323 C  
HETATM    5  C   UNL     1     -11.285  13.854  66.326  1.00  0.00    -0.310 C  
HETATM    6  C   UNL     1      -8.698  10.890  66.287  1.00  0.00    -0.175 C  
HETATM    7  C   UNL     1     -12.263  12.885  69.249  1.00  0.00    -0.115 C  
HETATM    8  C   UNL     1     -11.602  14.806  67.423  1.00  0.00    -0.377 C  
HETATM    9  C   UNL     1     -10.644  16.098  67.260  1.00  0.00    -0.305 C  
HETATM   10  H   UNL     1     -12.021  14.031  71.201  1.00  0.00     0.000 HD 
HETATM   11  O   UNL     1     -11.528  14.841  71.151  1.00  0.00    -0.294 OA 
HETATM   12  C   UNL     1     -11.232  13.893  68.680  1.00  0.00    -0.298 C  
HETATM   13  C   UNL     1     -10.624  16.692  65.840  1.00  0.00    -0.249 C  
HETATM   14  C   UNL     1     -11.362  15.157  69.762  1.00  0.00    -0.285 C  
HETATM   15  C   UNL     1      -9.360  17.492  65.714  1.00  0.00     0.188 C  
HETATM   16  O   UNL     1     -10.516  15.795  64.745  1.00  0.00    -0.600 OA 
HETATM   17  C   UNL     1     -10.555  16.481  69.681  1.00  0.00    -0.302 C  
HETATM   18  C   UNL     1      -9.419  18.739  66.560  1.00  0.00    -0.353 C  
HETATM   19  C   UNL     1     -10.676  17.210  68.328  1.00  0.00    -0.363 C  
HETATM   20  H   UNL     1     -10.505  16.162  63.868  1.00  0.00     0.000 HD 
HETATM   21  C   UNL     1     -10.128  19.691  68.789  1.00  0.00    -0.532 C  
HETATM   22  C   UNL     1      -8.241  19.611  66.089  1.00  0.00    -0.355 C  
HETATM   23  C   UNL     1      -9.561  18.425  68.085  1.00  0.00    -0.335 C  
HETATM   24  C   UNL     1      -6.899  19.463  66.780  1.00  0.00    -0.197 C  
HETATM   25  C   UNL     1      -8.129  18.172  68.679  1.00  0.00    -0.301 C  
HETATM   26  H   UNL     1      -5.207  18.439  66.544  1.00  0.00     0.000 HD 
HETATM   27  O   UNL     1      -6.048  18.532  66.111  1.00  0.00    -0.157 OA 
HETATM   28  C   UNL     1      -7.005  19.159  68.264  1.00  0.00    -0.292 C  
ENDROOT
BRANCH   6  29
HETATM   29  C   UNL     1      -7.386  10.710  67.031  1.00  0.00    -0.102 C  
BRANCH  29  30
HETATM   30  C   UNL     1      -7.361   9.482  67.895  1.00  0.00    -0.083 C  
HETATM   31  O   UNL     1      -7.052   8.384  67.446  1.00  0.00    -0.077 OA 
HETATM   32  N   UNL     1      -7.741   9.688  69.209  1.00  0.00    -0.088 N  
HETATM   33  H   UNL     1      -7.945  10.635  69.530  1.00  0.00     0.000 HD 
BRANCH  32  34
HETATM   34  C   UNL     1      -7.853   8.584  70.134  1.00  0.00    -0.099 C  
BRANCH  34  35
HETATM   35  C   UNL     1      -9.237   7.939  70.071  1.00  0.00    -0.153 C  
HETATM   36  S   UNL     1     -10.335   8.732  71.219  1.00  0.00    -0.289 S  
HETATM   37  O   UNL     1     -11.628   7.791  70.990  1.00  0.00    -0.280 OA 
HETATM   38  O   UNL     1     -10.665  10.062  70.767  1.00  0.00    -0.303 OA 
HETATM   39  O   UNL     1      -9.885   8.462  72.567  1.00  0.00    -0.282 OA 
ENDBRANCH  34  35
ENDBRANCH  32  34
ENDBRANCH  29  30
ENDBRANCH   6  29
TORSDOF 4
ENDMDL
MODEL       16
REMARK 921   NORMALIZED FREE ENERGY PREDICTED BY IDOCK:   -7.09 KCAL/MOL
REMARK 922        TOTAL FREE ENERGY PREDICTED BY IDOCK:   -9.57 KCAL/MOL
REMARK 923 INTER-LIGAND FREE ENERGY PREDICTED BY IDOCK:   -8.85 KCAL/MOL
REMARK 924 INTRA-LIGAND FREE ENERGY PREDICTED BY IDOCK:   -0.72 KCAL/MOL
REMARK 927      BINDING AFFINITY PREDICTED BY RF-SCORE:    0.00 PKD
ROOT
HETATM    1  C   UNL     1      -9.457  12.484  68.276  1.00  0.00    -0.201 C  
HETATM    2  C   UNL     1     -10.160  13.488  67.046  1.00  0.00    -0.244 C  
HETATM    3  C   UNL     1     -10.391  11.341  67.882  1.00  0.00    -0.205 C  
HETATM    4  C   UNL     1      -9.455  14.548  66.208  1.00  0.00    -0.310 C  
HETATM    5  C   UNL     1      -9.494  10.672  66.827  1.00  0.00    -0.189 C  
HETATM    6  C   UNL     1     -11.702  13.902  67.249  1.00  0.00    -0.418 C  
HETATM    7  C   UNL     1      -6.889  12.425  67.593  1.00  0.00    -0.132 C  
HETATM    8  C   UNL     1      -8.410  10.158  67.705  1.00  0.00    -0.114 C  
HETATM    9  C   UNL     1      -9.071   9.149  68.781  1.00  0.00    -0.136 C  
HETATM   10  H   UNL     1      -5.599  12.181  69.452  1.00  0.00     0.000 HD 
HETATM   11  O   UNL     1      -5.900  11.544  70.089  1.00  0.00    -0.117 OA 
HETATM   12  C   UNL     1      -7.912  11.534  68.344  1.00  0.00    -0.143 C  
HETATM   13  C   UNL     1      -9.996   8.086  68.162  1.00  0.00    -0.185 C  
HETATM   14  C   UNL     1      -6.939  10.776  69.467  1.00  0.00    -0.130 C  
HETATM   15  C   UNL     1     -10.905   7.602  69.255  1.00  0.00    -0.111 C  
HETATM   16  O   UNL     1     -10.923   8.505  67.171  1.00  0.00    -0.404 OA 
HETATM   17  C   UNL     1      -7.432   9.734  70.509  1.00  0.00    -0.119 C  
HETATM   18  C   UNL     1     -10.147   6.785  70.270  1.00  0.00    -0.196 C  
HETATM   19  C   UNL     1      -8.195   8.544  69.896  1.00  0.00    -0.121 C  
HETATM   20  H   UNL     1     -11.493   7.848  66.789  1.00  0.00     0.000 HD 
HETATM   21  C   UNL     1      -8.004   6.608  71.595  1.00  0.00    -0.103 C  
HETATM   22  C   UNL     1     -11.223   6.087  71.122  1.00  0.00    -0.328 C  
HETATM   23  C   UNL     1      -9.032   7.609  70.994  1.00  0.00    -0.148 C  
HETATM   24  C   UNL     1     -11.729   6.780  72.373  1.00  0.00    -0.217 C  
HETATM   25  C   UNL     1      -9.681   8.380  72.198  1.00  0.00    -0.370 C  
HETATM   26  H   UNL     1     -13.219   7.990  72.905  1.00  0.00     0.000 HD 
HETATM   27  O   UNL     1     -12.901   7.556  72.122  1.00  0.00    -0.222 OA 
HETATM   28  C   UNL     1     -10.668   7.587  73.098  1.00  0.00    -0.452 C  
ENDROOT
BRANCH   6  29
HETATM   29  C   UNL     1     -12.154  14.637  68.499  1.00  0.00    -0.229 C  
BRANCH  29  30
HETATM   30  C   UNL     1     -11.132  15.607  69.017  1.00  0.00    -0.279 C  
HETATM   31  O   UNL     1     -10.386  15.323  69.947  1.00  0.00    -0.269 OA 
HETATM   32  N   UNL     1     -11.127  16.839  68.386  1.00  0.00    -0.330 N  
HETATM   33  H   UNL     1     -11.745  16.997  67.590  1.00  0.00     0.000 HD 
BRANCH  32  34
HETATM   34  C   UNL     1     -10.262  17.904  68.836  1.00  0.00    -0.330 C  
BRANCH  34  35
HETATM   35  C   UNL     1      -9.045  18.060  67.924  1.00  0.00    -0.268 C  
HETATM   36  S   UNL     1      -9.449  19.093  66.538  1.00  0.00    -0.367 S  
HETATM   37  O   UNL     1      -8.045  18.979  65.748  1.00  0.00    -0.459 OA 
HETATM   38  O   UNL     1      -9.615  20.463  66.959  1.00  0.00    -0.414 OA 
HETATM   39  O   UNL     1     -10.423  18.415  65.710  1.00  0.00    -0.594 OA 
ENDBRANCH  34  35
ENDBRANCH  32  34
ENDBRANCH  29  30
ENDBRANCH   6  29
TORSDOF 4
ENDMDL
MODEL       17
REMARK 921   NORMALIZED FREE ENERGY PREDICTED BY IDOCK:   -7.08 KCAL/MOL
REMARK 922        TOTAL FREE ENERGY PREDICTED BY IDOCK:   -9.56 KCAL/MOL
REMARK 923 INTER-LIGAND FREE ENERGY PREDICTED BY IDOCK:   -8.59 KCAL/MOL
REMARK 924 INTRA-LIGAND FREE ENERGY PREDICTED BY IDOCK:   -0.97 KCAL/MOL
REMARK 927      BINDING AFFINITY PREDICTED BY RF-SCORE:    0.00 PKD
ROOT
HETATM    1  C   UNL     1     -11.195   9.995  69.085  1.00  0.00    -0.197 C  
HETATM    2  C   UNL     1     -10.982  11.661  68.644  1.00  0.00    -0.266 C  
HETATM    3  C   UNL     1      -9.703   9.745  68.875  1.00  0.00    -0.172 C  
HETATM    4  C   UNL     1     -11.732  12.865  69.200  1.00  0.00    -0.376 C  
HETATM    5  C   UNL     1      -9.221  10.057  70.302  1.00  0.00     0.012 C  
HETATM    6  C   UNL     1     -10.551  11.953  67.120  1.00  0.00    -0.264 C  
HETATM    7  C   UNL     1     -12.205  10.159  71.537  1.00  0.00    -0.473 C  
HETATM    8  C   UNL     1      -9.828   8.912  71.030  1.00  0.00    -0.321 C  
HETATM    9  C   UNL     1      -9.245   7.546  70.395  1.00  0.00    -0.157 C  
HETATM   10  H   UNL     1     -13.561   8.375  71.937  1.00  0.00     0.000 HD 
HETATM   11  O   UNL     1     -13.235   7.530  71.650  1.00  0.00    -0.348 OA 
HETATM   12  C   UNL     1     -11.367   9.168  70.690  1.00  0.00    -0.323 C  
HETATM   13  C   UNL     1      -7.712   7.519  70.258  1.00  0.00    -0.092 C  
HETATM   14  C   UNL     1     -11.852   7.697  71.313  1.00  0.00    -0.292 C  
HETATM   15  C   UNL     1      -7.380   6.486  69.219  1.00  0.00    -0.093 C  
HETATM   16  O   UNL     1      -7.069   8.674  69.741  1.00  0.00    -0.049 OA 
HETATM   17  C   UNL     1     -11.318   6.316  70.843  1.00  0.00    -0.389 C  
HETATM   18  C   UNL     1      -7.659   5.095  69.727  1.00  0.00    -0.061 C  
HETATM   19  C   UNL     1      -9.784   6.186  70.885  1.00  0.00    -0.203 C  
HETATM   20  H   UNL     1      -6.123   8.658  69.657  1.00  0.00     0.000 HD 
HETATM   21  C   UNL     1      -9.273   3.660  71.037  1.00  0.00    -0.196 C  
HETATM   22  C   UNL     1      -6.976   4.146  68.725  1.00  0.00    -0.047 C  
HETATM   23  C   UNL     1      -9.169   4.870  70.066  1.00  0.00    -0.182 C  
HETATM   24  C   UNL     1      -7.772   3.642  67.535  1.00  0.00    -0.078 C  
HETATM   25  C   UNL     1      -9.924   4.468  68.749  1.00  0.00    -0.120 C  
HETATM   26  H   UNL     1      -8.088   4.145  65.635  1.00  0.00     0.000 HD 
HETATM   27  O   UNL     1      -7.591   4.461  66.380  1.00  0.00    -0.084 OA 
HETATM   28  C   UNL     1      -9.242   3.413  67.835  1.00  0.00    -0.237 C  
ENDROOT
BRANCH   6  29
HETATM   29  C   UNL     1     -11.405  11.468  65.962  1.00  0.00    -0.184 C  
BRANCH  29  30
HETATM   30  C   UNL     1     -12.075  12.583  65.213  1.00  0.00    -0.444 C  
HETATM   31  O   UNL     1     -13.060  12.388  64.510  1.00  0.00    -0.823 OA 
HETATM   32  N   UNL     1     -11.476  13.822  65.357  1.00  0.00    -0.306 N  
HETATM   33  H   UNL     1     -10.683  13.925  65.991  1.00  0.00     0.000 HD 
BRANCH  32  34
HETATM   34  C   UNL     1     -11.954  14.971  64.623  1.00  0.00    -0.358 C  
BRANCH  34  35
HETATM   35  C   UNL     1     -11.120  16.216  64.928  1.00  0.00    -0.325 C  
HETATM   36  S   UNL     1     -10.105  15.936  66.357  1.00  0.00    -0.311 S  
HETATM   37  O   UNL     1      -9.454  17.411  66.469  1.00  0.00    -0.256 OA 
HETATM   38  O   UNL     1      -9.047  15.004  66.051  1.00  0.00    -0.264 OA 
HETATM   39  O   UNL     1     -10.953  15.791  67.520  1.00  0.00    -0.318 OA 
ENDBRANCH  34  35
ENDBRANCH  32  34
ENDBRANCH  29  30
ENDBRANCH   6  29
TORSDOF 4
ENDMDL
MODEL       18
REMARK 921   NORMALIZED FREE ENERGY PREDICTED BY IDOCK:   -7.08 KCAL/MOL
REMARK 922        TOTAL FREE ENERGY PREDICTED BY IDOCK:   -9.56 KCAL/MOL
REMARK 923 INTER-LIGAND FREE ENERGY PREDICTED BY IDOCK:   -8.98 KCAL/MOL
REMARK 924 INTRA-LIGAND FREE ENERGY PREDICTED BY IDOCK:   -0.57 KCAL/MOL
REMARK 927      BINDING AFFINITY PREDICTED BY RF-SCORE:    0.00 PKD
ROOT
HETATM    1  C   UNL     1     -10.768   8.612  69.574  1.00  0.00    -0.189 C  
HETATM    2  C   UNL     1     -10.196   9.995  68.694  1.00  0.00    -0.198 C  
HETATM    3  C   UNL     1      -9.357   8.358  70.100  1.00  0.00    -0.164 C  
HETATM    4  C   UNL     1     -10.950  11.291  68.421  1.00  0.00    -0.268 C  
HETATM    5  C   UNL     1      -9.439   9.203  71.381  1.00  0.00    -0.279 C  
HETATM    6  C   UNL     1      -9.169   9.706  67.488  1.00  0.00    -0.149 C  
HETATM    7  C   UNL     1     -12.631   9.652  71.159  1.00  0.00    -0.411 C  
HETATM    8  C   UNL     1     -10.418   8.396  72.155  1.00  0.00    -0.396 C  
HETATM    9  C   UNL     1      -9.806   6.914  72.351  1.00  0.00    -0.172 C  
HETATM   10  H   UNL     1     -14.243   8.101  71.579  1.00  0.00     0.000 HD 
HETATM   11  O   UNL     1     -13.937   7.223  71.775  1.00  0.00    -0.375 OA 
HETATM   12  C   UNL     1     -11.657   8.446  71.148  1.00  0.00    -0.317 C  
HETATM   13  C   UNL     1      -8.358   6.895  72.874  1.00  0.00    -0.108 C  
HETATM   14  C   UNL     1     -12.524   7.303  71.999  1.00  0.00    -0.242 C  
HETATM   15  C   UNL     1      -7.775   5.560  72.509  1.00  0.00    -0.102 C  
HETATM   16  O   UNL     1      -7.427   7.793  72.289  1.00  0.00    -0.073 OA 
HETATM   17  C   UNL     1     -12.023   5.867  72.320  1.00  0.00    -0.211 C  
HETATM   18  C   UNL     1      -8.400   4.454  73.320  1.00  0.00    -0.095 C  
HETATM   19  C   UNL     1     -10.656   5.821  73.029  1.00  0.00    -0.272 C  
HETATM   20  H   UNL     1      -6.533   7.782  72.611  1.00  0.00     0.000 HD 
HETATM   21  C   UNL     1     -10.561   3.560  74.273  1.00  0.00    -0.256 C  
HETATM   22  C   UNL     1      -7.501   3.224  73.100  1.00  0.00    -0.055 C  
HETATM   23  C   UNL     1      -9.937   4.318  73.067  1.00  0.00    -0.196 C  
HETATM   24  C   UNL     1      -7.821   2.278  71.957  1.00  0.00    -0.048 C  
HETATM   25  C   UNL     1     -10.157   3.420  71.797  1.00  0.00    -0.136 C  
HETATM   26  H   UNL     1      -7.302   2.014  70.053  1.00  0.00     0.000 HD 
HETATM   27  O   UNL     1      -7.102   2.606  70.769  1.00  0.00    -0.033 OA 
HETATM   28  C   UNL     1      -9.307   2.124  71.689  1.00  0.00    -0.181 C  
ENDROOT
BRANCH   6  29
HETATM   29  C   UNL     1      -9.553   8.788  66.341  1.00  0.00    -0.316 C  
BRANCH  29  30
HETATM   30  C   UNL     1      -9.424   9.438  64.994  1.00  0.00    -0.134 C  
HETATM   31  O   UNL     1      -8.708   8.969  64.117  1.00  0.00    -0.181 OA 
HETATM   32  N   UNL     1     -10.145  10.609  64.842  1.00  0.00    -0.318 N  
HETATM   33  H   UNL     1     -10.756  10.924  65.596  1.00  0.00     0.000 HD 
BRANCH  32  34
HETATM   34  C   UNL     1     -10.046  11.394  63.633  1.00  0.00    -0.377 C  
BRANCH  34  35
HETATM   35  C   UNL     1     -10.580  12.812  63.841  1.00  0.00    -0.395 C  
HETATM   36  S   UNL     1     -12.289  12.758  64.315  1.00  0.00    -0.408 S  
HETATM   37  O   UNL     1     -12.568  14.349  64.355  1.00  0.00    -0.668 OA 
HETATM   38  O   UNL     1     -12.428  12.246  65.657  1.00  0.00    -0.591 OA 
HETATM   39  O   UNL     1     -13.071  12.249  63.208  1.00  0.00    -0.668 OA 
ENDBRANCH  34  35
ENDBRANCH  32  34
ENDBRANCH  29  30
ENDBRANCH   6  29
TORSDOF 4
ENDMDL
MODEL       19
REMARK 921   NORMALIZED FREE ENERGY PREDICTED BY IDOCK:   -7.07 KCAL/MOL
REMARK 922        TOTAL FREE ENERGY PREDICTED BY IDOCK:   -9.55 KCAL/MOL
REMARK 923 INTER-LIGAND FREE ENERGY PREDICTED BY IDOCK:   -8.67 KCAL/MOL
REMARK 924 INTRA-LIGAND FREE ENERGY PREDICTED BY IDOCK:   -0.88 KCAL/MOL
REMARK 927      BINDING AFFINITY PREDICTED BY RF-SCORE:    0.00 PKD
ROOT
HETATM    1  C   UNL     1     -11.143  12.687  69.936  1.00  0.00     0.253 C  
HETATM    2  C   UNL     1     -11.604  11.033  69.677  1.00  0.00    -0.390 C  
HETATM    3  C   UNL     1     -10.724  12.804  68.472  1.00  0.00    -0.275 C  
HETATM    4  C   UNL     1     -12.753  10.282  70.339  1.00  0.00    -0.243 C  
HETATM    5  C   UNL     1     -12.068  13.273  67.891  1.00  0.00    -0.270 C  
HETATM    6  C   UNL     1     -10.418  10.002  69.327  1.00  0.00    -0.245 C  
HETATM    7  C   UNL     1     -13.400  13.802  70.788  1.00  0.00     0.010 C  
HETATM    8  C   UNL     1     -12.150  14.626  68.502  1.00  0.00    -0.229 C  
HETATM    9  C   UNL     1     -10.862  15.474  68.019  1.00  0.00    -0.300 C  
HETATM   10  H   UNL     1     -12.927  15.529  72.194  1.00  0.00     0.000 HD 
HETATM   11  O   UNL     1     -12.224  16.108  71.923  1.00  0.00    -0.472 OA 
HETATM   12  C   UNL     1     -12.105  14.222  70.047  1.00  0.00    -0.400 C  
HETATM   13  C   UNL     1     -10.617  15.437  66.500  1.00  0.00    -0.306 C  
HETATM   14  C   UNL     1     -11.919  15.800  70.557  1.00  0.00    -0.371 C  
HETATM   15  C   UNL     1      -9.175  15.790  66.277  1.00  0.00    -0.368 C  
HETATM   16  O   UNL     1     -10.720  14.184  65.839  1.00  0.00    -0.287 OA 
HETATM   17  C   UNL     1     -10.769  16.746  70.114  1.00  0.00     0.016 C  
HETATM   18  C   UNL     1      -8.917  17.242  66.586  1.00  0.00    -0.279 C  
HETATM   19  C   UNL     1     -10.624  16.889  68.586  1.00  0.00    -0.360 C  
HETATM   20  H   UNL     1     -10.569  14.161  64.902  1.00  0.00     0.000 HD 
HETATM   21  C   UNL     1      -9.421  19.137  68.178  1.00  0.00    -0.400 C  
HETATM   22  C   UNL     1      -7.523  17.545  66.007  1.00  0.00    -0.274 C  
HETATM   23  C   UNL     1      -9.204  17.600  68.081  1.00  0.00    -0.282 C  
HETATM   24  C   UNL     1      -6.306  17.360  66.894  1.00  0.00    -0.182 C  
HETATM   25  C   UNL     1      -7.927  17.262  68.931  1.00  0.00    -0.196 C  
HETATM   26  H   UNL     1      -4.961  15.949  67.303  1.00  0.00     0.000 HD 
HETATM   27  O   UNL     1      -5.724  16.065  66.748  1.00  0.00    -0.267 OA 
HETATM   28  C   UNL     1      -6.554  17.701  68.352  1.00  0.00    -0.196 C  
ENDROOT
BRANCH   6  29
HETATM   29  C   UNL     1      -9.242   9.817  70.270  1.00  0.00    -0.225 C  
BRANCH  29  30
HETATM   30  C   UNL     1      -9.502   8.803  71.346  1.00  0.00    -0.259 C  
HETATM   31  O   UNL     1      -8.955   8.870  72.441  1.00  0.00    -0.383 OA 
HETATM   32  N   UNL     1     -10.370   7.786  70.990  1.00  0.00    -0.202 N  
HETATM   33  H   UNL     1     -10.825   7.811  70.078  1.00  0.00     0.000 HD 
BRANCH  32  34
HETATM   34  C   UNL     1     -10.644   6.690  71.891  1.00  0.00    -0.211 C  
BRANCH  34  35
HETATM   35  C   UNL     1     -10.384   5.339  71.223  1.00  0.00    -0.222 C  
HETATM   36  S   UNL     1      -9.953   5.574  69.517  1.00  0.00    -0.233 S  
HETATM   37  O   UNL     1      -9.847   4.019  69.090  1.00  0.00    -0.153 OA 
HETATM   38  O   UNL     1      -8.639   6.159  69.402  1.00  0.00    -0.121 OA 
HETATM   39  O   UNL     1     -11.099   6.100  68.808  1.00  0.00    -0.344 OA 
ENDBRANCH  34  35
ENDBRANCH  32  34
ENDBRANCH  29  30
ENDBRANCH   6  29
TORSDOF 4
ENDMDL
MODEL       20
REMARK 921   NORMALIZED FREE ENERGY PREDICTED BY IDOCK:   -7.06 KCAL/MOL
REMARK 922        TOTAL FREE ENERGY PREDICTED BY IDOCK:   -9.54 KCAL/MOL
REMARK 923 INTER-LIGAND FREE ENERGY PREDICTED BY IDOCK:   -8.67 KCAL/MOL
REMARK 924 INTRA-LIGAND FREE ENERGY PREDICTED BY IDOCK:   -0.87 KCAL/MOL
REMARK 927      BINDING AFFINITY PREDICTED BY RF-SCORE:    0.00 PKD
ROOT
HETATM    1  C   UNL     1      -8.749   8.343  67.098  1.00  0.00    -0.131 C  
HETATM    2  C   UNL     1      -9.534   9.550  66.128  1.00  0.00    -0.281 C  
HETATM    3  C   UNL     1      -9.974   8.270  68.007  1.00  0.00    -0.224 C  
HETATM    4  C   UNL     1      -9.407   9.748  64.623  1.00  0.00    -0.318 C  
HETATM    5  C   UNL     1     -10.742   7.167  67.261  1.00  0.00    -0.399 C  
HETATM    6  C   UNL     1      -9.818  10.968  66.835  1.00  0.00    -0.222 C  
HETATM    7  C   UNL     1      -8.253   6.408  65.345  1.00  0.00    -0.142 C  
HETATM    8  C   UNL     1      -9.847   6.010  67.528  1.00  0.00    -0.138 C  
HETATM    9  C   UNL     1      -9.746   5.812  69.128  1.00  0.00    -0.189 C  
HETATM   10  H   UNL     1      -6.378   5.271  65.957  1.00  0.00     0.000 HD 
HETATM   11  O   UNL     1      -6.300   5.060  66.880  1.00  0.00    -0.037 OA 
HETATM   12  C   UNL     1      -8.500   6.560  66.867  1.00  0.00    -0.114 C  
HETATM   13  C   UNL     1     -11.107   5.788  69.847  1.00  0.00    -0.257 C  
HETATM   14  C   UNL     1      -7.573   5.319  67.487  1.00  0.00    -0.088 C  
HETATM   15  C   UNL     1     -10.852   6.125  71.288  1.00  0.00    -0.322 C  
HETATM   16  O   UNL     1     -12.070   6.765  69.482  1.00  0.00    -0.542 OA 
HETATM   17  C   UNL     1      -7.445   4.974  68.996  1.00  0.00    -0.065 C  
HETATM   18  C   UNL     1     -10.125   5.005  71.987  1.00  0.00    -0.255 C  
HETATM   19  C   UNL     1      -8.794   4.745  69.706  1.00  0.00    -0.128 C  
HETATM   20  H   UNL     1     -12.911   6.750  69.924  1.00  0.00     0.000 HD 
HETATM   21  C   UNL     1      -8.286   3.287  71.775  1.00  0.00    -0.061 C  
HETATM   22  C   UNL     1     -10.226   5.325  73.490  1.00  0.00    -0.229 C  
HETATM   23  C   UNL     1      -8.715   4.726  71.371  1.00  0.00    -0.143 C  
HETATM   24  C   UNL     1      -9.132   6.154  74.137  1.00  0.00    -0.134 C  
HETATM   25  C   UNL     1      -7.680   5.713  72.020  1.00  0.00    -0.102 C  
HETATM   26  H   UNL     1      -8.766   8.064  74.562  1.00  0.00     0.000 HD 
HETATM   27  O   UNL     1      -9.451   7.545  74.156  1.00  0.00    -0.227 OA 
HETATM   28  C   UNL     1      -7.751   5.903  73.560  1.00  0.00    -0.101 C  
ENDROOT
BRANCH   6  29
HETATM   29  C   UNL     1      -8.683  11.785  67.428  1.00  0.00    -0.162 C  
BRANCH  29  30
HETATM   30  C   UNL     1      -8.875  13.266  67.271  1.00  0.00    -0.216 C  
HETATM   31  O   UNL     1      -8.637  14.048  68.184  1.00  0.00    -0.165 OA 
HETATM   32  N   UNL     1      -9.367  13.660  66.039  1.00  0.00    -0.498 N  
HETATM   33  H   UNL     1      -9.504  12.964  65.307  1.00  0.00     0.000 HD 
BRANCH  32  34
HETATM   34  C   UNL     1      -9.688  15.044  65.773  1.00  0.00    -0.340 C  
BRANCH  34  35
HETATM   35  C   UNL     1     -10.865  15.168  64.806  1.00  0.00    -0.357 C  
HETATM   36  S   UNL     1     -11.552  13.567  64.469  1.00  0.00    -0.398 S  
HETATM   37  O   UNL     1     -12.661  14.015  63.383  1.00  0.00    -0.845 OA 
HETATM   38  O   UNL     1     -12.243  13.057  65.628  1.00  0.00    -0.429 OA 
HETATM   39  O   UNL     1     -10.581  12.780  63.739  1.00  0.00    -0.412 OA 
ENDBRANCH  34  35
ENDBRANCH  32  34
ENDBRANCH  29  30
ENDBRANCH   6  29
TORSDOF 4
ENDMDL
MODEL       21
REMARK 921   NORMALIZED FREE ENERGY PREDICTED BY IDOCK:   -7.05 KCAL/MOL
REMARK 922        TOTAL FREE ENERGY PREDICTED BY IDOCK:   -9.52 KCAL/MOL
REMARK 923 INTER-LIGAND FREE ENERGY PREDICTED BY IDOCK:   -8.00 KCAL/MOL
REMARK 924 INTRA-LIGAND FREE ENERGY PREDICTED BY IDOCK:   -1.52 KCAL/MOL
REMARK 927      BINDING AFFINITY PREDICTED BY RF-SCORE:    0.00 PKD
ROOT
HETATM    1  C   UNL     1     -11.129  12.726  69.812  1.00  0.00     0.130 C  
HETATM    2  C   UNL     1     -11.610  11.083  69.516  1.00  0.00    -0.384 C  
HETATM    3  C   UNL     1     -10.700  12.867  68.354  1.00  0.00    -0.273 C  
HETATM    4  C   UNL     1     -12.772  10.334  70.155  1.00  0.00    -0.089 C  
HETATM    5  C   UNL     1     -12.034  13.366  67.775  1.00  0.00    -0.363 C  
HETATM    6  C   UNL     1     -10.435  10.044  69.152  1.00  0.00    -0.238 C  
HETATM    7  C   UNL     1     -13.377  13.852  70.673  1.00  0.00     0.076 C  
HETATM    8  C   UNL     1     -12.102  14.707  68.413  1.00  0.00    -0.223 C  
HETATM    9  C   UNL     1     -10.800  15.548  67.956  1.00  0.00    -0.300 C  
HETATM   10  H   UNL     1     -12.892  15.543  72.118  1.00  0.00     0.000 HD 
HETATM   11  O   UNL     1     -12.180  16.118  71.864  1.00  0.00    -0.472 OA 
HETATM   12  C   UNL     1     -12.072  14.270  69.949  1.00  0.00    -0.404 C  
HETATM   13  C   UNL     1     -10.546  15.539  66.438  1.00  0.00    -0.311 C  
HETATM   14  C   UNL     1     -11.870  15.835  70.493  1.00  0.00    -0.375 C  
HETATM   15  C   UNL     1      -9.098  15.878  66.231  1.00  0.00    -0.379 C  
HETATM   16  O   UNL     1     -10.661  14.302  65.751  1.00  0.00    -0.288 OA 
HETATM   17  C   UNL     1     -10.705  16.775  70.077  1.00  0.00    -0.056 C  
HETATM   18  C   UNL     1      -8.823  17.320  66.571  1.00  0.00    -0.290 C  
HETATM   19  C   UNL     1     -10.548  16.947  68.554  1.00  0.00    -0.367 C  
HETATM   20  H   UNL     1     -10.504  14.296  64.813  1.00  0.00     0.000 HD 
HETATM   21  C   UNL     1      -9.314  19.187  68.200  1.00  0.00    -0.388 C  
HETATM   22  C   UNL     1      -7.422  17.616  66.007  1.00  0.00    -0.282 C  
HETATM   23  C   UNL     1      -9.116  17.650  68.072  1.00  0.00    -0.267 C  
HETATM   24  C   UNL     1      -6.213  17.397  66.898  1.00  0.00    -0.176 C  
HETATM   25  C   UNL     1      -7.849  17.278  68.922  1.00  0.00    -0.206 C  
HETATM   26  H   UNL     1      -4.890  15.961  67.286  1.00  0.00     0.000 HD 
HETATM   27  O   UNL     1      -5.647  16.098  66.728  1.00  0.00    -0.309 OA 
HETATM   28  C   UNL     1      -6.466  17.711  68.362  1.00  0.00    -0.193 C  
ENDROOT
BRANCH   6  29
HETATM   29  C   UNL     1      -9.268   9.825  70.098  1.00  0.00    -0.253 C  
BRANCH  29  30
HETATM   30  C   UNL     1      -7.939  10.158  69.485  1.00  0.00    -0.165 C  
HETATM   31  O   UNL     1      -6.927  10.283  70.165  1.00  0.00    -0.140 OA 
HETATM   32  N   UNL     1      -7.961  10.341  68.114  1.00  0.00    -0.107 N  
HETATM   33  H   UNL     1      -8.827  10.181  67.600  1.00  0.00     0.000 HD 
BRANCH  32  34
HETATM   34  C   UNL     1      -6.777  10.756  67.398  1.00  0.00    -0.076 C  
BRANCH  34  35
HETATM   35  C   UNL     1      -6.967  10.637  65.885  1.00  0.00    -0.116 C  
HETATM   36  S   UNL     1      -8.670  10.309  65.508  1.00  0.00    -0.170 S  
HETATM   37  O   UNL     1      -8.524  10.145  63.907  1.00  0.00    -0.161 OA 
HETATM   38  O   UNL     1      -9.480  11.476  65.764  1.00  0.00    -0.227 OA 
HETATM   39  O   UNL     1      -9.022   8.998  66.008  1.00  0.00    -0.160 OA 
ENDBRANCH  34  35
ENDBRANCH  32  34
ENDBRANCH  29  30
ENDBRANCH   6  29
TORSDOF 4
ENDMDL
MODEL       22
REMARK 921   NORMALIZED FREE ENERGY PREDICTED BY IDOCK:   -7.04 KCAL/MOL
REMARK 922        TOTAL FREE ENERGY PREDICTED BY IDOCK:   -9.51 KCAL/MOL
REMARK 923 INTER-LIGAND FREE ENERGY PREDICTED BY IDOCK:   -8.28 KCAL/MOL
REMARK 924 INTRA-LIGAND FREE ENERGY PREDICTED BY IDOCK:   -1.22 KCAL/MOL
REMARK 927      BINDING AFFINITY PREDICTED BY RF-SCORE:    0.00 PKD
ROOT
HETATM    1  C   UNL     1      -9.863   9.027  66.435  1.00  0.00    -0.356 C  
HETATM    2  C   UNL     1      -9.198   7.486  66.881  1.00  0.00    -0.181 C  
HETATM    3  C   UNL     1      -9.121   9.687  67.595  1.00  0.00    -0.141 C  
HETATM    4  C   UNL     1      -8.801   6.349  65.947  1.00  0.00    -0.142 C  
HETATM    5  C   UNL     1      -7.819  10.039  66.857  1.00  0.00    -0.106 C  
HETATM    6  C   UNL     1      -9.672   6.879  68.294  1.00  0.00    -0.132 C  
HETATM    7  C   UNL     1      -9.011   9.337  63.937  1.00  0.00    -0.092 C  
HETATM    8  C   UNL     1      -8.328  11.080  65.927  1.00  0.00    -0.119 C  
HETATM    9  C   UNL     1      -8.960  12.278  66.809  1.00  0.00    -0.209 C  
HETATM   10  H   UNL     1     -10.509  10.581  62.757  1.00  0.00     0.000 HD 
HETATM   11  O   UNL     1     -10.859  11.344  63.201  1.00  0.00    -0.284 OA 
HETATM   12  C   UNL     1      -9.422  10.221  65.142  1.00  0.00    -0.309 C  
HETATM   13  C   UNL     1      -8.042  12.777  67.940  1.00  0.00    -0.159 C  
HETATM   14  C   UNL     1     -10.067  11.557  64.377  1.00  0.00    -0.282 C  
HETATM   15  C   UNL     1      -8.919  13.464  68.948  1.00  0.00     0.249 C  
HETATM   16  O   UNL     1      -7.379  11.808  68.737  1.00  0.00    -0.109 OA 
HETATM   17  C   UNL     1     -10.640  12.805  65.103  1.00  0.00    -0.324 C  
HETATM   18  C   UNL     1      -9.458  14.762  68.404  1.00  0.00    -0.213 C  
HETATM   19  C   UNL     1      -9.665  13.454  66.104  1.00  0.00    -0.260 C  
HETATM   20  H   UNL     1      -6.813  12.116  69.435  1.00  0.00     0.000 HD 
HETATM   21  C   UNL     1     -10.427  15.907  66.372  1.00  0.00    -0.311 C  
HETATM   22  C   UNL     1     -10.042  15.505  69.619  1.00  0.00    -0.297 C  
HETATM   23  C   UNL     1     -10.360  14.558  67.143  1.00  0.00    -0.265 C  
HETATM   24  C   UNL     1     -11.502  15.294  69.975  1.00  0.00    -0.292 C  
HETATM   25  C   UNL     1     -11.820  14.228  67.619  1.00  0.00    -0.420 C  
HETATM   26  H   UNL     1     -12.591  14.125  71.163  1.00  0.00     0.000 HD 
HETATM   27  O   UNL     1     -11.677  14.257  70.940  1.00  0.00    -0.280 OA 
HETATM   28  C   UNL     1     -12.403  15.094  68.769  1.00  0.00     0.027 C  
ENDROOT
BRANCH   6  29
HETATM   29  C   UNL     1     -11.144   6.641  68.587  1.00  0.00    -0.288 C  
BRANCH  29  30
HETATM   30  C   UNL     1     -11.452   6.577  70.055  1.00  0.00    -0.412 C  
HETATM   31  O   UNL     1     -10.817   5.855  70.816  1.00  0.00    -0.267 OA 
HETATM   32  N   UNL     1     -12.516   7.362  70.461  1.00  0.00    -0.557 N  
HETATM   33  H   UNL     1     -12.975   7.973  69.785  1.00  0.00     0.000 HD 
BRANCH  32  34
HETATM   34  C   UNL     1     -12.986   7.333  71.826  1.00  0.00    -0.326 C  
BRANCH  34  35
HETATM   35  C   UNL     1     -13.339   8.733  72.327  1.00  0.00    -0.419 C  
HETATM   36  S   UNL     1     -12.623   9.961  71.264  1.00  0.00    -0.411 S  
HETATM   37  O   UNL     1     -13.076  11.274  72.089  1.00  0.00    -0.458 OA 
HETATM   38  O   UNL     1     -13.296   9.982  69.988  1.00  0.00     0.208 OA 
HETATM   39  O   UNL     1     -11.181   9.902  71.378  1.00  0.00    -0.348 OA 
ENDBRANCH  34  35
ENDBRANCH  32  34
ENDBRANCH  29  30
ENDBRANCH   6  29
TORSDOF 4
ENDMDL
MODEL       23
REMARK 921   NORMALIZED FREE ENERGY PREDICTED BY IDOCK:   -7.03 KCAL/MOL
REMARK 922        TOTAL FREE ENERGY PREDICTED BY IDOCK:   -9.50 KCAL/MOL
REMARK 923 INTER-LIGAND FREE ENERGY PREDICTED BY IDOCK:   -8.19 KCAL/MOL
REMARK 924 INTRA-LIGAND FREE ENERGY PREDICTED BY IDOCK:   -1.31 KCAL/MOL
REMARK 927      BINDING AFFINITY PREDICTED BY RF-SCORE:    0.00 PKD
ROOT
HETATM    1  C   UNL     1      -8.376   9.348  66.016  1.00  0.00    -0.123 C  
HETATM    2  C   UNL     1      -8.761   9.745  64.370  1.00  0.00    -0.228 C  
HETATM    3  C   UNL     1      -9.730   8.659  66.171  1.00  0.00    -0.292 C  
HETATM    4  C   UNL     1      -7.798   9.820  63.191  1.00  0.00    -0.139 C  
HETATM    5  C   UNL     1      -9.313   7.245  65.736  1.00  0.00     0.159 C  
HETATM    6  C   UNL     1      -9.971  10.782  64.144  1.00  0.00    -0.405 C  
HETATM    7  C   UNL     1      -6.152   7.914  65.773  1.00  0.00    -0.038 C  
HETATM    8  C   UNL     1      -8.428   6.880  66.874  1.00  0.00    -0.115 C  
HETATM    9  C   UNL     1      -9.302   6.949  68.232  1.00  0.00    -0.125 C  
HETATM   10  H   UNL     1      -4.851   8.183  67.622  1.00  0.00     0.000 HD 
HETATM   11  O   UNL     1      -5.303   8.158  68.457  1.00  0.00    -0.030 OA 
HETATM   12  C   UNL     1      -7.346   8.048  66.752  1.00  0.00    -0.089 C  
HETATM   13  C   UNL     1     -10.643   6.198  68.157  1.00  0.00    -0.264 C  
HETATM   14  C   UNL     1      -6.630   7.673  68.212  1.00  0.00    -0.054 C  
HETATM   15  C   UNL     1     -11.530   6.770  69.225  1.00  0.00    -0.162 C  
HETATM   16  O   UNL     1     -11.438   6.369  66.992  1.00  0.00    -0.717 OA 
HETATM   17  C   UNL     1      -7.369   7.632  69.578  1.00  0.00    -0.086 C  
HETATM   18  C   UNL     1     -11.046   6.381  70.599  1.00  0.00    -0.376 C  
HETATM   19  C   UNL     1      -8.613   6.723  69.594  1.00  0.00    -0.133 C  
HETATM   20  H   UNL     1     -12.265   5.905  66.945  1.00  0.00     0.000 HD 
HETATM   21  C   UNL     1      -9.010   6.078  72.062  1.00  0.00    -0.140 C  
HETATM   22  C   UNL     1     -12.199   6.734  71.556  1.00  0.00    -0.413 C  
HETATM   23  C   UNL     1      -9.615   6.930  70.910  1.00  0.00    -0.166 C  
HETATM   24  C   UNL     1     -12.228   8.112  72.190  1.00  0.00    -0.350 C  
HETATM   25  C   UNL     1      -9.748   8.400  71.447  1.00  0.00    -0.260 C  
HETATM   26  H   UNL     1     -13.030   9.899  71.831  1.00  0.00     0.000 HD 
HETATM   27  O   UNL     1     -13.011   9.036  71.434  1.00  0.00    -0.322 OA 
HETATM   28  C   UNL     1     -10.852   8.670  72.505  1.00  0.00    -0.210 C  
ENDROOT
BRANCH   6  29
HETATM   29  C   UNL     1      -9.934  12.170  64.761  1.00  0.00    -0.224 C  
BRANCH  29  30
HETATM   30  C   UNL     1     -11.211  12.541  65.457  1.00  0.00    -0.314 C  
HETATM   31  O   UNL     1     -12.305  12.194  65.026  1.00  0.00    -0.454 OA 
HETATM   32  N   UNL     1     -11.052  13.323  66.587  1.00  0.00    -0.287 N  
HETATM   33  H   UNL     1     -10.112  13.542  66.917  1.00  0.00     0.000 HD 
BRANCH  32  34
HETATM   34  C   UNL     1     -12.195  13.834  67.307  1.00  0.00    -0.278 C  
BRANCH  34  35
HETATM   35  C   UNL     1     -12.156  13.427  68.780  1.00  0.00    -0.246 C  
HETATM   36  S   UNL     1     -11.488  11.790  68.944  1.00  0.00    -0.326 S  
HETATM   37  O   UNL     1     -11.670  11.625  70.541  1.00  0.00    -0.292 OA 
HETATM   38  O   UNL     1     -10.075  11.788  68.653  1.00  0.00    -0.216 OA 
HETATM   39  O   UNL     1     -12.404  10.844  68.344  1.00  0.00    -0.477 OA 
ENDBRANCH  34  35
ENDBRANCH  32  34
ENDBRANCH  29  30
ENDBRANCH   6  29
TORSDOF 4
ENDMDL
MODEL       24
REMARK 921   NORMALIZED FREE ENERGY PREDICTED BY IDOCK:   -7.01 KCAL/MOL
REMARK 922        TOTAL FREE ENERGY PREDICTED BY IDOCK:   -9.47 KCAL/MOL
REMARK 923 INTER-LIGAND FREE ENERGY PREDICTED BY IDOCK:   -8.70 KCAL/MOL
REMARK 924 INTRA-LIGAND FREE ENERGY PREDICTED BY IDOCK:   -0.77 KCAL/MOL
REMARK 927      BINDING AFFINITY PREDICTED BY RF-SCORE:    0.00 PKD
ROOT
HETATM    1  C   UNL     1      -9.378  10.249  66.791  1.00  0.00    -0.187 C  
HETATM    2  C   UNL     1     -10.251  10.866  65.422  1.00  0.00    -0.339 C  
HETATM    3  C   UNL     1     -10.506   9.259  67.070  1.00  0.00    -0.303 C  
HETATM    4  C   UNL     1      -9.668  11.384  64.113  1.00  0.00    -0.267 C  
HETATM    5  C   UNL     1      -9.993   8.087  66.218  1.00  0.00    -0.116 C  
HETATM    6  C   UNL     1     -11.632  11.631  65.735  1.00  0.00    -0.088 C  
HETATM    7  C   UNL     1      -7.095   9.424  65.710  1.00  0.00    -0.091 C  
HETATM    8  C   UNL     1      -8.787   7.712  67.003  1.00  0.00    -0.135 C  
HETATM    9  C   UNL     1      -9.262   7.317  68.496  1.00  0.00    -0.138 C  
HETATM   10  H   UNL     1      -5.409   9.606  67.228  1.00  0.00     0.000 HD 
HETATM   11  O   UNL     1      -5.609   9.317  68.111  1.00  0.00    -0.038 OA 
HETATM   12  C   UNL     1      -7.987   9.093  66.933  1.00  0.00    -0.105 C  
HETATM   13  C   UNL     1     -10.431   6.316  68.541  1.00  0.00    -0.229 C  
HETATM   14  C   UNL     1      -6.853   8.607  68.057  1.00  0.00    -0.070 C  
HETATM   15  C   UNL     1     -11.079   6.454  69.888  1.00  0.00    -0.444 C  
HETATM   16  O   UNL     1     -11.526   6.531  67.663  1.00  0.00    -0.694 OA 
HETATM   17  C   UNL     1      -7.180   8.135  69.501  1.00  0.00    -0.073 C  
HETATM   18  C   UNL     1     -10.186   5.921  70.979  1.00  0.00    -0.266 C  
HETATM   19  C   UNL     1      -8.206   6.987  69.570  1.00  0.00    -0.132 C  
HETATM   20  H   UNL     1     -12.246   5.912  67.689  1.00  0.00     0.000 HD 
HETATM   21  C   UNL     1      -7.811   5.797  71.828  1.00  0.00    -0.106 C  
HETATM   22  C   UNL     1     -11.082   5.812  72.227  1.00  0.00    -0.330 C  
HETATM   23  C   UNL     1      -8.836   6.702  71.087  1.00  0.00    -0.137 C  
HETATM   24  C   UNL     1     -11.168   6.997  73.171  1.00  0.00    -0.154 C  
HETATM   25  C   UNL     1      -9.062   7.971  71.985  1.00  0.00    -0.217 C  
HETATM   26  H   UNL     1     -12.322   8.595  73.452  1.00  0.00     0.000 HD 
HETATM   27  O   UNL     1     -12.268   7.853  72.861  1.00  0.00    -0.138 OA 
HETATM   28  C   UNL     1      -9.871   7.775  73.297  1.00  0.00    -0.362 C  
ENDROOT
BRANCH   6  29
HETATM   29  C   UNL     1     -11.662  12.843  66.651  1.00  0.00    -0.452 C  
BRANCH  29  30
HETATM   30  C   UNL     1     -11.759  14.144  65.907  1.00  0.00    -0.365 C  
HETATM   31  O   UNL     1     -12.701  14.393  65.165  1.00  0.00    -0.549 OA 
HETATM   32  N   UNL     1     -10.696  15.007  66.104  1.00  0.00    -0.318 N  
HETATM   33  H   UNL     1      -9.963  14.757  66.769  1.00  0.00     0.000 HD 
BRANCH  32  34
HETATM   34  C   UNL     1     -10.606  16.256  65.384  1.00  0.00    -0.352 C  
BRANCH  34  35
HETATM   35  C   UNL     1     -10.417  17.438  66.335  1.00  0.00    -0.267 C  
HETATM   36  S   UNL     1     -10.359  16.867  68.014  1.00  0.00    -0.350 S  
HETATM   37  O   UNL     1     -10.260  18.305  68.744  1.00  0.00    -0.378 OA 
HETATM   38  O   UNL     1      -9.129  16.154  68.265  1.00  0.00    -0.184 OA 
HETATM   39  O   UNL     1     -11.653  16.330  68.377  1.00  0.00    -0.327 OA 
ENDBRANCH  34  35
ENDBRANCH  32  34
ENDBRANCH  29  30
ENDBRANCH   6  29
TORSDOF 4
ENDMDL
MODEL       25
REMARK 921   NORMALIZED FREE ENERGY PREDICTED BY IDOCK:   -7.00 KCAL/MOL
REMARK 922        TOTAL FREE ENERGY PREDICTED BY IDOCK:   -9.47 KCAL/MOL
REMARK 923 INTER-LIGAND FREE ENERGY PREDICTED BY IDOCK:   -8.07 KCAL/MOL
REMARK 924 INTRA-LIGAND FREE ENERGY PREDICTED BY IDOCK:   -1.40 KCAL/MOL
REMARK 927      BINDING AFFINITY PREDICTED BY RF-SCORE:    0.00 PKD
ROOT
HETATM    1  C   UNL     1      -9.048   9.701  67.497  1.00  0.00    -0.142 C  
HETATM    2  C   UNL     1     -10.019  10.695  66.455  1.00  0.00    -0.265 C  
HETATM    3  C   UNL     1     -10.308   9.027  68.035  1.00  0.00    -0.275 C  
HETATM    4  C   UNL     1      -9.661  11.192  65.061  1.00  0.00    -0.298 C  
HETATM    5  C   UNL     1     -10.396   7.874  67.023  1.00  0.00    -0.411 C  
HETATM    6  C   UNL     1     -10.987  11.761  67.175  1.00  0.00    -0.326 C  
HETATM    7  C   UNL     1      -7.462   8.428  65.787  1.00  0.00    -0.077 C  
HETATM    8  C   UNL     1      -9.196   7.093  67.423  1.00  0.00    -0.137 C  
HETATM    9  C   UNL     1      -9.370   6.660  68.970  1.00  0.00    -0.133 C  
HETATM   10  H   UNL     1      -5.469   7.959  66.782  1.00  0.00     0.000 HD 
HETATM   11  O   UNL     1      -5.514   7.628  67.671  1.00  0.00    -0.029 OA 
HETATM   12  C   UNL     1      -8.070   8.203  67.195  1.00  0.00    -0.116 C  
HETATM   13  C   UNL     1     -10.730   6.015  69.294  1.00  0.00    -0.332 C  
HETATM   14  C   UNL     1      -6.883   7.293  67.935  1.00  0.00    -0.070 C  
HETATM   15  C   UNL     1     -10.945   6.157  70.773  1.00  0.00    -0.365 C  
HETATM   16  O   UNL     1     -11.899   6.624  68.766  1.00  0.00    -0.379 OA 
HETATM   17  C   UNL     1      -6.956   6.753  69.390  1.00  0.00    -0.067 C  
HETATM   18  C   UNL     1     -10.002   5.271  71.546  1.00  0.00    -0.241 C  
HETATM   19  C   UNL     1      -8.221   5.927  69.691  1.00  0.00    -0.110 C  
HETATM   20  H   UNL     1     -12.738   6.226  68.965  1.00  0.00     0.000 HD 
HETATM   21  C   UNL     1      -7.634   4.406  71.693  1.00  0.00    -0.074 C  
HETATM   22  C   UNL     1     -10.542   5.256  72.988  1.00  0.00    -0.278 C  
HETATM   23  C   UNL     1      -8.500   5.638  71.309  1.00  0.00    -0.128 C  
HETATM   24  C   UNL     1     -10.033   6.295  73.971  1.00  0.00    -0.261 C  
HETATM   25  C   UNL     1      -8.108   6.800  72.291  1.00  0.00    -0.099 C  
HETATM   26  H   UNL     1     -10.556   8.098  74.634  1.00  0.00     0.000 HD 
HETATM   27  O   UNL     1     -10.873   7.448  74.019  1.00  0.00    -0.176 OA 
HETATM   28  C   UNL     1      -8.577   6.671  73.766  1.00  0.00    -0.143 C  
ENDROOT
BRANCH   6  29
HETATM   29  C   UNL     1     -10.425  12.813  68.116  1.00  0.00    -0.244 C  
BRANCH  29  30
HETATM   30  C   UNL     1     -11.455  13.381  69.049  1.00  0.00    -0.301 C  
HETATM   31  O   UNL     1     -12.081  14.399  68.776  1.00  0.00    -0.308 OA 
HETATM   32  N   UNL     1     -11.609  12.689  70.237  1.00  0.00    -0.538 N  
HETATM   33  H   UNL     1     -11.087  11.824  70.385  1.00  0.00     0.000 HD 
BRANCH  32  34
HETATM   34  C   UNL     1     -12.496  13.169  71.271  1.00  0.00    -0.232 C  
BRANCH  34  35
HETATM   35  C   UNL     1     -13.223  12.017  71.964  1.00  0.00    -0.375 C  
HETATM   36  S   UNL     1     -12.776  10.472  71.213  1.00  0.00    -0.462 S  
HETATM   37  O   UNL     1     -13.750   9.508  72.069  1.00  0.00    -0.395 OA 
HETATM   38  O   UNL     1     -11.412  10.128  71.534  1.00  0.00    -0.283 OA 
HETATM   39  O   UNL     1     -13.284  10.440  69.858  1.00  0.00     0.001 OA 
ENDBRANCH  34  35
ENDBRANCH  32  34
ENDBRANCH  29  30
ENDBRANCH   6  29
TORSDOF 4
ENDMDL
MODEL       26
REMARK 921   NORMALIZED FREE ENERGY PREDICTED BY IDOCK:   -7.00 KCAL/MOL
REMARK 922        TOTAL FREE ENERGY PREDICTED BY IDOCK:   -9.46 KCAL/MOL
REMARK 923 INTER-LIGAND FREE ENERGY PREDICTED BY IDOCK:   -8.41 KCAL/MOL
REMARK 924 INTRA-LIGAND FREE ENERGY PREDICTED BY IDOCK:   -1.05 KCAL/MOL
REMARK 927      BINDING AFFINITY PREDICTED BY RF-SCORE:    0.00 PKD
ROOT
HETATM    1  C   UNL     1      -7.947   8.028  66.234  1.00  0.00    -0.105 C  
HETATM    2  C   UNL     1      -8.356   8.504  64.614  1.00  0.00    -0.156 C  
HETATM    3  C   UNL     1      -9.423   7.784  66.539  1.00  0.00    -0.262 C  
HETATM    4  C   UNL     1      -7.537   8.271  63.351  1.00  0.00    -0.131 C  
HETATM    5  C   UNL     1      -9.496   6.305  66.126  1.00  0.00    -0.092 C  
HETATM    6  C   UNL     1      -9.213   9.857  64.457  1.00  0.00    -0.315 C  
HETATM    7  C   UNL     1      -6.293   5.984  65.848  1.00  0.00    -0.042 C  
HETATM    8  C   UNL     1      -8.655   5.702  67.192  1.00  0.00    -0.109 C  
HETATM    9  C   UNL     1      -9.328   6.048  68.620  1.00  0.00    -0.121 C  
HETATM   10  H   UNL     1      -4.796   5.866  67.558  1.00  0.00     0.000 HD 
HETATM   11  O   UNL     1      -5.149   5.988  68.432  1.00  0.00    -0.003 OA 
HETATM   12  C   UNL     1      -7.288   6.485  66.925  1.00  0.00    -0.079 C  
HETATM   13  C   UNL     1     -10.834   5.738  68.698  1.00  0.00    -0.200 C  
HETATM   14  C   UNL     1      -6.578   5.926  68.328  1.00  0.00    -0.052 C  
HETATM   15  C   UNL     1     -11.397   6.564  69.818  1.00  0.00    -0.456 C  
HETATM   16  O   UNL     1     -11.651   6.129  67.604  1.00  0.00    -0.425 OA 
HETATM   17  C   UNL     1      -7.156   6.126  69.756  1.00  0.00    -0.072 C  
HETATM   18  C   UNL     1     -10.919   6.062  71.157  1.00  0.00    -0.341 C  
HETATM   19  C   UNL     1      -8.608   5.639  69.921  1.00  0.00    -0.125 C  
HETATM   20  H   UNL     1     -12.580   5.938  67.651  1.00  0.00     0.000 HD 
HETATM   21  C   UNL     1      -8.934   5.172  72.440  1.00  0.00    -0.138 C  
HETATM   22  C   UNL     1     -11.812   6.759  72.200  1.00  0.00    -0.326 C  
HETATM   23  C   UNL     1      -9.365   6.154  71.314  1.00  0.00    -0.170 C  
HETATM   24  C   UNL     1     -11.362   8.088  72.777  1.00  0.00    -0.374 C  
HETATM   25  C   UNL     1      -8.996   7.601  71.801  1.00  0.00    -0.145 C  
HETATM   26  H   UNL     1     -11.620  10.030  72.421  1.00  0.00     0.000 HD 
HETATM   27  O   UNL     1     -11.902   9.197  72.059  1.00  0.00    -0.365 OA 
HETATM   28  C   UNL     1      -9.858   8.206  72.943  1.00  0.00    -0.339 C  
ENDROOT
BRANCH   6  29
HETATM   29  C   UNL     1      -8.700  11.174  65.012  1.00  0.00     0.040 C  
BRANCH  29  30
HETATM   30  C   UNL     1      -9.582  11.750  66.082  1.00  0.00    -0.232 C  
HETATM   31  O   UNL     1      -9.251  11.747  67.261  1.00  0.00    -0.167 OA 
HETATM   32  N   UNL     1     -10.794  12.244  65.632  1.00  0.00    -0.276 N  
HETATM   33  H   UNL     1     -10.991  12.255  64.631  1.00  0.00     0.000 HD 
BRANCH  32  34
HETATM   34  C   UNL     1     -11.784  12.745  66.557  1.00  0.00    -0.400 C  
BRANCH  34  35
HETATM   35  C   UNL     1     -12.540  13.939  65.976  1.00  0.00    -0.423 C  
HETATM   36  S   UNL     1     -11.911  14.334  64.363  1.00  0.00    -0.428 S  
HETATM   37  O   UNL     1     -12.810  15.646  64.080  1.00  0.00    -0.561 OA 
HETATM   38  O   UNL     1     -12.290  13.319  63.410  1.00  0.00    -0.726 OA 
HETATM   39  O   UNL     1     -10.550  14.808  64.489  1.00  0.00    -0.293 OA 
ENDBRANCH  34  35
ENDBRANCH  32  34
ENDBRANCH  29  30
ENDBRANCH   6  29
TORSDOF 4
ENDMDL
MODEL       27
REMARK 921   NORMALIZED FREE ENERGY PREDICTED BY IDOCK:   -6.91 KCAL/MOL
REMARK 922        TOTAL FREE ENERGY PREDICTED BY IDOCK:   -9.35 KCAL/MOL
REMARK 923 INTER-LIGAND FREE ENERGY PREDICTED BY IDOCK:   -8.64 KCAL/MOL
REMARK 924 INTRA-LIGAND FREE ENERGY PREDICTED BY IDOCK:   -0.71 KCAL/MOL
REMARK 927      BINDING AFFINITY PREDICTED BY RF-SCORE:    0.00 PKD
ROOT
HETATM    1  C   UNL     1     -10.559  10.176  70.504  1.00  0.00    -0.243 C  
HETATM    2  C   UNL     1     -10.379   8.455  70.363  1.00  0.00    -0.219 C  
HETATM    3  C   UNL     1     -10.078  10.349  69.065  1.00  0.00    -0.227 C  
HETATM    4  C   UNL     1     -11.242   7.381  71.014  1.00  0.00    -0.285 C  
HETATM    5  C   UNL     1     -11.443  10.267  68.361  1.00  0.00    -0.163 C  
HETATM    6  C   UNL     1      -8.879   7.901  70.180  1.00  0.00    -0.144 C  
HETATM    7  C   UNL     1     -13.132  10.452  71.110  1.00  0.00    -0.474 C  
HETATM    8  C   UNL     1     -12.053  11.534  68.844  1.00  0.00    -0.270 C  
HETATM    9  C   UNL     1     -11.112  12.758  68.371  1.00  0.00    -0.293 C  
HETATM   10  H   UNL     1     -13.431  12.313  72.386  1.00  0.00     0.000 HD 
HETATM   11  O   UNL     1     -12.957  13.089  72.110  1.00  0.00    -0.321 OA 
HETATM   12  C   UNL     1     -12.008  11.265  70.418  1.00  0.00    -0.471 C  
HETATM   13  C   UNL     1     -10.733  12.722  66.880  1.00  0.00    -0.253 C  
HETATM   14  C   UNL     1     -12.441  12.831  70.798  1.00  0.00    -0.271 C  
HETATM   15  C   UNL     1      -9.495  13.556  66.718  1.00  0.00    -0.272 C  
HETATM   16  O   UNL     1     -10.325  11.479  66.327  1.00  0.00    -0.225 OA 
HETATM   17  C   UNL     1     -11.665  14.100  70.348  1.00  0.00    -0.312 C  
HETATM   18  C   UNL     1      -9.797  15.020  66.914  1.00  0.00    -0.244 C  
HETATM   19  C   UNL     1     -11.443  14.194  68.826  1.00  0.00    -0.333 C  
HETATM   20  H   UNL     1     -10.091  11.456  65.406  1.00  0.00     0.000 HD 
HETATM   21  C   UNL     1     -11.082  16.696  68.299  1.00  0.00    -0.295 C  
HETATM   22  C   UNL     1      -8.554  15.769  66.400  1.00  0.00    -0.346 C  
HETATM   23  C   UNL     1     -10.327  15.338  68.351  1.00  0.00    -0.227 C  
HETATM   24  C   UNL     1      -7.436  16.088  67.375  1.00  0.00    -0.178 C  
HETATM   25  C   UNL     1      -9.095  15.533  69.306  1.00  0.00    -0.266 C  
HETATM   26  H   UNL     1      -5.723  15.282  67.991  1.00  0.00     0.000 HD 
HETATM   27  O   UNL     1      -6.423  15.083  67.380  1.00  0.00    -0.286 OA 
HETATM   28  C   UNL     1      -7.920  16.402  68.779  1.00  0.00    -0.233 C  
ENDROOT
BRANCH   6  29
HETATM   29  C   UNL     1      -7.804   8.208  71.208  1.00  0.00    -0.102 C  
BRANCH  29  30
HETATM   30  C   UNL     1      -8.173   7.773  72.597  1.00  0.00    -0.130 C  
HETATM   31  O   UNL     1      -8.302   8.578  73.512  1.00  0.00    -0.381 OA 
HETATM   32  N   UNL     1      -8.319   6.407  72.759  1.00  0.00    -0.118 N  
HETATM   33  H   UNL     1      -8.239   5.794  71.948  1.00  0.00     0.000 HD 
BRANCH  32  34
HETATM   34  C   UNL     1      -8.582   5.834  74.059  1.00  0.00    -0.116 C  
BRANCH  34  35
HETATM   35  C   UNL     1      -8.994   4.366  73.951  1.00  0.00    -0.102 C  
HETATM   36  S   UNL     1     -10.377   4.199  72.850  1.00  0.00    -0.177 S  
HETATM   37  O   UNL     1     -10.622   2.612  73.026  1.00  0.00    -0.151 OA 
HETATM   38  O   UNL     1      -9.970   4.439  71.486  1.00  0.00    -0.180 OA 
HETATM   39  O   UNL     1     -11.531   4.844  73.438  1.00  0.00    -0.336 OA 
ENDBRANCH  34  35
ENDBRANCH  32  34
ENDBRANCH  29  30
ENDBRANCH   6  29
TORSDOF 4
ENDMDL
MODEL       28
REMARK 921   NORMALIZED FREE ENERGY PREDICTED BY IDOCK:   -6.87 KCAL/MOL
REMARK 922        TOTAL FREE ENERGY PREDICTED BY IDOCK:   -9.30 KCAL/MOL
REMARK 923 INTER-LIGAND FREE ENERGY PREDICTED BY IDOCK:   -8.31 KCAL/MOL
REMARK 924 INTRA-LIGAND FREE ENERGY PREDICTED BY IDOCK:   -0.99 KCAL/MOL
REMARK 927      BINDING AFFINITY PREDICTED BY RF-SCORE:    0.00 PKD
ROOT
HETATM    1  C   UNL     1      -9.518  10.806  66.823  1.00  0.00    -0.198 C  
HETATM    2  C   UNL     1     -10.468  11.393  65.494  1.00  0.00    -0.322 C  
HETATM    3  C   UNL     1     -10.577   9.746  67.117  1.00  0.00    -0.298 C  
HETATM    4  C   UNL     1      -9.957  11.968  64.178  1.00  0.00    -0.289 C  
HETATM    5  C   UNL     1     -10.021   8.621  66.228  1.00  0.00    -0.287 C  
HETATM    6  C   UNL     1     -11.882  12.069  65.863  1.00  0.00    -0.232 C  
HETATM    7  C   UNL     1      -7.225  10.137  65.659  1.00  0.00    -0.137 C  
HETATM    8  C   UNL     1      -8.772   8.306  66.969  1.00  0.00    -0.132 C  
HETATM    9  C   UNL     1      -9.176   7.857  68.468  1.00  0.00    -0.138 C  
HETATM   10  H   UNL     1      -5.506  10.393  67.129  1.00  0.00     0.000 HD 
HETATM   11  O   UNL     1      -5.661  10.077  68.012  1.00  0.00    -0.039 OA 
HETATM   12  C   UNL     1      -8.057   9.732  66.902  1.00  0.00    -0.113 C  
HETATM   13  C   UNL     1     -10.282   6.787  68.528  1.00  0.00    -0.175 C  
HETATM   14  C   UNL     1      -6.862   9.295  67.982  1.00  0.00    -0.068 C  
HETATM   15  C   UNL     1     -10.895   6.863  69.897  1.00  0.00    -0.294 C  
HETATM   16  O   UNL     1     -11.414   6.951  67.688  1.00  0.00    -0.585 OA 
HETATM   17  C   UNL     1      -7.116   8.779  69.425  1.00  0.00    -0.057 C  
HETATM   18  C   UNL     1      -9.939   6.365  70.950  1.00  0.00    -0.211 C  
HETATM   19  C   UNL     1      -8.069   7.572  69.503  1.00  0.00    -0.128 C  
HETATM   20  H   UNL     1     -12.096   6.291  67.724  1.00  0.00     0.000 HD 
HETATM   21  C   UNL     1      -7.535   6.368  71.725  1.00  0.00    -0.093 C  
HETATM   22  C   UNL     1     -10.787   6.181  72.221  1.00  0.00    -0.284 C  
HETATM   23  C   UNL     1      -8.634   7.223  71.032  1.00  0.00    -0.128 C  
HETATM   24  C   UNL     1     -10.914   7.342  73.190  1.00  0.00    -0.359 C  
HETATM   25  C   UNL     1      -8.907   8.460  71.961  1.00  0.00    -0.277 C  
HETATM   26  H   UNL     1     -12.151   8.863  73.537  1.00  0.00     0.000 HD 
HETATM   27  O   UNL     1     -12.071   8.137  72.930  1.00  0.00    -0.278 OA 
HETATM   28  C   UNL     1      -9.662   8.194  73.293  1.00  0.00    -0.226 C  
ENDROOT
BRANCH   6  29
HETATM   29  C   UNL     1     -11.954  13.261  66.802  1.00  0.00    -0.438 C  
BRANCH  29  30
HETATM   30  C   UNL     1     -11.572  14.556  66.145  1.00  0.00    -0.365 C  
HETATM   31  O   UNL     1     -11.901  14.816  64.993  1.00  0.00    -0.369 OA 
HETATM   32  N   UNL     1     -10.804  15.400  66.926  1.00  0.00    -0.316 N  
HETATM   33  H   UNL     1     -10.600  15.143  67.892  1.00  0.00     0.000 HD 
BRANCH  32  34
HETATM   34  C   UNL     1     -10.285  16.640  66.396  1.00  0.00    -0.315 C  
BRANCH  34  35
HETATM   35  C   UNL     1      -8.779  16.555  66.146  1.00  0.00    -0.300 C  
HETATM   36  S   UNL     1      -8.007  15.560  67.396  1.00  0.00    -0.203 S  
HETATM   37  O   UNL     1      -6.473  15.746  66.925  1.00  0.00    -0.278 OA 
HETATM   38  O   UNL     1      -8.360  14.171  67.229  1.00  0.00    -0.188 OA 
HETATM   39  O   UNL     1      -8.111  16.237  68.671  1.00  0.00    -0.188 OA 
ENDBRANCH  34  35
ENDBRANCH  32  34
ENDBRANCH  29  30
ENDBRANCH   6  29
TORSDOF 4
ENDMDL
MODEL       29
REMARK 921   NORMALIZED FREE ENERGY PREDICTED BY IDOCK:   -6.87 KCAL/MOL
REMARK 922        TOTAL FREE ENERGY PREDICTED BY IDOCK:   -9.30 KCAL/MOL
REMARK 923 INTER-LIGAND FREE ENERGY PREDICTED BY IDOCK:   -8.97 KCAL/MOL
REMARK 924 INTRA-LIGAND FREE ENERGY PREDICTED BY IDOCK:   -0.33 KCAL/MOL
REMARK 927      BINDING AFFINITY PREDICTED BY RF-SCORE:    0.00 PKD
ROOT
HETATM    1  C   UNL     1     -11.533  10.183  69.524  1.00  0.00    -0.227 C  
HETATM    2  C   UNL     1     -11.376  11.911  69.598  1.00  0.00    -0.266 C  
HETATM    3  C   UNL     1     -10.069  10.065  69.108  1.00  0.00    -0.219 C  
HETATM    4  C   UNL     1     -12.074  12.859  70.566  1.00  0.00    -0.364 C  
HETATM    5  C   UNL     1      -9.446   9.944  70.508  1.00  0.00    -0.000 C  
HETATM    6  C   UNL     1     -11.104  12.670  68.205  1.00  0.00    -0.285 C  
HETATM    7  C   UNL     1     -12.290   9.553  71.992  1.00  0.00    -0.404 C  
HETATM    8  C   UNL     1      -9.968   8.610  70.904  1.00  0.00    -0.257 C  
HETATM    9  C   UNL     1      -9.444   7.525  69.827  1.00  0.00    -0.156 C  
HETATM   10  H   UNL     1     -13.587   7.683  71.950  1.00  0.00     0.000 HD 
HETATM   11  O   UNL     1     -13.286   6.978  71.387  1.00  0.00    -0.354 OA 
HETATM   12  C   UNL     1     -11.536   8.899  70.806  1.00  0.00    -0.301 C  
HETATM   13  C   UNL     1      -7.933   7.599  69.544  1.00  0.00    -0.125 C  
HETATM   14  C   UNL     1     -11.945   7.292  70.989  1.00  0.00    -0.327 C  
HETATM   15  C   UNL     1      -7.701   6.946  68.212  1.00  0.00    -0.113 C  
HETATM   16  O   UNL     1      -7.353   8.880  69.349  1.00  0.00    -0.072 OA 
HETATM   17  C   UNL     1     -11.453   6.141  70.069  1.00  0.00    -0.369 C  
HETATM   18  C   UNL     1      -7.918   5.457  68.291  1.00  0.00    -0.088 C  
HETATM   19  C   UNL     1      -9.921   6.062  69.924  1.00  0.00    -0.225 C  
HETATM   20  H   UNL     1      -6.420   8.926  69.175  1.00  0.00     0.000 HD 
HETATM   21  C   UNL     1      -9.381   3.631  69.243  1.00  0.00    -0.245 C  
HETATM   22  C   UNL     1      -7.334   4.885  66.986  1.00  0.00    -0.082 C  
HETATM   23  C   UNL     1      -9.385   5.083  68.686  1.00  0.00    -0.173 C  
HETATM   24  C   UNL     1      -8.243   4.739  65.780  1.00  0.00    -0.112 C  
HETATM   25  C   UNL     1     -10.267   5.074  67.386  1.00  0.00    -0.201 C  
HETATM   26  H   UNL     1      -8.754   5.785  64.165  1.00  0.00     0.000 HD 
HETATM   27  O   UNL     1      -8.186   5.877  64.921  1.00  0.00    -0.132 OA 
HETATM   28  C   UNL     1      -9.674   4.375  66.132  1.00  0.00    -0.220 C  
ENDROOT
BRANCH   6  29
HETATM   29  C   UNL     1     -12.069  12.530  67.040  1.00  0.00    -0.147 C  
BRANCH  29  30
HETATM   30  C   UNL     1     -12.062  13.717  66.120  1.00  0.00    -0.436 C  
HETATM   31  O   UNL     1     -13.013  13.973  65.391  1.00  0.00    -0.726 OA 
HETATM   32  N   UNL     1     -10.897  14.463  66.143  1.00  0.00    -0.304 N  
HETATM   33  H   UNL     1     -10.159  14.221  66.804  1.00  0.00     0.000 HD 
BRANCH  32  34
HETATM   34  C   UNL     1     -10.709  15.580  65.246  1.00  0.00    -0.422 C  
BRANCH  34  35
HETATM   35  C   UNL     1      -9.549  16.469  65.695  1.00  0.00    -0.028 C  
HETATM   36  S   UNL     1     -10.170  17.978  66.392  1.00  0.00    -0.381 S  
HETATM   37  O   UNL     1      -8.754  18.708  66.661  1.00  0.00    -0.284 OA 
HETATM   38  O   UNL     1     -10.793  17.727  67.670  1.00  0.00    -0.363 OA 
HETATM   39  O   UNL     1     -10.819  18.748  65.353  1.00  0.00    -0.563 OA 
ENDBRANCH  34  35
ENDBRANCH  32  34
ENDBRANCH  29  30
ENDBRANCH   6  29
TORSDOF 4
ENDMDL
MODEL       30
REMARK 921   NORMALIZED FREE ENERGY PREDICTED BY IDOCK:   -6.79 KCAL/MOL
REMARK 922        TOTAL FREE ENERGY PREDICTED BY IDOCK:   -9.20 KCAL/MOL
REMARK 923 INTER-LIGAND FREE ENERGY PREDICTED BY IDOCK:   -8.47 KCAL/MOL
REMARK 924 INTRA-LIGAND FREE ENERGY PREDICTED BY IDOCK:   -0.73 KCAL/MOL
REMARK 927      BINDING AFFINITY PREDICTED BY RF-SCORE:    0.00 PKD
ROOT
HETATM    1  C   UNL     1      -9.186  12.603  66.375  1.00  0.00    -0.162 C  
HETATM    2  C   UNL     1     -10.177  11.248  65.930  1.00  0.00    -0.298 C  
HETATM    3  C   UNL     1     -10.437  13.433  66.649  1.00  0.00    -0.280 C  
HETATM    4  C   UNL     1      -9.878   9.772  66.161  1.00  0.00    -0.329 C  
HETATM    5  C   UNL     1     -10.618  13.082  68.135  1.00  0.00    -0.257 C  
HETATM    6  C   UNL     1     -11.068  11.414  64.600  1.00  0.00    -0.277 C  
HETATM    7  C   UNL     1      -7.738  11.639  68.384  1.00  0.00    -0.130 C  
HETATM    8  C   UNL     1      -9.426  13.764  68.704  1.00  0.00    -0.099 C  
HETATM    9  C   UNL     1      -9.532  15.338  68.354  1.00  0.00    -0.206 C  
HETATM   10  H   UNL     1      -5.712  12.675  68.444  1.00  0.00     0.000 HD 
HETATM   11  O   UNL     1      -5.720  13.616  68.319  1.00  0.00    -0.085 OA 
HETATM   12  C   UNL     1      -8.277  13.007  67.892  1.00  0.00    -0.166 C  
HETATM   13  C   UNL     1     -10.894  15.969  68.698  1.00  0.00    -0.301 C  
HETATM   14  C   UNL     1      -7.083  14.049  68.416  1.00  0.00    -0.102 C  
HETATM   15  C   UNL     1     -11.024  17.215  67.871  1.00  0.00    -0.208 C  
HETATM   16  O   UNL     1     -12.068  15.254  68.341  1.00  0.00    -0.552 OA 
HETATM   17  C   UNL     1      -7.097  15.589  68.210  1.00  0.00    -0.116 C  
HETATM   18  C   UNL     1     -10.072  18.283  68.343  1.00  0.00    -0.412 C  
HETATM   19  C   UNL     1      -8.372  16.282  68.729  1.00  0.00    -0.235 C  
HETATM   20  H   UNL     1     -12.908  15.643  68.554  1.00  0.00     0.000 HD 
HETATM   21  C   UNL     1      -7.730  18.744  69.170  1.00  0.00    -0.144 C  
HETATM   22  C   UNL     1     -10.534  19.580  67.654  1.00  0.00    -0.593 C  
HETATM   23  C   UNL     1      -8.573  17.854  68.213  1.00  0.00    -0.277 C  
HETATM   24  C   UNL     1      -9.938  19.945  66.307  1.00  0.00    -0.486 C  
HETATM   25  C   UNL     1      -8.089  18.164  66.751  1.00  0.00    -0.266 C  
HETATM   26  H   UNL     1     -10.362  19.702  64.377  1.00  0.00     0.000 HD 
HETATM   27  O   UNL     1     -10.734  19.473  65.221  1.00  0.00    -0.408 OA 
HETATM   28  C   UNL     1      -8.483  19.542  66.152  1.00  0.00    -0.329 C  
ENDROOT
BRANCH   6  29
HETATM   29  C   UNL     1     -10.421  11.734  63.263  1.00  0.00    -0.439 C  
BRANCH  29  30
HETATM   30  C   UNL     1      -9.344  10.761  62.879  1.00  0.00    -0.338 C  
HETATM   31  O   UNL     1      -9.607   9.648  62.441  1.00  0.00    -0.119 OA 
HETATM   32  N   UNL     1      -8.053  11.210  63.092  1.00  0.00    -0.366 N  
HETATM   33  H   UNL     1      -7.900  12.164  63.420  1.00  0.00     0.000 HD 
BRANCH  32  34
HETATM   34  C   UNL     1      -6.916  10.350  62.856  1.00  0.00    -0.098 C  
BRANCH  34  35
HETATM   35  C   UNL     1      -6.412   9.719  64.154  1.00  0.00    -0.119 C  
HETATM   36  S   UNL     1      -6.540   7.951  64.065  1.00  0.00    -0.062 S  
HETATM   37  O   UNL     1      -6.047   7.608  65.565  1.00  0.00    -0.038 OA 
HETATM   38  O   UNL     1      -5.566   7.419  63.142  1.00  0.00    -0.043 OA 
HETATM   39  O   UNL     1      -7.937   7.579  64.015  1.00  0.00    -0.133 OA 
ENDBRANCH  34  35
ENDBRANCH  32  34
ENDBRANCH  29  30
ENDBRANCH   6  29
TORSDOF 4
ENDMDL
MODEL       31
REMARK 921   NORMALIZED FREE ENERGY PREDICTED BY IDOCK:   -6.73 KCAL/MOL
REMARK 922        TOTAL FREE ENERGY PREDICTED BY IDOCK:   -9.12 KCAL/MOL
REMARK 923 INTER-LIGAND FREE ENERGY PREDICTED BY IDOCK:   -7.93 KCAL/MOL
REMARK 924 INTRA-LIGAND FREE ENERGY PREDICTED BY IDOCK:   -1.19 KCAL/MOL
REMARK 927      BINDING AFFINITY PREDICTED BY RF-SCORE:    0.00 PKD
ROOT
HETATM    1  C   UNL     1      -9.523  10.529  67.990  1.00  0.00    -0.157 C  
HETATM    2  C   UNL     1     -10.787  11.626  67.526  1.00  0.00    -0.287 C  
HETATM    3  C   UNL     1     -10.490   9.354  67.862  1.00  0.00    -0.296 C  
HETATM    4  C   UNL     1     -10.643  12.905  66.710  1.00  0.00    -0.268 C  
HETATM    5  C   UNL     1     -10.237   9.015  66.385  1.00  0.00    -0.297 C  
HETATM    6  C   UNL     1     -12.022  11.775  68.547  1.00  0.00    -0.279 C  
HETATM    7  C   UNL     1      -7.663  10.954  66.140  1.00  0.00    -0.133 C  
HETATM    8  C   UNL     1      -8.841   8.511  66.476  1.00  0.00    -0.165 C  
HETATM    9  C   UNL     1      -8.827   7.246  67.481  1.00  0.00    -0.119 C  
HETATM   10  H   UNL     1      -5.598  10.571  67.017  1.00  0.00     0.000 HD 
HETATM   11  O   UNL     1      -5.511   9.795  67.558  1.00  0.00    -0.036 OA 
HETATM   12  C   UNL     1      -8.130   9.810  67.076  1.00  0.00    -0.113 C  
HETATM   13  C   UNL     1      -9.904   6.189  67.177  1.00  0.00    -0.141 C  
HETATM   14  C   UNL     1      -6.697   9.010  67.373  1.00  0.00    -0.069 C  
HETATM   15  C   UNL     1     -10.112   5.396  68.435  1.00  0.00    -0.235 C  
HETATM   16  O   UNL     1     -11.220   6.641  66.892  1.00  0.00    -0.626 OA 
HETATM   17  C   UNL     1      -6.556   7.742  68.260  1.00  0.00    -0.058 C  
HETATM   18  C   UNL     1      -8.917   4.528  68.734  1.00  0.00    -0.149 C  
HETATM   19  C   UNL     1      -7.486   6.583  67.853  1.00  0.00    -0.094 C  
HETATM   20  H   UNL     1     -11.884   5.989  66.703  1.00  0.00     0.000 HD 
HETATM   21  C   UNL     1      -6.393   4.424  68.756  1.00  0.00    -0.033 C  
HETATM   22  C   UNL     1      -9.384   3.546  69.824  1.00  0.00    -0.244 C  
HETATM   23  C   UNL     1      -7.615   5.360  68.979  1.00  0.00    -0.085 C  
HETATM   24  C   UNL     1      -9.203   3.929  71.281  1.00  0.00    -0.130 C  
HETATM   25  C   UNL     1      -7.583   5.808  70.484  1.00  0.00    -0.090 C  
HETATM   26  H   UNL     1     -10.250   4.804  72.731  1.00  0.00     0.000 HD 
HETATM   27  O   UNL     1     -10.363   4.564  71.819  1.00  0.00    -0.179 OA 
HETATM   28  C   UNL     1      -7.946   4.737  71.550  1.00  0.00    -0.102 C  
ENDROOT
BRANCH   6  29
HETATM   29  C   UNL     1     -11.796  12.207  69.986  1.00  0.00    -0.383 C  
BRANCH  29  30
HETATM   30  C   UNL     1     -12.751  11.569  70.952  1.00  0.00    -0.278 C  
HETATM   31  O   UNL     1     -13.218  12.188  71.901  1.00  0.00    -0.478 OA 
HETATM   32  N   UNL     1     -13.028  10.237  70.702  1.00  0.00    -0.529 N  
HETATM   33  H   UNL     1     -12.640   9.791  69.870  1.00  0.00     0.000 HD 
BRANCH  32  34
HETATM   34  C   UNL     1     -13.858   9.466  71.599  1.00  0.00    -0.259 C  
BRANCH  34  35
HETATM   35  C   UNL     1     -13.023   8.763  72.669  1.00  0.00    -0.243 C  
HETATM   36  S   UNL     1     -11.509   8.161  71.965  1.00  0.00    -0.346 S  
HETATM   37  O   UNL     1     -10.927   7.412  73.273  1.00  0.00    -0.376 OA 
HETATM   38  O   UNL     1     -10.626   9.257  71.648  1.00  0.00    -0.349 OA 
HETATM   39  O   UNL     1     -11.813   7.113  71.014  1.00  0.00    -0.304 OA 
ENDBRANCH  34  35
ENDBRANCH  32  34
ENDBRANCH  29  30
ENDBRANCH   6  29
TORSDOF 4
ENDMDL
MODEL       32
REMARK 921   NORMALIZED FREE ENERGY PREDICTED BY IDOCK:   -6.70 KCAL/MOL
REMARK 922        TOTAL FREE ENERGY PREDICTED BY IDOCK:   -9.09 KCAL/MOL
REMARK 923 INTER-LIGAND FREE ENERGY PREDICTED BY IDOCK:   -8.83 KCAL/MOL
REMARK 924 INTRA-LIGAND FREE ENERGY PREDICTED BY IDOCK:   -0.25 KCAL/MOL
REMARK 927      BINDING AFFINITY PREDICTED BY RF-SCORE:    0.00 PKD
ROOT
HETATM    1  C   UNL     1      -8.597   9.554  66.561  1.00  0.00    -0.142 C  
HETATM    2  C   UNL     1      -9.253  10.325  65.151  1.00  0.00    -0.252 C  
HETATM    3  C   UNL     1      -9.964   8.950  66.873  1.00  0.00    -0.315 C  
HETATM    4  C   UNL     1      -8.544  10.582  63.827  1.00  0.00    -0.151 C  
HETATM    5  C   UNL     1      -9.814   7.637  66.089  1.00  0.00     0.044 C  
HETATM    6  C   UNL     1     -10.352  11.474  65.404  1.00  0.00    -0.322 C  
HETATM    7  C   UNL     1      -6.652   8.046  65.558  1.00  0.00    -0.045 C  
HETATM    8  C   UNL     1      -8.769   6.970  66.910  1.00  0.00    -0.122 C  
HETATM    9  C   UNL     1      -9.338   6.808  68.413  1.00  0.00    -0.124 C  
HETATM   10  H   UNL     1      -4.986   7.810  67.090  1.00  0.00     0.000 HD 
HETATM   11  O   UNL     1      -5.261   7.638  67.983  1.00  0.00    -0.027 OA 
HETATM   12  C   UNL     1      -7.602   8.053  66.783  1.00  0.00    -0.094 C  
HETATM   13  C   UNL     1     -10.747   6.193  68.490  1.00  0.00    -0.300 C  
HETATM   14  C   UNL     1      -6.658   7.318  67.946  1.00  0.00    -0.050 C  
HETATM   15  C   UNL     1     -11.328   6.584  69.819  1.00  0.00    -0.456 C  
HETATM   16  O   UNL     1     -11.733   6.670  67.586  1.00  0.00    -0.576 OA 
HETATM   17  C   UNL     1      -7.108   7.037  69.407  1.00  0.00    -0.079 C  
HETATM   18  C   UNL     1     -10.628   5.872  70.948  1.00  0.00    -0.319 C  
HETATM   19  C   UNL     1      -8.423   6.242  69.518  1.00  0.00    -0.129 C  
HETATM   20  H   UNL     1     -12.602   6.290  67.633  1.00  0.00     0.000 HD 
HETATM   21  C   UNL     1      -8.391   5.109  71.838  1.00  0.00    -0.121 C  
HETATM   22  C   UNL     1     -11.516   6.094  72.186  1.00  0.00    -0.361 C  
HETATM   23  C   UNL     1      -9.109   6.232  71.037  1.00  0.00    -0.156 C  
HETATM   24  C   UNL     1     -11.254   7.300  73.068  1.00  0.00    -0.264 C  
HETATM   25  C   UNL     1      -8.957   7.557  71.868  1.00  0.00    -0.144 C  
HETATM   26  H   UNL     1     -11.894   9.177  73.252  1.00  0.00     0.000 HD 
HETATM   27  O   UNL     1     -12.058   8.421  72.699  1.00  0.00    -0.390 OA 
HETATM   28  C   UNL     1      -9.787   7.673  73.175  1.00  0.00    -0.337 C  
ENDROOT
BRANCH   6  29
HETATM   29  C   UNL     1     -10.028  12.688  66.257  1.00  0.00    -0.266 C  
BRANCH  29  30
HETATM   30  C   UNL     1     -10.313  13.990  65.566  1.00  0.00    -0.339 C  
HETATM   31  O   UNL     1     -10.740  14.030  64.418  1.00  0.00    -0.377 OA 
HETATM   32  N   UNL     1     -10.027  15.119  66.312  1.00  0.00    -0.270 N  
HETATM   33  H   UNL     1      -9.715  15.017  67.277  1.00  0.00     0.000 HD 
BRANCH  32  34
HETATM   34  C   UNL     1     -10.165  16.441  65.746  1.00  0.00    -0.348 C  
BRANCH  34  35
HETATM   35  C   UNL     1     -10.455  17.484  66.824  1.00  0.00    -0.270 C  
HETATM   36  S   UNL     1     -10.050  19.107  66.231  1.00  0.00    -0.445 S  
HETATM   37  O   UNL     1     -10.361  19.933  67.584  1.00  0.00    -0.414 OA 
HETATM   38  O   UNL     1     -10.994  19.529  65.224  1.00  0.00    -0.426 OA 
HETATM   39  O   UNL     1      -8.619  19.196  66.035  1.00  0.00    -0.446 OA 
ENDBRANCH  34  35
ENDBRANCH  32  34
ENDBRANCH  29  30
ENDBRANCH   6  29
TORSDOF 4
ENDMDL
MODEL       33
REMARK 921   NORMALIZED FREE ENERGY PREDICTED BY IDOCK:   -6.69 KCAL/MOL
REMARK 922        TOTAL FREE ENERGY PREDICTED BY IDOCK:   -9.08 KCAL/MOL
REMARK 923 INTER-LIGAND FREE ENERGY PREDICTED BY IDOCK:   -8.45 KCAL/MOL
REMARK 924 INTRA-LIGAND FREE ENERGY PREDICTED BY IDOCK:   -0.62 KCAL/MOL
REMARK 927      BINDING AFFINITY PREDICTED BY RF-SCORE:    0.00 PKD
ROOT
HETATM    1  C   UNL     1      -9.871  12.936  68.035  1.00  0.00    -0.223 C  
HETATM    2  C   UNL     1      -9.915  11.415  67.200  1.00  0.00    -0.217 C  
HETATM    3  C   UNL     1      -9.703  13.667  66.705  1.00  0.00    -0.287 C  
HETATM    4  C   UNL     1     -10.726  10.180  67.575  1.00  0.00    -0.347 C  
HETATM    5  C   UNL     1     -11.189  13.891  66.383  1.00  0.00    -0.319 C  
HETATM    6  C   UNL     1      -8.562  10.963  66.455  1.00  0.00    -0.156 C  
HETATM    7  C   UNL     1     -12.202  12.976  69.312  1.00  0.00    -0.138 C  
HETATM    8  C   UNL     1     -11.537  14.864  67.451  1.00  0.00    -0.347 C  
HETATM    9  C   UNL     1     -10.594  16.164  67.274  1.00  0.00    -0.305 C  
HETATM   10  H   UNL     1     -12.008  14.171  71.240  1.00  0.00     0.000 HD 
HETATM   11  O   UNL     1     -11.525  14.987  71.178  1.00  0.00    -0.317 OA 
HETATM   12  C   UNL     1     -11.176  13.985  68.736  1.00  0.00    -0.298 C  
HETATM   13  C   UNL     1     -10.559  16.725  65.841  1.00  0.00    -0.248 C  
HETATM   14  C   UNL     1     -11.341  15.272  69.785  1.00  0.00    -0.289 C  
HETATM   15  C   UNL     1      -9.304  17.540  65.717  1.00  0.00     0.188 C  
HETATM   16  O   UNL     1     -10.421  15.805  64.769  1.00  0.00    -0.600 OA 
HETATM   17  C   UNL     1     -10.550  16.606  69.686  1.00  0.00    -0.274 C  
HETATM   18  C   UNL     1      -9.394  18.805  66.531  1.00  0.00    -0.345 C  
HETATM   19  C   UNL     1     -10.659  17.300  68.315  1.00  0.00    -0.383 C  
HETATM   20  H   UNL     1     -10.399  16.151  63.884  1.00  0.00     0.000 HD 
HETATM   21  C   UNL     1     -10.152  19.799  68.726  1.00  0.00    -0.523 C  
HETATM   22  C   UNL     1      -8.220  19.682  66.059  1.00  0.00    -0.307 C  
HETATM   23  C   UNL     1      -9.557  18.525  68.061  1.00  0.00    -0.337 C  
HETATM   24  C   UNL     1      -6.887  19.569  66.776  1.00  0.00    -0.197 C  
HETATM   25  C   UNL     1      -8.132  18.306  68.684  1.00  0.00    -0.304 C  
HETATM   26  H   UNL     1      -5.179  18.564  66.591  1.00  0.00     0.000 HD 
HETATM   27  O   UNL     1      -6.013  18.635  66.143  1.00  0.00    -0.153 OA 
HETATM   28  C   UNL     1      -7.014  19.299  68.264  1.00  0.00    -0.306 C  
ENDROOT
BRANCH   6  29
HETATM   29  C   UNL     1      -7.260  10.818  67.225  1.00  0.00    -0.096 C  
BRANCH  29  30
HETATM   30  C   UNL     1      -7.368   9.890  68.400  1.00  0.00    -0.078 C  
HETATM   31  O   UNL     1      -7.181  10.278  69.547  1.00  0.00    -0.090 OA 
HETATM   32  N   UNL     1      -7.659   8.576  68.079  1.00  0.00    -0.097 N  
HETATM   33  H   UNL     1      -7.845   8.327  67.107  1.00  0.00     0.000 HD 
BRANCH  32  34
HETATM   34  C   UNL     1      -7.704   7.552  69.097  1.00  0.00    -0.113 C  
BRANCH  34  35
HETATM   35  C   UNL     1      -9.143   7.212  69.485  1.00  0.00    -0.146 C  
HETATM   36  S   UNL     1      -9.935   6.318  68.172  1.00  0.00    -0.149 S  
HETATM   37  O   UNL     1     -11.408   6.204  68.825  1.00  0.00    -0.344 OA 
HETATM   38  O   UNL     1      -9.389   4.986  68.065  1.00  0.00    -0.115 OA 
HETATM   39  O   UNL     1     -10.078   7.189  67.025  1.00  0.00    -0.194 OA 
ENDBRANCH  34  35
ENDBRANCH  32  34
ENDBRANCH  29  30
ENDBRANCH   6  29
TORSDOF 4
ENDMDL
MODEL       34
REMARK 921   NORMALIZED FREE ENERGY PREDICTED BY IDOCK:   -6.64 KCAL/MOL
REMARK 922        TOTAL FREE ENERGY PREDICTED BY IDOCK:   -9.01 KCAL/MOL
REMARK 923 INTER-LIGAND FREE ENERGY PREDICTED BY IDOCK:   -8.11 KCAL/MOL
REMARK 924 INTRA-LIGAND FREE ENERGY PREDICTED BY IDOCK:   -0.91 KCAL/MOL
REMARK 927      BINDING AFFINITY PREDICTED BY RF-SCORE:    0.00 PKD
ROOT
HETATM    1  C   UNL     1      -8.857  13.084  68.134  1.00  0.00    -0.194 C  
HETATM    2  C   UNL     1      -9.443  14.270  67.009  1.00  0.00    -0.259 C  
HETATM    3  C   UNL     1      -9.923  12.100  67.658  1.00  0.00    -0.199 C  
HETATM    4  C   UNL     1      -8.622  15.308  66.254  1.00  0.00    -0.087 C  
HETATM    5  C   UNL     1      -9.120  11.426  66.534  1.00  0.00    -0.193 C  
HETATM    6  C   UNL     1     -10.923  14.844  67.275  1.00  0.00    -0.323 C  
HETATM    7  C   UNL     1      -6.319  12.782  67.404  1.00  0.00    -0.139 C  
HETATM    8  C   UNL     1      -8.100  10.710  67.345  1.00  0.00    -0.112 C  
HETATM    9  C   UNL     1      -8.869   9.696  68.340  1.00  0.00    -0.123 C  
HETATM   10  H   UNL     1      -5.055  12.223  69.213  1.00  0.00     0.000 HD 
HETATM   11  O   UNL     1      -5.426  11.572  69.797  1.00  0.00    -0.062 OA 
HETATM   12  C   UNL     1      -7.436  11.956  68.092  1.00  0.00    -0.100 C  
HETATM   13  C   UNL     1      -9.919   8.809  67.646  1.00  0.00    -0.193 C  
HETATM   14  C   UNL     1      -6.553  10.990  69.128  1.00  0.00    -0.077 C  
HETATM   15  C   UNL     1     -10.872   8.340  68.708  1.00  0.00     0.019 C  
HETATM   16  O   UNL     1     -10.796   9.421  66.712  1.00  0.00    -0.114 OA 
HETATM   17  C   UNL     1      -7.161   9.926  70.084  1.00  0.00    -0.146 C  
HETATM   18  C   UNL     1     -10.211   7.353  69.635  1.00  0.00    -0.210 C  
HETATM   19  C   UNL     1      -8.065   8.894  69.383  1.00  0.00    -0.105 C  
HETATM   20  H   UNL     1     -11.443   8.873  66.284  1.00  0.00     0.000 HD 
HETATM   21  C   UNL     1      -8.095   6.806  70.902  1.00  0.00    -0.118 C  
HETATM   22  C   UNL     1     -11.357   6.714  70.441  1.00  0.00    -0.421 C  
HETATM   23  C   UNL     1      -9.000   7.971  70.408  1.00  0.00    -0.146 C  
HETATM   24  C   UNL     1     -11.768   7.349  71.757  1.00  0.00    -0.286 C  
HETATM   25  C   UNL     1      -9.544   8.704  71.687  1.00  0.00    -0.344 C  
HETATM   26  H   UNL     1     -13.098   8.675  72.418  1.00  0.00     0.000 HD 
HETATM   27  O   UNL     1     -12.840   8.278  71.595  1.00  0.00    -0.317 OA 
HETATM   28  C   UNL     1     -10.613   7.957  72.531  1.00  0.00    -0.378 C  
ENDROOT
BRANCH   6  29
HETATM   29  C   UNL     1     -11.275  15.514  68.592  1.00  0.00    -0.326 C  
BRANCH  29  30
HETATM   30  C   UNL     1     -12.315  14.766  69.375  1.00  0.00    -0.149 C  
HETATM   31  O   UNL     1     -12.451  13.553  69.273  1.00  0.00    -0.179 OA 
HETATM   32  N   UNL     1     -13.114  15.556  70.183  1.00  0.00    -0.682 N  
HETATM   33  H   UNL     1     -12.921  16.556  70.255  1.00  0.00     0.000 HD 
BRANCH  32  34
HETATM   34  C   UNL     1     -14.216  14.990  70.925  1.00  0.00    -0.017 C  
BRANCH  34  35
HETATM   35  C   UNL     1     -14.311  15.586  72.329  1.00  0.00    -0.462 C  
HETATM   36  S   UNL     1     -12.712  15.592  73.100  1.00  0.00    -0.543 S  
HETATM   37  O   UNL     1     -13.154  16.163  74.545  1.00  0.00    -0.438 OA 
HETATM   38  O   UNL     1     -11.853  16.570  72.477  1.00  0.00    -0.534 OA 
HETATM   39  O   UNL     1     -12.292  14.226  73.328  1.00  0.00    -0.151 OA 
ENDBRANCH  34  35
ENDBRANCH  32  34
ENDBRANCH  29  30
ENDBRANCH   6  29
TORSDOF 4
ENDMDL
MODEL       35
REMARK 921   NORMALIZED FREE ENERGY PREDICTED BY IDOCK:   -6.57 KCAL/MOL
REMARK 922        TOTAL FREE ENERGY PREDICTED BY IDOCK:   -8.93 KCAL/MOL
REMARK 923 INTER-LIGAND FREE ENERGY PREDICTED BY IDOCK:   -7.79 KCAL/MOL
REMARK 924 INTRA-LIGAND FREE ENERGY PREDICTED BY IDOCK:   -1.15 KCAL/MOL
REMARK 927      BINDING AFFINITY PREDICTED BY RF-SCORE:    0.00 PKD
ROOT
HETATM    1  C   UNL     1     -10.018   9.140  66.997  1.00  0.00    -0.294 C  
HETATM    2  C   UNL     1      -9.403   7.616  67.558  1.00  0.00    -0.159 C  
HETATM    3  C   UNL     1      -9.259   9.860  68.110  1.00  0.00    -0.131 C  
HETATM    4  C   UNL     1      -9.038   6.402  66.712  1.00  0.00    -0.147 C  
HETATM    5  C   UNL     1      -7.944  10.116  67.355  1.00  0.00    -0.110 C  
HETATM    6  C   UNL     1      -9.901   7.130  69.010  1.00  0.00    -0.156 C  
HETATM    7  C   UNL     1      -9.149   9.239  64.488  1.00  0.00    -0.145 C  
HETATM    8  C   UNL     1      -8.417  11.102  66.349  1.00  0.00    -0.167 C  
HETATM    9  C   UNL     1      -9.014  12.380  67.137  1.00  0.00    -0.195 C  
HETATM   10  H   UNL     1     -10.603  10.440  63.212  1.00  0.00     0.000 HD 
HETATM   11  O   UNL     1     -10.930  11.244  63.597  1.00  0.00    -0.385 OA 
HETATM   12  C   UNL     1      -9.536  10.222  65.622  1.00  0.00    -0.274 C  
HETATM   13  C   UNL     1      -8.085  12.933  68.234  1.00  0.00    -0.151 C  
HETATM   14  C   UNL     1     -10.135  11.517  64.758  1.00  0.00    -0.269 C  
HETATM   15  C   UNL     1      -8.943  13.718  69.184  1.00  0.00     0.428 C  
HETATM   16  O   UNL     1      -7.455  12.004  69.104  1.00  0.00    -0.298 OA 
HETATM   17  C   UNL     1     -10.672  12.832  65.388  1.00  0.00    -0.309 C  
HETATM   18  C   UNL     1      -9.440  14.989  68.544  1.00  0.00    -0.203 C  
HETATM   19  C   UNL     1      -9.680  13.522  66.345  1.00  0.00    -0.296 C  
HETATM   20  H   UNL     1      -6.882  12.345  69.780  1.00  0.00     0.000 HD 
HETATM   21  C   UNL     1     -10.365  16.011  66.428  1.00  0.00    -0.312 C  
HETATM   22  C   UNL     1     -10.004  15.837  69.698  1.00  0.00    -0.284 C  
HETATM   23  C   UNL     1     -10.343  14.721  67.295  1.00  0.00    -0.247 C  
HETATM   24  C   UNL     1     -11.471  15.698  70.060  1.00  0.00    -0.344 C  
HETATM   25  C   UNL     1     -11.814  14.472  67.786  1.00  0.00    -0.390 C  
HETATM   26  H   UNL     1     -12.600  14.653  71.324  1.00  0.00     0.000 HD 
HETATM   27  O   UNL     1     -11.681  14.740  71.098  1.00  0.00    -0.318 OA 
HETATM   28  C   UNL     1     -12.373  15.438  68.867  1.00  0.00     0.006 C  
ENDROOT
BRANCH   6  29
HETATM   29  C   UNL     1     -11.380   6.960  69.311  1.00  0.00    -0.132 C  
BRANCH  29  30
HETATM   30  C   UNL     1     -11.674   6.836  70.778  1.00  0.00    -0.386 C  
HETATM   31  O   UNL     1     -12.809   6.964  71.221  1.00  0.00    -0.359 OA 
HETATM   32  N   UNL     1     -10.568   6.601  71.575  1.00  0.00    -0.220 N  
HETATM   33  H   UNL     1      -9.656   6.461  71.139  1.00  0.00     0.000 HD 
BRANCH  32  34
HETATM   34  C   UNL     1     -10.683   6.550  73.014  1.00  0.00    -0.263 C  
BRANCH  34  35
HETATM   35  C   UNL     1      -9.567   7.343  73.694  1.00  0.00    -0.287 C  
HETATM   36  S   UNL     1      -8.506   8.074  72.473  1.00  0.00    -0.178 S  
HETATM   37  O   UNL     1      -7.419   8.728  73.473  1.00  0.00    -0.379 OA 
HETATM   38  O   UNL     1      -9.186   9.147  71.789  1.00  0.00    -0.338 OA 
HETATM   39  O   UNL     1      -7.807   7.024  71.763  1.00  0.00    -0.093 OA 
ENDBRANCH  34  35
ENDBRANCH  32  34
ENDBRANCH  29  30
ENDBRANCH   6  29
TORSDOF 4
ENDMDL
MODEL       36
REMARK 921   NORMALIZED FREE ENERGY PREDICTED BY IDOCK:   -6.53 KCAL/MOL
REMARK 922        TOTAL FREE ENERGY PREDICTED BY IDOCK:   -8.88 KCAL/MOL
REMARK 923 INTER-LIGAND FREE ENERGY PREDICTED BY IDOCK:   -7.91 KCAL/MOL
REMARK 924 INTRA-LIGAND FREE ENERGY PREDICTED BY IDOCK:   -0.97 KCAL/MOL
REMARK 927      BINDING AFFINITY PREDICTED BY RF-SCORE:    0.00 PKD
ROOT
HETATM    1  C   UNL     1      -8.957   8.023  68.049  1.00  0.00    -0.130 C  
HETATM    2  C   UNL     1      -9.458   6.521  68.762  1.00  0.00    -0.128 C  
HETATM    3  C   UNL     1     -10.302   8.648  68.411  1.00  0.00    -0.239 C  
HETATM    4  C   UNL     1      -8.584   5.515  69.501  1.00  0.00    -0.105 C  
HETATM    5  C   UNL     1      -9.931   9.189  69.801  1.00  0.00    -0.204 C  
HETATM    6  C   UNL     1     -10.671   5.750  68.038  1.00  0.00    -0.290 C  
HETATM    7  C   UNL     1      -6.770   8.632  69.430  1.00  0.00    -0.049 C  
HETATM    8  C   UNL     1      -8.969  10.253  69.411  1.00  0.00    -0.190 C  
HETATM    9  C   UNL     1      -9.740  11.301  68.452  1.00  0.00    -0.194 C  
HETATM   10  H   UNL     1      -5.335   9.822  68.124  1.00  0.00     0.000 HD 
HETATM   11  O   UNL     1      -5.724  10.505  67.591  1.00  0.00    -0.044 OA 
HETATM   12  C   UNL     1      -7.887   9.363  68.644  1.00  0.00    -0.088 C  
HETATM   13  C   UNL     1     -11.090  11.787  69.008  1.00  0.00    -0.246 C  
HETATM   14  C   UNL     1      -7.070  10.691  68.050  1.00  0.00    -0.085 C  
HETATM   15  C   UNL     1     -11.890  12.294  67.843  1.00  0.00    -0.358 C  
HETATM   16  O   UNL     1     -11.966  10.821  69.570  1.00  0.00    -0.326 OA 
HETATM   17  C   UNL     1      -7.707  11.808  67.178  1.00  0.00    -0.162 C  
HETATM   18  C   UNL     1     -11.311  13.575  67.302  1.00  0.00    -0.339 C  
HETATM   19  C   UNL     1      -8.955  12.459  67.803  1.00  0.00    -0.182 C  
HETATM   20  H   UNL     1     -12.799  11.121  69.914  1.00  0.00     0.000 HD 
HETATM   21  C   UNL     1      -9.176  14.793  66.721  1.00  0.00    -0.282 C  
HETATM   22  C   UNL     1     -12.387  14.149  66.362  1.00  0.00    -0.431 C  
HETATM   23  C   UNL     1      -9.855  13.395  66.758  1.00  0.00    -0.265 C  
HETATM   24  C   UNL     1     -12.357  13.765  64.894  1.00  0.00    -0.405 C  
HETATM   25  C   UNL     1      -9.935  12.883  65.275  1.00  0.00    -0.192 C  
HETATM   26  H   UNL     1     -13.166  12.395  63.697  1.00  0.00     0.000 HD 
HETATM   27  O   UNL     1     -13.185  12.636  64.616  1.00  0.00    -0.828 OA 
HETATM   28  C   UNL     1     -10.956  13.584  64.337  1.00  0.00    -0.399 C  
ENDROOT
BRANCH   6  29
HETATM   29  C   UNL     1     -10.576   5.344  66.578  1.00  0.00    -0.353 C  
BRANCH  29  30
HETATM   30  C   UNL     1      -9.165   5.314  66.063  1.00  0.00    -0.157 C  
HETATM   31  O   UNL     1      -8.391   4.410  66.356  1.00  0.00    -0.106 OA 
HETATM   32  N   UNL     1      -8.812   6.392  65.271  1.00  0.00    -0.364 N  
HETATM   33  H   UNL     1      -9.516   7.089  65.030  1.00  0.00     0.000 HD 
BRANCH  32  34
HETATM   34  C   UNL     1      -7.462   6.546  64.780  1.00  0.00    -0.091 C  
BRANCH  34  35
HETATM   35  C   UNL     1      -7.002   8.001  64.855  1.00  0.00    -0.063 C  
HETATM   36  S   UNL     1      -8.214   9.065  64.114  1.00  0.00    -0.169 S  
HETATM   37  O   UNL     1      -7.415  10.461  64.257  1.00  0.00    -0.108 OA 
HETATM   38  O   UNL     1      -9.395   9.140  64.940  1.00  0.00    -0.161 OA 
HETATM   39  O   UNL     1      -8.279   8.791  62.694  1.00  0.00    -0.172 OA 
ENDBRANCH  34  35
ENDBRANCH  32  34
ENDBRANCH  29  30
ENDBRANCH   6  29
TORSDOF 4
ENDMDL
MODEL       37
REMARK 921   NORMALIZED FREE ENERGY PREDICTED BY IDOCK:   -6.50 KCAL/MOL
REMARK 922        TOTAL FREE ENERGY PREDICTED BY IDOCK:   -8.85 KCAL/MOL
REMARK 923 INTER-LIGAND FREE ENERGY PREDICTED BY IDOCK:   -7.74 KCAL/MOL
REMARK 924 INTRA-LIGAND FREE ENERGY PREDICTED BY IDOCK:   -1.11 KCAL/MOL
REMARK 927      BINDING AFFINITY PREDICTED BY RF-SCORE:    0.00 PKD
ROOT
HETATM    1  C   UNL     1      -9.938  14.033  69.019  1.00  0.00    -0.028 C  
HETATM    2  C   UNL     1     -11.318  15.054  69.284  1.00  0.00    -0.311 C  
HETATM    3  C   UNL     1     -10.787  13.103  68.155  1.00  0.00    -0.271 C  
HETATM    4  C   UNL     1     -11.326  16.569  69.441  1.00  0.00    -0.105 C  
HETATM    5  C   UNL     1     -10.545  13.778  66.795  1.00  0.00    -0.273 C  
HETATM    6  C   UNL     1     -12.530  14.418  70.131  1.00  0.00    -0.395 C  
HETATM    7  C   UNL     1      -8.186  15.689  67.901  1.00  0.00    -0.155 C  
HETATM    8  C   UNL     1      -9.104  13.464  66.608  1.00  0.00    -0.180 C  
HETATM    9  C   UNL     1      -8.934  11.857  66.615  1.00  0.00    -0.198 C  
HETATM   10  H   UNL     1      -6.067  15.048  68.431  1.00  0.00     0.000 HD 
HETATM   11  O   UNL     1      -5.888  14.116  68.379  1.00  0.00    -0.088 OA 
HETATM   12  C   UNL     1      -8.508  14.173  67.910  1.00  0.00    -0.167 C  
HETATM   13  C   UNL     1      -9.909  11.118  65.681  1.00  0.00    -0.235 C  
HETATM   14  C   UNL     1      -6.994  13.504  67.703  1.00  0.00    -0.167 C  
HETATM   15  C   UNL     1      -9.999   9.701  66.170  1.00  0.00    -0.346 C  
HETATM   16  O   UNL     1     -11.271  11.519  65.687  1.00  0.00    -0.253 OA 
HETATM   17  C   UNL     1      -6.701  11.980  67.620  1.00  0.00    -0.109 C  
HETATM   18  C   UNL     1      -8.715   8.955  65.914  1.00  0.00    -0.197 C  
HETATM   19  C   UNL     1      -7.523  11.239  66.548  1.00  0.00    -0.105 C  
HETATM   20  H   UNL     1     -11.873  11.063  65.110  1.00  0.00     0.000 HD 
HETATM   21  C   UNL     1      -6.194   9.103  65.964  1.00  0.00    -0.063 C  
HETATM   22  C   UNL     1      -9.050   7.469  66.143  1.00  0.00    -0.179 C  
HETATM   23  C   UNL     1      -7.496   9.577  66.670  1.00  0.00    -0.093 C  
HETATM   24  C   UNL     1      -8.864   6.883  67.531  1.00  0.00    -0.118 C  
HETATM   25  C   UNL     1      -7.464   8.997  68.130  1.00  0.00    -0.084 C  
HETATM   26  H   UNL     1      -9.949   6.566  69.170  1.00  0.00     0.000 HD 
HETATM   27  O   UNL     1     -10.065   6.933  68.301  1.00  0.00    -0.155 OA 
HETATM   28  C   UNL     1      -7.687   7.468  68.290  1.00  0.00    -0.120 C  
ENDROOT
BRANCH   6  29
HETATM   29  C   UNL     1     -12.305  13.886  71.536  1.00  0.00    -0.327 C  
BRANCH  29  30
HETATM   30  C   UNL     1     -13.175  12.708  71.868  1.00  0.00    -0.403 C  
HETATM   31  O   UNL     1     -14.088  12.790  72.682  1.00  0.00    -0.470 OA 
HETATM   32  N   UNL     1     -12.841  11.536  71.214  1.00  0.00    -0.399 N  
HETATM   33  H   UNL     1     -12.097  11.545  70.516  1.00  0.00     0.000 HD 
BRANCH  32  34
HETATM   34  C   UNL     1     -13.531  10.299  71.501  1.00  0.00    -0.246 C  
BRANCH  34  35
HETATM   35  C   UNL     1     -12.764   9.455  72.519  1.00  0.00    -0.192 C  
HETATM   36  S   UNL     1     -11.454   8.568  71.716  1.00  0.00    -0.336 S  
HETATM   37  O   UNL     1     -10.926   7.730  72.992  1.00  0.00    -0.386 OA 
HETATM   38  O   UNL     1     -10.405   9.471  71.310  1.00  0.00    -0.312 OA 
HETATM   39  O   UNL     1     -12.028   7.592  70.814  1.00  0.00    -0.277 OA 
ENDBRANCH  34  35
ENDBRANCH  32  34
ENDBRANCH  29  30
ENDBRANCH   6  29
TORSDOF 4
ENDMDL
MODEL       38
REMARK 921   NORMALIZED FREE ENERGY PREDICTED BY IDOCK:   -6.43 KCAL/MOL
REMARK 922        TOTAL FREE ENERGY PREDICTED BY IDOCK:   -8.76 KCAL/MOL
REMARK 923 INTER-LIGAND FREE ENERGY PREDICTED BY IDOCK:   -7.55 KCAL/MOL
REMARK 924 INTRA-LIGAND FREE ENERGY PREDICTED BY IDOCK:   -1.21 KCAL/MOL
REMARK 927      BINDING AFFINITY PREDICTED BY RF-SCORE:    0.00 PKD
ROOT
HETATM    1  C   UNL     1      -8.011  11.621  69.177  1.00  0.00     0.152 C  
HETATM    2  C   UNL     1      -8.294  12.597  67.769  1.00  0.00    -0.172 C  
HETATM    3  C   UNL     1      -8.763  10.461  68.529  1.00  0.00    -0.135 C  
HETATM    4  C   UNL     1      -7.368  13.652  67.177  1.00  0.00     0.133 C  
HETATM    5  C   UNL     1      -7.574   9.787  67.826  1.00  0.00    -0.090 C  
HETATM    6  C   UNL     1      -9.824  12.994  67.464  1.00  0.00    -0.209 C  
HETATM    7  C   UNL     1      -5.359  11.584  69.345  1.00  0.00    -0.048 C  
HETATM    8  C   UNL     1      -6.821   9.300  69.012  1.00  0.00    -0.055 C  
HETATM    9  C   UNL     1      -7.782   8.301  69.842  1.00  0.00    -0.097 C  
HETATM   10  H   UNL     1      -4.724  11.387  71.522  1.00  0.00     0.000 HD 
HETATM   11  O   UNL     1      -5.208  10.756  72.043  1.00  0.00    -0.294 OA 
HETATM   12  C   UNL     1      -6.561  10.693  69.750  1.00  0.00    -0.121 C  
HETATM   13  C   UNL     1      -8.455   7.216  68.982  1.00  0.00    -0.129 C  
HETATM   14  C   UNL     1      -5.990   9.965  71.138  1.00  0.00    -0.037 C  
HETATM   15  C   UNL     1      -9.660   6.737  69.739  1.00  0.00    -0.153 C  
HETATM   16  O   UNL     1      -9.022   7.607  67.740  1.00  0.00    -0.131 OA 
HETATM   17  C   UNL     1      -6.781   8.934  71.989  1.00  0.00    -0.006 C  
HETATM   18  C   UNL     1      -9.258   5.947  70.957  1.00  0.00    -0.163 C  
HETATM   19  C   UNL     1      -7.301   7.724  71.189  1.00  0.00    -0.066 C  
HETATM   20  H   UNL     1      -9.437   6.937  67.209  1.00  0.00     0.000 HD 
HETATM   21  C   UNL     1      -7.646   5.818  72.897  1.00  0.00    -0.096 C  
HETATM   22  C   UNL     1     -10.544   5.248  71.437  1.00  0.00    -0.247 C  
HETATM   23  C   UNL     1      -8.436   6.796  71.982  1.00  0.00    -0.112 C  
HETATM   24  C   UNL     1     -11.427   5.955  72.449  1.00  0.00    -0.306 C  
HETATM   25  C   UNL     1      -9.440   7.578  72.903  1.00  0.00    -0.239 C  
HETATM   26  H   UNL     1     -13.016   7.154  72.458  1.00  0.00     0.000 HD 
HETATM   27  O   UNL     1     -12.463   6.711  71.824  1.00  0.00    -0.352 OA 
HETATM   28  C   UNL     1     -10.656   6.787  73.458  1.00  0.00    -0.358 C  
ENDROOT
BRANCH   6  29
HETATM   29  C   UNL     1     -10.655  13.743  68.491  1.00  0.00    -0.261 C  
BRANCH  29  30
HETATM   30  C   UNL     1     -11.579  12.851  69.269  1.00  0.00    -0.310 C  
HETATM   31  O   UNL     1     -12.044  11.826  68.785  1.00  0.00    -0.358 OA 
HETATM   32  N   UNL     1     -11.880  13.295  70.544  1.00  0.00    -0.542 N  
HETATM   33  H   UNL     1     -11.426  14.135  70.903  1.00  0.00     0.000 HD 
BRANCH  32  34
HETATM   34  C   UNL     1     -12.827  12.589  71.376  1.00  0.00    -0.260 C  
BRANCH  34  35
HETATM   35  C   UNL     1     -13.645  13.553  72.235  1.00  0.00    -0.592 C  
HETATM   36  S   UNL     1     -13.074  15.217  71.999  1.00  0.00    -0.423 S  
HETATM   37  O   UNL     1     -14.032  15.945  73.077  1.00  0.00    -0.573 OA 
HETATM   38  O   UNL     1     -13.434  15.695  70.686  1.00  0.00    -0.476 OA 
HETATM   39  O   UNL     1     -11.730  15.335  72.524  1.00  0.00    -0.426 OA 
ENDBRANCH  34  35
ENDBRANCH  32  34
ENDBRANCH  29  30
ENDBRANCH   6  29
TORSDOF 4
ENDMDL
MODEL       39
REMARK 921   NORMALIZED FREE ENERGY PREDICTED BY IDOCK:   -6.38 KCAL/MOL
REMARK 922        TOTAL FREE ENERGY PREDICTED BY IDOCK:   -8.69 KCAL/MOL
REMARK 923 INTER-LIGAND FREE ENERGY PREDICTED BY IDOCK:   -7.39 KCAL/MOL
REMARK 924 INTRA-LIGAND FREE ENERGY PREDICTED BY IDOCK:   -1.30 KCAL/MOL
REMARK 927      BINDING AFFINITY PREDICTED BY RF-SCORE:    0.00 PKD
ROOT
HETATM    1  C   UNL     1      -9.853   5.526  69.950  1.00  0.00    -0.259 C  
HETATM    2  C   UNL     1      -9.600   4.802  71.508  1.00  0.00    -0.220 C  
HETATM    3  C   UNL     1      -8.766   6.557  70.248  1.00  0.00    -0.151 C  
HETATM    4  C   UNL     1      -9.713   3.325  71.867  1.00  0.00    -0.233 C  
HETATM    5  C   UNL     1      -7.562   5.782  69.688  1.00  0.00    -0.076 C  
HETATM    6  C   UNL     1      -9.984   5.697  72.789  1.00  0.00    -0.195 C  
HETATM    7  C   UNL     1      -9.382   3.513  68.280  1.00  0.00    -0.235 C  
HETATM    8  C   UNL     1      -7.896   5.806  68.240  1.00  0.00    -0.100 C  
HETATM    9  C   UNL     1      -7.994   7.349  67.772  1.00  0.00    -0.118 C  
HETATM   10  H   UNL     1     -10.630   3.765  66.393  1.00  0.00     0.000 HD 
HETATM   11  O   UNL     1     -10.664   4.642  66.028  1.00  0.00    -0.295 OA 
HETATM   12  C   UNL     1      -9.309   5.061  68.282  1.00  0.00    -0.160 C  
HETATM   13  C   UNL     1      -6.795   8.214  68.199  1.00  0.00    -0.076 C  
HETATM   14  C   UNL     1      -9.657   5.419  66.690  1.00  0.00    -0.151 C  
HETATM   15  C   UNL     1      -7.250   9.644  68.174  1.00  0.00    -0.080 C  
HETATM   16  O   UNL     1      -6.317   8.080  69.529  1.00  0.00    -0.033 OA 
HETATM   17  C   UNL     1      -9.712   6.853  66.094  1.00  0.00     0.047 C  
HETATM   18  C   UNL     1      -7.473  10.119  66.761  1.00  0.00    -0.104 C  
HETATM   19  C   UNL     1      -8.437   7.683  66.333  1.00  0.00    -0.137 C  
HETATM   20  H   UNL     1      -5.576   8.613  69.793  1.00  0.00     0.000 HD 
HETATM   21  C   UNL     1      -8.396   9.495  64.494  1.00  0.00    -0.167 C  
HETATM   22  C   UNL     1      -7.602  11.650  66.856  1.00  0.00    -0.138 C  
HETATM   23  C   UNL     1      -8.594   9.314  66.025  1.00  0.00    -0.158 C  
HETATM   24  C   UNL     1      -8.979  12.258  67.051  1.00  0.00    -0.204 C  
HETATM   25  C   UNL     1      -9.985   9.949  66.386  1.00  0.00    -0.309 C  
HETATM   26  H   UNL     1     -10.143  12.857  68.551  1.00  0.00     0.000 HD 
HETATM   27  O   UNL     1      -9.281  12.476  68.429  1.00  0.00    -0.196 OA 
HETATM   28  C   UNL     1     -10.089  11.498  66.347  1.00  0.00    -0.250 C  
ENDROOT
BRANCH   6  29
HETATM   29  C   UNL     1     -11.389   6.246  72.964  1.00  0.00    -0.115 C  
BRANCH  29  30
HETATM   30  C   UNL     1     -11.496   7.710  72.651  1.00  0.00    -0.349 C  
HETATM   31  O   UNL     1     -10.509   8.436  72.619  1.00  0.00    -0.326 OA 
HETATM   32  N   UNL     1     -12.784   8.167  72.438  1.00  0.00    -0.552 N  
HETATM   33  H   UNL     1     -13.558   7.502  72.436  1.00  0.00     0.000 HD 
BRANCH  32  34
HETATM   34  C   UNL     1     -13.051   9.569  72.217  1.00  0.00    -0.408 C  
BRANCH  34  35
HETATM   35  C   UNL     1     -13.258   9.873  70.733  1.00  0.00    -0.172 C  
HETATM   36  S   UNL     1     -11.988  10.967  70.150  1.00  0.00    -0.389 S  
HETATM   37  O   UNL     1     -12.529  11.165  68.640  1.00  0.00    -0.463 OA 
HETATM   38  O   UNL     1     -10.720  10.282  70.084  1.00  0.00    -0.280 OA 
HETATM   39  O   UNL     1     -12.141  12.254  70.794  1.00  0.00    -0.340 OA 
ENDBRANCH  34  35
ENDBRANCH  32  34
ENDBRANCH  29  30
ENDBRANCH   6  29
TORSDOF 4
ENDMDL
MODEL       40
REMARK 921   NORMALIZED FREE ENERGY PREDICTED BY IDOCK:   -6.36 KCAL/MOL
REMARK 922        TOTAL FREE ENERGY PREDICTED BY IDOCK:   -8.67 KCAL/MOL
REMARK 923 INTER-LIGAND FREE ENERGY PREDICTED BY IDOCK:   -8.30 KCAL/MOL
REMARK 924 INTRA-LIGAND FREE ENERGY PREDICTED BY IDOCK:   -0.38 KCAL/MOL
REMARK 927      BINDING AFFINITY PREDICTED BY RF-SCORE:    0.00 PKD
ROOT
HETATM    1  C   UNL     1      -9.714  11.694  66.198  1.00  0.00    -0.253 C  
HETATM    2  C   UNL     1     -11.210  12.548  65.983  1.00  0.00    -0.354 C  
HETATM    3  C   UNL     1     -10.357  10.832  67.281  1.00  0.00    -0.262 C  
HETATM    4  C   UNL     1     -11.769  13.116  64.685  1.00  0.00    -0.404 C  
HETATM    5  C   UNL     1     -10.874   9.694  66.386  1.00  0.00     0.160 C  
HETATM    6  C   UNL     1     -11.709  13.447  67.222  1.00  0.00    -0.424 C  
HETATM    7  C   UNL     1      -9.251  10.698  63.777  1.00  0.00    -0.280 C  
HETATM    8  C   UNL     1      -9.580   9.094  65.965  1.00  0.00    -0.342 C  
HETATM    9  C   UNL     1      -8.793   8.616  67.292  1.00  0.00    -0.141 C  
HETATM   10  H   UNL     1      -7.009  10.515  63.431  1.00  0.00     0.000 HD 
HETATM   11  O   UNL     1      -6.502  10.167  64.155  1.00  0.00    -0.128 OA 
HETATM   12  C   UNL     1      -8.919  10.363  65.254  1.00  0.00    -0.212 C  
HETATM   13  C   UNL     1      -9.642   7.771  68.258  1.00  0.00    -0.155 C  
HETATM   14  C   UNL     1      -7.428   9.628  65.107  1.00  0.00    -0.115 C  
HETATM   15  C   UNL     1      -8.991   7.856  69.609  1.00  0.00    -0.146 C  
HETATM   16  O   UNL     1     -10.963   8.208  68.540  1.00  0.00    -0.423 OA 
HETATM   17  C   UNL     1      -6.598   9.061  66.292  1.00  0.00    -0.066 C  
HETATM   18  C   UNL     1      -7.683   7.108  69.629  1.00  0.00    -0.109 C  
HETATM   19  C   UNL     1      -7.363   8.050  67.169  1.00  0.00    -0.091 C  
HETATM   20  H   UNL     1     -11.488   7.686  69.136  1.00  0.00     0.000 HD 
HETATM   21  C   UNL     1      -5.572   6.602  68.336  1.00  0.00    -0.016 C  
HETATM   22  C   UNL     1      -7.299   6.990  71.116  1.00  0.00    -0.076 C  
HETATM   23  C   UNL     1      -6.637   7.698  68.627  1.00  0.00    -0.053 C  
HETATM   24  C   UNL     1      -6.443   8.077  71.739  1.00  0.00    -0.044 C  
HETATM   25  C   UNL     1      -5.890   8.890  69.327  1.00  0.00    -0.035 C  
HETATM   26  H   UNL     1      -6.695   9.772  72.753  1.00  0.00     0.000 HD 
HETATM   27  O   UNL     1      -7.231   9.092  72.362  1.00  0.00    -0.332 OA 
HETATM   28  C   UNL     1      -5.417   8.669  70.790  1.00  0.00    -0.028 C  
ENDROOT
BRANCH   6  29
HETATM   29  C   UNL     1     -10.835  14.556  67.782  1.00  0.00    -0.267 C  
BRANCH  29  30
HETATM   30  C   UNL     1     -11.486  15.310  68.906  1.00  0.00    -0.332 C  
HETATM   31  O   UNL     1     -11.027  16.367  69.324  1.00  0.00    -0.305 OA 
HETATM   32  N   UNL     1     -12.607  14.702  69.442  1.00  0.00    -0.572 N  
HETATM   33  H   UNL     1     -12.962  13.844  69.021  1.00  0.00     0.000 HD 
BRANCH  32  34
HETATM   34  C   UNL     1     -13.284  15.264  70.588  1.00  0.00    -0.323 C  
BRANCH  34  35
HETATM   35  C   UNL     1     -12.796  14.633  71.891  1.00  0.00    -0.328 C  
HETATM   36  S   UNL     1     -12.754  15.850  73.182  1.00  0.00    -0.573 S  
HETATM   37  O   UNL     1     -12.125  14.928  74.350  1.00  0.00    -0.546 OA 
HETATM   38  O   UNL     1     -14.093  16.217  73.576  1.00  0.00    -0.312 OA 
HETATM   39  O   UNL     1     -11.742  16.836  72.870  1.00  0.00    -0.408 OA 
ENDBRANCH  34  35
ENDBRANCH  32  34
ENDBRANCH  29  30
ENDBRANCH   6  29
TORSDOF 4
ENDMDL
MODEL       41
REMARK 921   NORMALIZED FREE ENERGY PREDICTED BY IDOCK:   -6.36 KCAL/MOL
REMARK 922        TOTAL FREE ENERGY PREDICTED BY IDOCK:   -8.67 KCAL/MOL
REMARK 923 INTER-LIGAND FREE ENERGY PREDICTED BY IDOCK:   -7.94 KCAL/MOL
REMARK 924 INTRA-LIGAND FREE ENERGY PREDICTED BY IDOCK:   -0.73 KCAL/MOL
REMARK 927      BINDING AFFINITY PREDICTED BY RF-SCORE:    0.00 PKD
ROOT
HETATM    1  C   UNL     1      -9.943  13.050  68.126  1.00  0.00    -0.231 C  
HETATM    2  C   UNL     1     -10.124  11.546  67.277  1.00  0.00    -0.223 C  
HETATM    3  C   UNL     1      -9.834  13.793  66.797  1.00  0.00    -0.275 C  
HETATM    4  C   UNL     1     -10.967  10.348  67.694  1.00  0.00    -0.374 C  
HETATM    5  C   UNL     1     -11.327  14.096  66.585  1.00  0.00    -0.352 C  
HETATM    6  C   UNL     1      -8.852  11.040  66.431  1.00  0.00    -0.182 C  
HETATM    7  C   UNL     1     -12.172  13.184  69.568  1.00  0.00    -0.214 C  
HETATM    8  C   UNL     1     -11.547  15.067  67.689  1.00  0.00    -0.327 C  
HETATM    9  C   UNL     1     -10.555  16.322  67.460  1.00  0.00    -0.310 C  
HETATM   10  H   UNL     1     -11.780  14.337  71.492  1.00  0.00     0.000 HD 
HETATM   11  O   UNL     1     -11.262  15.129  71.407  1.00  0.00    -0.339 OA 
HETATM   12  C   UNL     1     -11.140  14.151  68.933  1.00  0.00    -0.288 C  
HETATM   13  C   UNL     1     -10.594  16.904  66.036  1.00  0.00    -0.218 C  
HETATM   14  C   UNL     1     -11.164  15.427  70.008  1.00  0.00    -0.300 C  
HETATM   15  C   UNL     1      -9.312  17.657  65.831  1.00  0.00     0.050 C  
HETATM   16  O   UNL     1     -10.580  15.995  64.945  1.00  0.00    -0.587 OA 
HETATM   17  C   UNL     1     -10.316  16.721  69.868  1.00  0.00     0.039 C  
HETATM   18  C   UNL     1      -9.279  18.911  66.666  1.00  0.00    -0.343 C  
HETATM   19  C   UNL     1     -10.487  17.443  68.517  1.00  0.00    -0.370 C  
HETATM   20  H   UNL     1     -10.605  16.354  64.065  1.00  0.00     0.000 HD 
HETATM   21  C   UNL     1      -9.827  19.906  68.922  1.00  0.00    -0.391 C  
HETATM   22  C   UNL     1      -8.100  19.738  66.121  1.00  0.00    -0.357 C  
HETATM   23  C   UNL     1      -9.346  18.615  68.200  1.00  0.00    -0.347 C  
HETATM   24  C   UNL     1      -6.726  19.547  66.738  1.00  0.00    -0.195 C  
HETATM   25  C   UNL     1      -7.893  18.316  68.716  1.00  0.00    -0.277 C  
HETATM   26  H   UNL     1      -5.088  18.462  66.418  1.00  0.00     0.000 HD 
HETATM   27  O   UNL     1      -5.948  18.581  66.032  1.00  0.00    -0.153 OA 
HETATM   28  C   UNL     1      -6.759  19.259  68.228  1.00  0.00    -0.283 C  
ENDROOT
BRANCH   6  29
HETATM   29  C   UNL     1      -7.507  10.819  67.102  1.00  0.00    -0.102 C  
BRANCH  29  30
HETATM   30  C   UNL     1      -6.408  10.496  66.132  1.00  0.00    -0.119 C  
HETATM   31  O   UNL     1      -5.652  11.360  65.702  1.00  0.00    -0.177 OA 
HETATM   32  N   UNL     1      -6.345   9.169  65.746  1.00  0.00    -0.059 N  
HETATM   33  H   UNL     1      -6.976   8.491  66.173  1.00  0.00     0.000 HD 
BRANCH  32  34
HETATM   34  C   UNL     1      -5.398   8.727  64.748  1.00  0.00    -0.039 C  
BRANCH  34  35
HETATM   35  C   UNL     1      -5.987   7.628  63.865  1.00  0.00    -0.049 C  
HETATM   36  S   UNL     1      -7.751   7.573  64.054  1.00  0.00    -0.121 S  
HETATM   37  O   UNL     1      -8.045   6.296  63.109  1.00  0.00    -0.113 OA 
HETATM   38  O   UNL     1      -8.363   8.729  63.445  1.00  0.00    -0.185 OA 
HETATM   39  O   UNL     1      -8.070   7.148  65.400  1.00  0.00    -0.125 OA 
ENDBRANCH  34  35
ENDBRANCH  32  34
ENDBRANCH  29  30
ENDBRANCH   6  29
TORSDOF 4
ENDMDL
MODEL       42
REMARK 921   NORMALIZED FREE ENERGY PREDICTED BY IDOCK:   -6.35 KCAL/MOL
REMARK 922        TOTAL FREE ENERGY PREDICTED BY IDOCK:   -8.66 KCAL/MOL
REMARK 923 INTER-LIGAND FREE ENERGY PREDICTED BY IDOCK:   -7.92 KCAL/MOL
REMARK 924 INTRA-LIGAND FREE ENERGY PREDICTED BY IDOCK:   -0.73 KCAL/MOL
REMARK 927      BINDING AFFINITY PREDICTED BY RF-SCORE:    0.00 PKD
ROOT
HETATM    1  C   UNL     1      -9.950  11.041  69.034  1.00  0.00    -0.184 C  
HETATM    2  C   UNL     1      -9.723   9.377  68.594  1.00  0.00    -0.160 C  
HETATM    3  C   UNL     1      -9.542  11.473  67.628  1.00  0.00    -0.176 C  
HETATM    4  C   UNL     1     -10.522   8.176  69.087  1.00  0.00    -0.217 C  
HETATM    5  C   UNL     1     -10.934  11.459  66.976  1.00  0.00    -0.347 C  
HETATM    6  C   UNL     1      -8.216   8.920  68.260  1.00  0.00    -0.121 C  
HETATM    7  C   UNL     1     -12.499  11.112  69.782  1.00  0.00    -0.230 C  
HETATM    8  C   UNL     1     -11.561  12.601  67.692  1.00  0.00    -0.414 C  
HETATM    9  C   UNL     1     -10.680  13.924  67.398  1.00  0.00    -0.275 C  
HETATM   10  H   UNL     1     -12.797  12.717  71.368  1.00  0.00     0.000 HD 
HETATM   11  O   UNL     1     -12.361  13.546  71.210  1.00  0.00    -0.336 OA 
HETATM   12  C   UNL     1     -11.434  12.073  69.194  1.00  0.00    -0.357 C  
HETATM   13  C   UNL     1     -10.370  14.155  65.908  1.00  0.00    -0.316 C  
HETATM   14  C   UNL     1     -11.898  13.534  69.853  1.00  0.00    -0.316 C  
HETATM   15  C   UNL     1      -9.167  15.052  65.841  1.00  0.00    -0.158 C  
HETATM   16  O   UNL     1      -9.949  13.040  65.135  1.00  0.00    -0.444 OA 
HETATM   17  C   UNL     1     -11.184  14.890  69.595  1.00  0.00    -0.300 C  
HETATM   18  C   UNL     1      -9.505  16.448  66.296  1.00  0.00    -0.347 C  
HETATM   19  C   UNL     1     -11.034  15.249  68.104  1.00  0.00    -0.292 C  
HETATM   20  H   UNL     1      -9.758  13.182  64.215  1.00  0.00     0.000 HD 
HETATM   21  C   UNL     1     -10.776  17.816  67.997  1.00  0.00    -0.317 C  
HETATM   22  C   UNL     1      -8.311  17.321  65.868  1.00  0.00    -0.014 C  
HETATM   23  C   UNL     1      -9.978  16.498  67.786  1.00  0.00    -0.253 C  
HETATM   24  C   UNL     1      -7.160  17.513  66.838  1.00  0.00    -0.190 C  
HETATM   25  C   UNL     1      -8.710  16.576  68.711  1.00  0.00    -0.259 C  
HETATM   26  H   UNL     1      -5.396  16.681  67.237  1.00  0.00     0.000 HD 
HETATM   27  O   UNL     1      -6.117  16.561  66.630  1.00  0.00    -0.307 OA 
HETATM   28  C   UNL     1      -7.588  17.566  68.293  1.00  0.00    -0.240 C  
ENDROOT
BRANCH   6  29
HETATM   29  C   UNL     1      -7.105   9.090  69.281  1.00  0.00    -0.058 C  
BRANCH  29  30
HETATM   30  C   UNL     1      -7.482   8.603  70.651  1.00  0.00    -0.074 C  
HETATM   31  O   UNL     1      -8.032   9.334  71.466  1.00  0.00    -0.334 OA 
HETATM   32  N   UNL     1      -7.130   7.292  70.919  1.00  0.00    -0.067 N  
HETATM   33  H   UNL     1      -6.712   6.724  70.183  1.00  0.00     0.000 HD 
BRANCH  32  34
HETATM   34  C   UNL     1      -7.346   6.715  72.226  1.00  0.00    -0.089 C  
BRANCH  34  35
HETATM   35  C   UNL     1      -7.811   5.262  72.126  1.00  0.00    -0.105 C  
HETATM   36  S   UNL     1      -9.279   5.157  71.133  1.00  0.00    -0.149 S  
HETATM   37  O   UNL     1      -9.559   3.575  71.302  1.00  0.00    -0.151 OA 
HETATM   38  O   UNL     1      -8.971   5.410  69.746  1.00  0.00    -0.120 OA 
HETATM   39  O   UNL     1     -10.364   5.825  71.820  1.00  0.00    -0.207 OA 
ENDBRANCH  34  35
ENDBRANCH  32  34
ENDBRANCH  29  30
ENDBRANCH   6  29
TORSDOF 4
ENDMDL
MODEL       43
REMARK 921   NORMALIZED FREE ENERGY PREDICTED BY IDOCK:   -6.29 KCAL/MOL
REMARK 922        TOTAL FREE ENERGY PREDICTED BY IDOCK:   -8.59 KCAL/MOL
REMARK 923 INTER-LIGAND FREE ENERGY PREDICTED BY IDOCK:   -7.99 KCAL/MOL
REMARK 924 INTRA-LIGAND FREE ENERGY PREDICTED BY IDOCK:   -0.60 KCAL/MOL
REMARK 927      BINDING AFFINITY PREDICTED BY RF-SCORE:    0.00 PKD
ROOT
HETATM    1  C   UNL     1     -11.238  12.717  70.006  1.00  0.00     0.225 C  
HETATM    2  C   UNL     1     -11.859  11.119  69.728  1.00  0.00    -0.422 C  
HETATM    3  C   UNL     1     -10.757  12.785  68.558  1.00  0.00    -0.275 C  
HETATM    4  C   UNL     1     -13.103  10.494  70.348  1.00  0.00    -0.112 C  
HETATM    5  C   UNL     1     -12.023  13.390  67.929  1.00  0.00    -0.360 C  
HETATM    6  C   UNL     1     -10.776   9.969  69.420  1.00  0.00    -0.258 C  
HETATM    7  C   UNL     1     -13.395  14.063  70.776  1.00  0.00    -0.086 C  
HETATM    8  C   UNL     1     -11.985  14.746  68.538  1.00  0.00    -0.284 C  
HETATM    9  C   UNL     1     -10.599  15.454  68.103  1.00  0.00    -0.263 C  
HETATM   10  H   UNL     1     -12.797  15.735  72.200  1.00  0.00     0.000 HD 
HETATM   11  O   UNL     1     -12.028  16.237  71.956  1.00  0.00    -0.500 OA 
HETATM   12  C   UNL     1     -12.038  14.344  70.083  1.00  0.00    -0.397 C  
HETATM   13  C   UNL     1     -10.305  15.387  66.593  1.00  0.00    -0.280 C  
HETATM   14  C   UNL     1     -11.708  15.895  70.601  1.00  0.00    -0.384 C  
HETATM   15  C   UNL     1      -8.827  15.587  66.423  1.00  0.00    -0.359 C  
HETATM   16  O   UNL     1     -10.514  14.150  65.928  1.00  0.00    -0.288 OA 
HETATM   17  C   UNL     1     -10.450  16.715  70.200  1.00  0.00     0.100 C  
HETATM   18  C   UNL     1      -8.430  17.006  66.742  1.00  0.00    -0.265 C  
HETATM   19  C   UNL     1     -10.236  16.837  68.680  1.00  0.00    -0.298 C  
HETATM   20  H   UNL     1     -10.333  14.108  64.997  1.00  0.00     0.000 HD 
HETATM   21  C   UNL     1      -8.792  18.947  68.317  1.00  0.00    -0.367 C  
HETATM   22  C   UNL     1      -6.992  17.159  66.214  1.00  0.00    -0.257 C  
HETATM   23  C   UNL     1      -8.732  17.395  68.226  1.00  0.00    -0.261 C  
HETATM   24  C   UNL     1      -5.834  16.851  67.145  1.00  0.00    -0.172 C  
HETATM   25  C   UNL     1      -7.529  16.928  69.122  1.00  0.00    -0.180 C  
HETATM   26  H   UNL     1      -4.659  15.309  67.601  1.00  0.00     0.000 HD 
HETATM   27  O   UNL     1      -5.385  15.502  67.018  1.00  0.00    -0.262 OA 
HETATM   28  C   UNL     1      -6.098  17.220  68.594  1.00  0.00    -0.165 C  
ENDROOT
BRANCH   6  29
HETATM   29  C   UNL     1      -9.660   9.665  70.405  1.00  0.00    -0.292 C  
BRANCH  29  30
HETATM   30  C   UNL     1      -9.948   8.476  71.276  1.00  0.00    -0.221 C  
HETATM   31  O   UNL     1     -10.693   7.574  70.910  1.00  0.00    -0.229 OA 
HETATM   32  N   UNL     1      -9.337   8.502  72.517  1.00  0.00    -0.271 N  
HETATM   33  H   UNL     1      -8.694   9.261  72.743  1.00  0.00     0.000 HD 
BRANCH  32  34
HETATM   34  C   UNL     1      -9.593   7.472  73.496  1.00  0.00    -0.285 C  
BRANCH  34  35
HETATM   35  C   UNL     1      -8.312   6.730  73.877  1.00  0.00    -0.128 C  
HETATM   36  S   UNL     1      -8.096   5.309  72.835  1.00  0.00    -0.109 S  
HETATM   37  O   UNL     1      -6.766   4.712  73.532  1.00  0.00    -0.062 OA 
HETATM   38  O   UNL     1      -7.754   5.712  71.493  1.00  0.00    -0.102 OA 
HETATM   39  O   UNL     1      -9.148   4.355  73.113  1.00  0.00    -0.117 OA 
ENDBRANCH  34  35
ENDBRANCH  32  34
ENDBRANCH  29  30
ENDBRANCH   6  29
TORSDOF 4
ENDMDL
MODEL       44
REMARK 921   NORMALIZED FREE ENERGY PREDICTED BY IDOCK:   -6.29 KCAL/MOL
REMARK 922        TOTAL FREE ENERGY PREDICTED BY IDOCK:   -8.58 KCAL/MOL
REMARK 923 INTER-LIGAND FREE ENERGY PREDICTED BY IDOCK:   -6.93 KCAL/MOL
REMARK 924 INTRA-LIGAND FREE ENERGY PREDICTED BY IDOCK:   -1.65 KCAL/MOL
REMARK 927      BINDING AFFINITY PREDICTED BY RF-SCORE:    0.00 PKD
ROOT
HETATM    1  C   UNL     1      -9.899  10.643  69.270  1.00  0.00    -0.201 C  
HETATM    2  C   UNL     1     -11.380  11.545  69.172  1.00  0.00    -0.351 C  
HETATM    3  C   UNL     1     -10.548   9.488  68.511  1.00  0.00    -0.247 C  
HETATM    4  C   UNL     1     -11.532  13.054  69.030  1.00  0.00    -0.353 C  
HETATM    5  C   UNL     1     -10.184   9.925  67.083  1.00  0.00    -0.285 C  
HETATM    6  C   UNL     1     -12.638  10.952  69.982  1.00  0.00    -0.253 C  
HETATM    7  C   UNL     1      -8.154  12.241  68.060  1.00  0.00    -0.156 C  
HETATM    8  C   UNL     1      -8.711   9.734  67.127  1.00  0.00    -0.137 C  
HETATM    9  C   UNL     1      -8.414   8.182  67.464  1.00  0.00    -0.126 C  
HETATM   10  H   UNL     1      -6.079  11.932  68.943  1.00  0.00     0.000 HD 
HETATM   11  O   UNL     1      -5.820  11.030  69.094  1.00  0.00    -0.041 OA 
HETATM   12  C   UNL     1      -8.352  10.727  68.325  1.00  0.00    -0.125 C  
HETATM   13  C   UNL     1      -9.194   7.187  66.586  1.00  0.00    -0.160 C  
HETATM   14  C   UNL     1      -6.774  10.193  68.427  1.00  0.00    -0.054 C  
HETATM   15  C   UNL     1      -9.233   5.881  67.327  1.00  0.00    -0.113 C  
HETATM   16  O   UNL     1     -10.573   7.438  66.358  1.00  0.00    -0.461 OA 
HETATM   17  C   UNL     1      -6.351   8.719  68.675  1.00  0.00    -0.053 C  
HETATM   18  C   UNL     1      -7.870   5.239  67.370  1.00  0.00    -0.100 C  
HETATM   19  C   UNL     1      -6.961   7.713  67.681  1.00  0.00    -0.081 C  
HETATM   20  H   UNL     1     -11.054   6.824  65.816  1.00  0.00     0.000 HD 
HETATM   21  C   UNL     1      -5.399   5.657  67.678  1.00  0.00    -0.005 C  
HETATM   22  C   UNL     1      -8.111   3.794  67.843  1.00  0.00    -0.084 C  
HETATM   23  C   UNL     1      -6.816   6.113  68.125  1.00  0.00    -0.067 C  
HETATM   24  C   UNL     1      -8.064   3.494  69.330  1.00  0.00    -0.053 C  
HETATM   25  C   UNL     1      -6.930   5.815  69.664  1.00  0.00    -0.063 C  
HETATM   26  H   UNL     1      -9.326   3.369  70.865  1.00  0.00     0.000 HD 
HETATM   27  O   UNL     1      -9.356   3.558  69.934  1.00  0.00    -0.146 OA 
HETATM   28  C   UNL     1      -7.048   4.327  70.091  1.00  0.00    -0.042 C  
ENDROOT
BRANCH   6  29
HETATM   29  C   UNL     1     -12.559  10.711  71.480  1.00  0.00    -0.517 C  
BRANCH  29  30
HETATM   30  C   UNL     1     -13.136   9.390  71.898  1.00  0.00    -0.424 C  
HETATM   31  O   UNL     1     -14.093   9.316  72.659  1.00  0.00    -0.477 OA 
HETATM   32  N   UNL     1     -12.484   8.283  71.385  1.00  0.00    -0.343 N  
HETATM   33  H   UNL     1     -11.719   8.413  70.722  1.00  0.00     0.000 HD 
BRANCH  32  34
HETATM   34  C   UNL     1     -12.869   6.945  71.772  1.00  0.00    -0.304 C  
BRANCH  34  35
HETATM   35  C   UNL     1     -11.679   6.157  72.321  1.00  0.00    -0.302 C  
HETATM   36  S   UNL     1     -10.169   7.038  72.016  1.00  0.00    -0.190 S  
HETATM   37  O   UNL     1      -9.138   5.940  72.599  1.00  0.00    -0.132 OA 
HETATM   38  O   UNL     1     -10.090   8.212  72.851  1.00  0.00    -0.299 OA 
HETATM   39  O   UNL     1      -9.929   7.086  70.589  1.00  0.00    -0.186 OA 
ENDBRANCH  34  35
ENDBRANCH  32  34
ENDBRANCH  29  30
ENDBRANCH   6  29
TORSDOF 4
ENDMDL
MODEL       45
REMARK 921   NORMALIZED FREE ENERGY PREDICTED BY IDOCK:   -6.26 KCAL/MOL
REMARK 922        TOTAL FREE ENERGY PREDICTED BY IDOCK:   -8.54 KCAL/MOL
REMARK 923 INTER-LIGAND FREE ENERGY PREDICTED BY IDOCK:   -7.41 KCAL/MOL
REMARK 924 INTRA-LIGAND FREE ENERGY PREDICTED BY IDOCK:   -1.14 KCAL/MOL
REMARK 927      BINDING AFFINITY PREDICTED BY RF-SCORE:    0.00 PKD
ROOT
HETATM    1  C   UNL     1      -8.698   8.107  70.177  1.00  0.00    -0.130 C  
HETATM    2  C   UNL     1      -7.555   7.433  71.297  1.00  0.00    -0.082 C  
HETATM    3  C   UNL     1      -7.908   9.413  70.150  1.00  0.00    -0.148 C  
HETATM    4  C   UNL     1      -7.099   5.982  71.386  1.00  0.00    -0.078 C  
HETATM    5  C   UNL     1      -6.965   9.081  68.982  1.00  0.00    -0.063 C  
HETATM    6  C   UNL     1      -7.495   8.106  72.757  1.00  0.00    -0.163 C  
HETATM    7  C   UNL     1      -8.585   6.418  68.129  1.00  0.00    -0.117 C  
HETATM    8  C   UNL     1      -7.945   9.061  67.864  1.00  0.00    -0.102 C  
HETATM    9  C   UNL     1      -8.647  10.515  67.785  1.00  0.00    -0.118 C  
HETATM   10  H   UNL     1     -10.600   6.347  67.072  1.00  0.00     0.000 HD 
HETATM   11  O   UNL     1     -11.028   7.183  66.931  1.00  0.00    -0.363 OA 
HETATM   12  C   UNL     1      -8.920   7.910  68.387  1.00  0.00    -0.133 C  
HETATM   13  C   UNL     1      -7.656  11.693  67.790  1.00  0.00    -0.121 C  
HETATM   14  C   UNL     1     -10.065   8.208  67.211  1.00  0.00    -0.241 C  
HETATM   15  C   UNL     1      -8.418  12.908  68.236  1.00  0.00    -0.161 C  
HETATM   16  O   UNL     1      -6.585  11.659  68.721  1.00  0.00    -0.061 OA 
HETATM   17  C   UNL     1     -10.765   9.576  66.980  1.00  0.00    -0.220 C  
HETATM   18  C   UNL     1      -9.403  13.349  67.183  1.00  0.00    -0.240 C  
HETATM   19  C   UNL     1      -9.792  10.754  66.780  1.00  0.00    -0.233 C  
HETATM   20  H   UNL     1      -5.973  12.386  68.723  1.00  0.00     0.000 HD 
HETATM   21  C   UNL     1     -11.102  12.565  65.486  1.00  0.00    -0.336 C  
HETATM   22  C   UNL     1      -9.858  14.756  67.610  1.00  0.00    -0.218 C  
HETATM   23  C   UNL     1     -10.490  12.264  66.884  1.00  0.00    -0.240 C  
HETATM   24  C   UNL     1     -11.078  14.891  68.503  1.00  0.00    -0.266 C  
HETATM   25  C   UNL     1     -11.648  12.414  67.934  1.00  0.00    -0.415 C  
HETATM   26  H   UNL     1     -11.492  15.029  70.446  1.00  0.00     0.000 HD 
HETATM   27  O   UNL     1     -10.729  14.944  69.886  1.00  0.00    -0.239 OA 
HETATM   28  C   UNL     1     -12.152  13.852  68.235  1.00  0.00    -0.322 C  
ENDROOT
BRANCH   6  29
HETATM   29  C   UNL     1      -8.732   8.177  73.635  1.00  0.00    -0.309 C  
BRANCH  29  30
HETATM   30  C   UNL     1      -9.663   7.015  73.439  1.00  0.00    -0.218 C  
HETATM   31  O   UNL     1      -9.459   5.929  73.968  1.00  0.00    -0.134 OA 
HETATM   32  N   UNL     1     -10.733   7.263  72.598  1.00  0.00    -0.254 N  
HETATM   33  H   UNL     1     -10.870   8.201  72.223  1.00  0.00     0.000 HD 
BRANCH  32  34
HETATM   34  C   UNL     1     -11.661   6.214  72.243  1.00  0.00    -0.313 C  
BRANCH  34  35
HETATM   35  C   UNL     1     -12.956   6.784  71.665  1.00  0.00    -0.236 C  
HETATM   36  S   UNL     1     -12.911   8.558  71.698  1.00  0.00    -0.336 S  
HETATM   37  O   UNL     1     -14.401   8.837  71.140  1.00  0.00    -0.257 OA 
HETATM   38  O   UNL     1     -11.969   9.059  70.725  1.00  0.00    -0.264 OA 
HETATM   39  O   UNL     1     -12.915   9.006  73.074  1.00  0.00    -0.277 OA 
ENDBRANCH  34  35
ENDBRANCH  32  34
ENDBRANCH  29  30
ENDBRANCH   6  29
TORSDOF 4
ENDMDL
MODEL       46
REMARK 921   NORMALIZED FREE ENERGY PREDICTED BY IDOCK:   -6.25 KCAL/MOL
REMARK 922        TOTAL FREE ENERGY PREDICTED BY IDOCK:   -8.53 KCAL/MOL
REMARK 923 INTER-LIGAND FREE ENERGY PREDICTED BY IDOCK:   -7.37 KCAL/MOL
REMARK 924 INTRA-LIGAND FREE ENERGY PREDICTED BY IDOCK:   -1.16 KCAL/MOL
REMARK 927      BINDING AFFINITY PREDICTED BY RF-SCORE:    0.00 PKD
ROOT
HETATM    1  C   UNL     1      -9.078   7.882  68.202  1.00  0.00    -0.133 C  
HETATM    2  C   UNL     1      -9.597   6.417  68.977  1.00  0.00    -0.136 C  
HETATM    3  C   UNL     1     -10.441   8.514  68.477  1.00  0.00    -0.205 C  
HETATM    4  C   UNL     1      -8.745   5.461  69.804  1.00  0.00    -0.114 C  
HETATM    5  C   UNL     1     -10.128   9.134  69.849  1.00  0.00    -0.219 C  
HETATM    6  C   UNL     1     -10.775   5.596  68.251  1.00  0.00    -0.227 C  
HETATM    7  C   UNL     1      -6.951   8.585  69.632  1.00  0.00    -0.047 C  
HETATM    8  C   UNL     1      -9.159  10.183  69.438  1.00  0.00    -0.217 C  
HETATM    9  C   UNL     1      -9.898  11.170  68.394  1.00  0.00    -0.188 C  
HETATM   10  H   UNL     1      -5.474   9.714  68.318  1.00  0.00     0.000 HD 
HETATM   11  O   UNL     1      -5.847  10.364  67.734  1.00  0.00    -0.044 OA 
HETATM   12  C   UNL     1      -8.042   9.262  68.763  1.00  0.00    -0.104 C  
HETATM   13  C   UNL     1     -11.273  11.674  68.869  1.00  0.00    -0.246 C  
HETATM   14  C   UNL     1      -7.211  10.562  68.129  1.00  0.00    -0.087 C  
HETATM   15  C   UNL     1     -12.030  12.109  67.648  1.00  0.00    -0.190 C  
HETATM   16  O   UNL     1     -12.164  10.733  69.449  1.00  0.00    -0.479 OA 
HETATM   17  C   UNL     1      -7.821  11.624  67.173  1.00  0.00    -0.163 C  
HETATM   18  C   UNL     1     -11.438  13.364  67.059  1.00  0.00    -0.372 C  
HETATM   19  C   UNL     1      -9.097  12.298  67.713  1.00  0.00    -0.191 C  
HETATM   20  H   UNL     1     -13.012  11.044  69.743  1.00  0.00     0.000 HD 
HETATM   21  C   UNL     1      -9.290  14.567  66.495  1.00  0.00    -0.307 C  
HETATM   22  C   UNL     1     -12.481  13.875  66.049  1.00  0.00    -0.501 C  
HETATM   23  C   UNL     1      -9.962  13.167  66.583  1.00  0.00    -0.270 C  
HETATM   24  C   UNL     1     -12.391  13.412  64.606  1.00  0.00    -0.382 C  
HETATM   25  C   UNL     1      -9.980  12.574  65.129  1.00  0.00    -0.212 C  
HETATM   26  H   UNL     1     -13.143  11.972  63.456  1.00  0.00     0.000 HD 
HETATM   27  O   UNL     1     -13.199  12.262  64.359  1.00  0.00    -0.806 OA 
HETATM   28  C   UNL     1     -10.968  13.213  64.115  1.00  0.00    -0.418 C  
ENDROOT
BRANCH   6  29
HETATM   29  C   UNL     1     -10.620   5.112  66.820  1.00  0.00    -0.266 C  
BRANCH  29  30
HETATM   30  C   UNL     1      -9.406   4.253  66.614  1.00  0.00    -0.169 C  
HETATM   31  O   UNL     1      -9.348   3.106  67.041  1.00  0.00    -0.184 OA 
HETATM   32  N   UNL     1      -8.365   4.869  65.943  1.00  0.00    -0.112 N  
HETATM   33  H   UNL     1      -8.493   5.812  65.576  1.00  0.00     0.000 HD 
BRANCH  32  34
HETATM   34  C   UNL     1      -7.100   4.198  65.753  1.00  0.00    -0.067 C  
BRANCH  34  35
HETATM   35  C   UNL     1      -6.184   4.986  64.817  1.00  0.00    -0.033 C  
HETATM   36  S   UNL     1      -7.121   6.198  63.921  1.00  0.00    -0.060 S  
HETATM   37  O   UNL     1      -5.932   6.766  62.986  1.00  0.00    -0.037 OA 
HETATM   38  O   UNL     1      -7.545   7.261  64.799  1.00  0.00    -0.089 OA 
HETATM   39  O   UNL     1      -8.037   5.522  63.026  1.00  0.00    -0.094 OA 
ENDBRANCH  34  35
ENDBRANCH  32  34
ENDBRANCH  29  30
ENDBRANCH   6  29
TORSDOF 4
ENDMDL
MODEL       47
REMARK 921   NORMALIZED FREE ENERGY PREDICTED BY IDOCK:   -6.24 KCAL/MOL
REMARK 922        TOTAL FREE ENERGY PREDICTED BY IDOCK:   -8.52 KCAL/MOL
REMARK 923 INTER-LIGAND FREE ENERGY PREDICTED BY IDOCK:   -7.26 KCAL/MOL
REMARK 924 INTRA-LIGAND FREE ENERGY PREDICTED BY IDOCK:   -1.27 KCAL/MOL
REMARK 927      BINDING AFFINITY PREDICTED BY RF-SCORE:    0.00 PKD
ROOT
HETATM    1  C   UNL     1     -11.300  12.692  67.373  1.00  0.00    -0.367 C  
HETATM    2  C   UNL     1     -10.966  14.201  66.582  1.00  0.00    -0.303 C  
HETATM    3  C   UNL     1      -9.947  12.149  66.916  1.00  0.00    -0.217 C  
HETATM    4  C   UNL     1     -11.391  15.593  67.035  1.00  0.00    -0.051 C  
HETATM    5  C   UNL     1      -9.107  12.593  68.124  1.00  0.00    -0.204 C  
HETATM    6  C   UNL     1     -10.867  14.166  64.976  1.00  0.00    -0.408 C  
HETATM    7  C   UNL     1     -11.677  13.421  69.901  1.00  0.00    -0.337 C  
HETATM    8  C   UNL     1      -9.679  11.705  69.170  1.00  0.00     0.179 C  
HETATM    9  C   UNL     1      -9.456  10.173  68.707  1.00  0.00    -0.171 C  
HETATM   10  H   UNL     1     -13.136  11.994  70.908  1.00  0.00     0.000 HD 
HETATM   11  O   UNL     1     -13.006  11.069  70.731  1.00  0.00    -0.286 OA 
HETATM   12  C   UNL     1     -11.205  12.174  69.110  1.00  0.00    -0.303 C  
HETATM   13  C   UNL     1      -8.017   9.851  68.267  1.00  0.00    -0.100 C  
HETATM   14  C   UNL     1     -11.730  10.931  70.092  1.00  0.00    -0.347 C  
HETATM   15  C   UNL     1      -8.083   8.625  67.404  1.00  0.00    -0.102 C  
HETATM   16  O   UNL     1      -7.358  10.777  67.415  1.00  0.00    -0.090 OA 
HETATM   17  C   UNL     1     -11.518   9.420  69.801  1.00  0.00     0.006 C  
HETATM   18  C   UNL     1      -8.426   7.404  68.219  1.00  0.00    -0.125 C  
HETATM   19  C   UNL     1     -10.049   9.027  69.552  1.00  0.00    -0.199 C  
HETATM   20  H   UNL     1      -6.470  10.579  67.144  1.00  0.00     0.000 HD 
HETATM   21  C   UNL     1      -9.872   6.507  70.085  1.00  0.00    -0.185 C  
HETATM   22  C   UNL     1      -8.134   6.202  67.303  1.00  0.00    -0.106 C  
HETATM   23  C   UNL     1      -9.831   7.510  68.898  1.00  0.00    -0.159 C  
HETATM   24  C   UNL     1      -9.247   5.665  66.423  1.00  0.00    -0.152 C  
HETATM   25  C   UNL     1     -10.921   7.045  67.866  1.00  0.00    -0.202 C  
HETATM   26  H   UNL     1      -9.926   5.908  64.567  1.00  0.00     0.000 HD 
HETATM   27  O   UNL     1      -9.229   6.244  65.118  1.00  0.00     0.223 OA 
HETATM   28  C   UNL     1     -10.624   5.753  67.056  1.00  0.00    -0.373 C  
ENDROOT
BRANCH   6  29
HETATM   29  C   UNL     1     -12.027  13.663  64.134  1.00  0.00    -0.488 C  
BRANCH  29  30
HETATM   30  C   UNL     1     -11.757  12.333  63.490  1.00  0.00    -0.499 C  
HETATM   31  O   UNL     1     -12.665  11.618  63.082  1.00  0.00    -0.447 OA 
HETATM   32  N   UNL     1     -10.421  11.977  63.429  1.00  0.00    -0.540 N  
HETATM   33  H   UNL     1      -9.711  12.636  63.748  1.00  0.00     0.000 HD 
BRANCH  32  34
HETATM   34  C   UNL     1     -10.016  10.688  62.920  1.00  0.00    -0.137 C  
BRANCH  34  35
HETATM   35  C   UNL     1      -8.603  10.734  62.338  1.00  0.00    -0.281 C  
HETATM   36  S   UNL     1      -7.544   9.612  63.214  1.00  0.00    -0.125 S  
HETATM   37  O   UNL     1      -6.160   9.962  62.456  1.00  0.00    -0.101 OA 
HETATM   38  O   UNL     1      -7.888   8.245  62.906  1.00  0.00    -0.129 OA 
HETATM   39  O   UNL     1      -7.378  10.081  64.573  1.00  0.00    -0.137 OA 
ENDBRANCH  34  35
ENDBRANCH  32  34
ENDBRANCH  29  30
ENDBRANCH   6  29
TORSDOF 4
ENDMDL
MODEL       48
REMARK 921   NORMALIZED FREE ENERGY PREDICTED BY IDOCK:   -6.23 KCAL/MOL
REMARK 922        TOTAL FREE ENERGY PREDICTED BY IDOCK:   -8.51 KCAL/MOL
REMARK 923 INTER-LIGAND FREE ENERGY PREDICTED BY IDOCK:   -7.65 KCAL/MOL
REMARK 924 INTRA-LIGAND FREE ENERGY PREDICTED BY IDOCK:   -0.87 KCAL/MOL
REMARK 927      BINDING AFFINITY PREDICTED BY RF-SCORE:    0.00 PKD
ROOT
HETATM    1  C   UNL     1      -9.835   9.452  67.073  1.00  0.00    -0.258 C  
HETATM    2  C   UNL     1      -9.096   7.970  67.595  1.00  0.00    -0.144 C  
HETATM    3  C   UNL     1      -8.945  10.238  68.033  1.00  0.00    -0.132 C  
HETATM    4  C   UNL     1      -8.819   6.731  66.752  1.00  0.00    -0.127 C  
HETATM    5  C   UNL     1      -7.764  10.497  67.084  1.00  0.00    -0.101 C  
HETATM    6  C   UNL     1      -9.359   7.533  69.122  1.00  0.00    -0.147 C  
HETATM    7  C   UNL     1      -9.346   9.467  64.461  1.00  0.00    -0.164 C  
HETATM    8  C   UNL     1      -8.411  11.426  66.121  1.00  0.00    -0.105 C  
HETATM    9  C   UNL     1      -8.927  12.720  66.939  1.00  0.00    -0.213 C  
HETATM   10  H   UNL     1     -11.009  10.573  63.368  1.00  0.00     0.000 HD 
HETATM   11  O   UNL     1     -11.303  11.384  63.767  1.00  0.00    -0.382 OA 
HETATM   12  C   UNL     1      -9.594  10.487  65.602  1.00  0.00    -0.278 C  
HETATM   13  C   UNL     1      -7.866  13.344  67.865  1.00  0.00    -0.152 C  
HETATM   14  C   UNL     1     -10.356  11.728  64.786  1.00  0.00    -0.288 C  
HETATM   15  C   UNL     1      -8.601  14.146  68.900  1.00  0.00     0.011 C  
HETATM   16  O   UNL     1      -7.086  12.470  68.667  1.00  0.00    -0.091 OA 
HETATM   17  C   UNL     1     -10.837  13.053  65.438  1.00  0.00    -0.304 C  
HETATM   18  C   UNL     1      -9.227  15.374  68.292  1.00  0.00    -0.188 C  
HETATM   19  C   UNL     1      -9.739  13.810  66.210  1.00  0.00    -0.297 C  
HETATM   20  H   UNL     1      -6.431  12.854  69.238  1.00  0.00     0.000 HD 
HETATM   21  C   UNL     1     -10.485  16.280  66.298  1.00  0.00    -0.314 C  
HETATM   22  C   UNL     1      -9.644  16.256  69.484  1.00  0.00    -0.102 C  
HETATM   23  C   UNL     1     -10.294  15.029  67.202  1.00  0.00    -0.257 C  
HETATM   24  C   UNL     1     -11.037  16.093  70.063  1.00  0.00    -0.363 C  
HETATM   25  C   UNL     1     -11.669  14.763  67.913  1.00  0.00    -0.367 C  
HETATM   26  H   UNL     1     -11.934  15.074  71.519  1.00  0.00     0.000 HD 
HETATM   27  O   UNL     1     -11.062  15.176  71.156  1.00  0.00    -0.311 OA 
HETATM   28  C   UNL     1     -12.095  15.759  69.027  1.00  0.00    -0.190 C  
ENDROOT
BRANCH   6  29
HETATM   29  C   UNL     1     -10.772   7.337  69.644  1.00  0.00    -0.249 C  
BRANCH  29  30
HETATM   30  C   UNL     1     -10.940   7.767  71.072  1.00  0.00    -0.244 C  
HETATM   31  O   UNL     1     -11.649   8.718  71.380  1.00  0.00    -0.265 OA 
HETATM   32  N   UNL     1     -10.211   7.032  71.990  1.00  0.00    -0.190 N  
HETATM   33  H   UNL     1      -9.672   6.226  71.674  1.00  0.00     0.000 HD 
BRANCH  32  34
HETATM   34  C   UNL     1     -10.200   7.388  73.391  1.00  0.00    -0.351 C  
BRANCH  34  35
HETATM   35  C   UNL     1     -10.157   6.147  74.283  1.00  0.00    -0.311 C  
HETATM   36  S   UNL     1     -10.634   4.711  73.355  1.00  0.00    -0.258 S  
HETATM   37  O   UNL     1     -10.587   3.633  74.558  1.00  0.00    -0.203 OA 
HETATM   38  O   UNL     1      -9.609   4.361  72.402  1.00  0.00    -0.138 OA 
HETATM   39  O   UNL     1     -12.028   4.828  72.985  1.00  0.00    -0.171 OA 
ENDBRANCH  34  35
ENDBRANCH  32  34
ENDBRANCH  29  30
ENDBRANCH   6  29
TORSDOF 4
ENDMDL
MODEL       49
REMARK 921   NORMALIZED FREE ENERGY PREDICTED BY IDOCK:   -6.22 KCAL/MOL
REMARK 922        TOTAL FREE ENERGY PREDICTED BY IDOCK:   -8.51 KCAL/MOL
REMARK 923 INTER-LIGAND FREE ENERGY PREDICTED BY IDOCK:   -7.58 KCAL/MOL
REMARK 924 INTRA-LIGAND FREE ENERGY PREDICTED BY IDOCK:   -0.93 KCAL/MOL
REMARK 927      BINDING AFFINITY PREDICTED BY RF-SCORE:    0.00 PKD
ROOT
HETATM    1  C   UNL     1     -11.171  13.799  69.866  1.00  0.00    -0.056 C  
HETATM    2  C   UNL     1     -12.733  14.354  70.385  1.00  0.00    -0.362 C  
HETATM    3  C   UNL     1     -11.825  12.991  68.748  1.00  0.00    -0.355 C  
HETATM    4  C   UNL     1     -13.078  15.715  70.977  1.00  0.00    -0.487 C  
HETATM    5  C   UNL     1     -11.804  14.067  67.650  1.00  0.00    -0.430 C  
HETATM    6  C   UNL     1     -13.731  13.240  70.980  1.00  0.00     0.518 C  
HETATM    7  C   UNL     1      -9.892  16.064  69.323  1.00  0.00    -0.255 C  
HETATM    8  C   UNL     1     -10.339  14.160  67.415  1.00  0.00    -0.256 C  
HETATM    9  C   UNL     1      -9.810  12.704  66.956  1.00  0.00    -0.225 C  
HETATM   10  H   UNL     1      -7.661  15.801  69.692  1.00  0.00     0.000 HD 
HETATM   11  O   UNL     1      -7.278  14.991  69.375  1.00  0.00    -0.166 OA 
HETATM   12  C   UNL     1      -9.862  14.579  68.881  1.00  0.00    -0.191 C  
HETATM   13  C   UNL     1     -10.633  12.063  65.823  1.00  0.00    -0.263 C  
HETATM   14  C   UNL     1      -8.246  14.365  68.523  1.00  0.00    -0.151 C  
HETATM   15  C   UNL     1     -10.378  10.585  65.875  1.00  0.00    -0.275 C  
HETATM   16  O   UNL     1     -12.049  12.122  65.914  1.00  0.00    -0.594 OA 
HETATM   17  C   UNL     1      -7.620  13.040  68.006  1.00  0.00    -0.139 C  
HETATM   18  C   UNL     1      -8.971  10.260  65.443  1.00  0.00    -0.205 C  
HETATM   19  C   UNL     1      -8.300  12.473  66.745  1.00  0.00    -0.034 C  
HETATM   20  H   UNL     1     -12.557  11.727  65.215  1.00  0.00     0.000 HD 
HETATM   21  C   UNL     1      -6.550  10.963  65.594  1.00  0.00     0.043 C  
HETATM   22  C   UNL     1      -8.950   8.737  65.221  1.00  0.00    -0.184 C  
HETATM   23  C   UNL     1      -7.892  10.899  66.377  1.00  0.00    -0.154 C  
HETATM   24  C   UNL     1      -8.575   7.833  66.381  1.00  0.00    -0.145 C  
HETATM   25  C   UNL     1      -7.664   9.945  67.604  1.00  0.00    -0.091 C  
HETATM   26  H   UNL     1      -9.485   6.815  67.829  1.00  0.00     0.000 HD 
HETATM   27  O   UNL     1      -9.720   7.381  67.103  1.00  0.00    -0.149 OA 
HETATM   28  C   UNL     1      -7.527   8.427  67.305  1.00  0.00    -0.093 C  
ENDROOT
BRANCH   6  29
HETATM   29  C   UNL     1     -13.329  12.391  72.173  1.00  0.00    -0.508 C  
BRANCH  29  30
HETATM   30  C   UNL     1     -13.020  10.967  71.808  1.00  0.00    -0.438 C  
HETATM   31  O   UNL     1     -13.770  10.047  72.109  1.00  0.00    -0.332 OA 
HETATM   32  N   UNL     1     -11.820  10.785  71.144  1.00  0.00    -0.262 N  
HETATM   33  H   UNL     1     -11.261  11.598  70.885  1.00  0.00     0.000 HD 
BRANCH  32  34
HETATM   34  C   UNL     1     -11.346   9.461  70.810  1.00  0.00    -0.300 C  
BRANCH  34  35
HETATM   35  C   UNL     1      -9.865   9.476  70.434  1.00  0.00    -0.271 C  
HETATM   36  S   UNL     1      -8.974   8.294  71.413  1.00  0.00    -0.183 S  
HETATM   37  O   UNL     1      -7.487   8.616  70.868  1.00  0.00    -0.064 OA 
HETATM   38  O   UNL     1      -9.313   6.948  71.016  1.00  0.00    -0.156 OA 
HETATM   39  O   UNL     1      -8.987   8.719  72.796  1.00  0.00    -0.361 OA 
ENDBRANCH  34  35
ENDBRANCH  32  34
ENDBRANCH  29  30
ENDBRANCH   6  29
TORSDOF 4
ENDMDL
MODEL       50
REMARK 921   NORMALIZED FREE ENERGY PREDICTED BY IDOCK:   -6.18 KCAL/MOL
REMARK 922        TOTAL FREE ENERGY PREDICTED BY IDOCK:   -8.45 KCAL/MOL
REMARK 923 INTER-LIGAND FREE ENERGY PREDICTED BY IDOCK:   -7.59 KCAL/MOL
REMARK 924 INTRA-LIGAND FREE ENERGY PREDICTED BY IDOCK:   -0.87 KCAL/MOL
REMARK 927      BINDING AFFINITY PREDICTED BY RF-SCORE:    0.00 PKD
ROOT
HETATM    1  C   UNL     1      -9.393  11.006  67.423  1.00  0.00    -0.165 C  
HETATM    2  C   UNL     1     -10.404  12.327  66.925  1.00  0.00    -0.236 C  
HETATM    3  C   UNL     1     -10.336  10.718  68.589  1.00  0.00    -0.208 C  
HETATM    4  C   UNL     1     -10.678  12.791  65.500  1.00  0.00    -0.303 C  
HETATM    5  C   UNL     1     -11.274   9.728  67.880  1.00  0.00    -0.036 C  
HETATM    6  C   UNL     1     -10.491  13.584  67.926  1.00  0.00    -0.253 C  
HETATM    7  C   UNL     1      -9.377   9.434  65.281  1.00  0.00    -0.303 C  
HETATM    8  C   UNL     1     -10.342   8.586  67.692  1.00  0.00    -0.317 C  
HETATM    9  C   UNL     1      -9.823   8.115  69.148  1.00  0.00    -0.182 C  
HETATM   10  H   UNL     1      -7.408   8.297  65.169  1.00  0.00     0.000 HD 
HETATM   11  O   UNL     1      -7.091   7.931  65.987  1.00  0.00    -0.060 OA 
HETATM   12  C   UNL     1      -9.215   9.305  66.817  1.00  0.00    -0.185 C  
HETATM   13  C   UNL     1     -10.948   7.901  70.178  1.00  0.00    -0.233 C  
HETATM   14  C   UNL     1      -8.159   8.019  66.939  1.00  0.00    -0.108 C  
HETATM   15  C   UNL     1     -10.322   7.993  71.540  1.00  0.00    -0.258 C  
HETATM   16  O   UNL     1     -11.972   8.882  70.258  1.00  0.00    -0.473 OA 
HETATM   17  C   UNL     1      -7.639   7.422  68.276  1.00  0.00    -0.114 C  
HETATM   18  C   UNL     1      -9.438   6.803  71.812  1.00  0.00    -0.150 C  
HETATM   19  C   UNL     1      -8.754   7.009  69.256  1.00  0.00    -0.136 C  
HETATM   20  H   UNL     1     -12.667   8.750  70.893  1.00  0.00     0.000 HD 
HETATM   21  C   UNL     1      -7.721   5.236  70.824  1.00  0.00    -0.088 C  
HETATM   22  C   UNL     1      -9.140   6.849  73.322  1.00  0.00    -0.158 C  
HETATM   23  C   UNL     1      -8.240   6.702  70.812  1.00  0.00    -0.121 C  
HETATM   24  C   UNL     1      -7.914   7.602  73.804  1.00  0.00    -0.152 C  
HETATM   25  C   UNL     1      -7.070   7.608  71.339  1.00  0.00    -0.058 C  
HETATM   26  H   UNL     1      -7.447   9.424  74.458  1.00  0.00     0.000 HD 
HETATM   27  O   UNL     1      -8.215   8.952  74.156  1.00  0.00    -0.246 OA 
HETATM   28  C   UNL     1      -6.733   7.521  72.853  1.00  0.00    -0.066 C  
ENDROOT
BRANCH   6  29
HETATM   29  C   UNL     1      -9.240  14.336  68.344  1.00  0.00    -0.196 C  
BRANCH  29  30
HETATM   30  C   UNL     1      -9.503  15.395  69.375  1.00  0.00    -0.267 C  
HETATM   31  O   UNL     1      -8.603  16.096  69.824  1.00  0.00     0.067 OA 
HETATM   32  N   UNL     1     -10.819  15.487  69.792  1.00  0.00    -0.271 N  
HETATM   33  H   UNL     1     -11.528  14.903  69.348  1.00  0.00     0.000 HD 
BRANCH  32  34
HETATM   34  C   UNL     1     -11.206  16.397  70.845  1.00  0.00    -0.133 C  
BRANCH  34  35
HETATM   35  C   UNL     1     -11.637  15.644  72.104  1.00  0.00    -0.443 C  
HETATM   36  S   UNL     1     -12.871  14.434  71.701  1.00  0.00    -0.363 S  
HETATM   37  O   UNL     1     -13.176  13.907  73.197  1.00  0.00    -0.545 OA 
HETATM   38  O   UNL     1     -12.288  13.345  70.954  1.00  0.00    -0.366 OA 
HETATM   39  O   UNL     1     -14.075  15.112  71.269  1.00  0.00    -0.462 OA 
ENDBRANCH  34  35
ENDBRANCH  32  34
ENDBRANCH  29  30
ENDBRANCH   6  29
TORSDOF 4
ENDMDL
MODEL       51
REMARK 921   NORMALIZED FREE ENERGY PREDICTED BY IDOCK:   -6.17 KCAL/MOL
REMARK 922        TOTAL FREE ENERGY PREDICTED BY IDOCK:   -8.43 KCAL/MOL
REMARK 923 INTER-LIGAND FREE ENERGY PREDICTED BY IDOCK:   -7.68 KCAL/MOL
REMARK 924 INTRA-LIGAND FREE ENERGY PREDICTED BY IDOCK:   -0.75 KCAL/MOL
REMARK 927      BINDING AFFINITY PREDICTED BY RF-SCORE:    0.00 PKD
ROOT
HETATM    1  C   UNL     1     -10.072  13.350  67.416  1.00  0.00    -0.237 C  
HETATM    2  C   UNL     1     -10.574  14.743  68.323  1.00  0.00    -0.241 C  
HETATM    3  C   UNL     1     -10.070  12.514  68.693  1.00  0.00    -0.139 C  
HETATM    4  C   UNL     1     -11.493  15.865  67.856  1.00  0.00    -0.187 C  
HETATM    5  C   UNL     1     -11.525  12.019  68.640  1.00  0.00    -0.350 C  
HETATM    6  C   UNL     1      -9.522  15.321  69.395  1.00  0.00    -0.231 C  
HETATM    7  C   UNL     1     -12.019  13.078  65.627  1.00  0.00    -0.479 C  
HETATM    8  C   UNL     1     -11.446  11.128  67.453  1.00  0.00    -0.261 C  
HETATM    9  C   UNL     1     -10.346   9.984  67.755  1.00  0.00    -0.261 C  
HETATM   10  H   UNL     1     -11.193  12.151  63.719  1.00  0.00     0.000 HD 
HETATM   11  O   UNL     1     -10.595  11.421  63.834  1.00  0.00    -0.334 OA 
HETATM   12  C   UNL     1     -10.978  12.190  66.355  1.00  0.00    -0.327 C  
HETATM   13  C   UNL     1     -10.525   9.281  69.112  1.00  0.00    -0.217 C  
HETATM   14  C   UNL     1     -10.672  11.017  65.208  1.00  0.00    -0.164 C  
HETATM   15  C   UNL     1      -9.201   8.670  69.470  1.00  0.00    -0.150 C  
HETATM   16  O   UNL     1     -10.794  10.087  70.250  1.00  0.00    -0.272 OA 
HETATM   17  C   UNL     1      -9.694   9.825  65.396  1.00  0.00    -0.383 C  
HETATM   18  C   UNL     1      -8.879   7.505  68.570  1.00  0.00    -0.126 C  
HETATM   19  C   UNL     1      -9.973   8.974  66.650  1.00  0.00    -0.349 C  
HETATM   20  H   UNL     1     -10.905   9.653  71.087  1.00  0.00     0.000 HD 
HETATM   21  C   UNL     1      -8.943   6.651  66.194  1.00  0.00    -0.157 C  
HETATM   22  C   UNL     1      -7.698   6.780  69.242  1.00  0.00    -0.105 C  
HETATM   23  C   UNL     1      -8.750   7.922  67.068  1.00  0.00    -0.132 C  
HETATM   24  C   UNL     1      -6.283   7.184  68.869  1.00  0.00    -0.027 C  
HETATM   25  C   UNL     1      -7.287   8.435  66.816  1.00  0.00    -0.083 C  
HETATM   26  H   UNL     1      -4.868   8.424  69.521  1.00  0.00     0.000 HD 
HETATM   27  O   UNL     1      -5.754   8.171  69.754  1.00  0.00    -0.026 OA 
HETATM   28  C   UNL     1      -6.127   7.594  67.415  1.00  0.00    -0.049 C  
ENDROOT
BRANCH   6  29
HETATM   29  C   UNL     1      -8.132  15.757  68.966  1.00  0.00    -0.224 C  
BRANCH  29  30
HETATM   30  C   UNL     1      -8.123  16.514  67.669  1.00  0.00    -0.163 C  
HETATM   31  O   UNL     1      -7.895  15.959  66.600  1.00  0.00    -0.243 OA 
HETATM   32  N   UNL     1      -8.358  17.872  67.787  1.00  0.00    -0.237 N  
HETATM   33  H   UNL     1      -8.584  18.265  68.701  1.00  0.00     0.000 HD 
BRANCH  32  34
HETATM   34  C   UNL     1      -8.290  18.743  66.636  1.00  0.00    -0.288 C  
BRANCH  34  35
HETATM   35  C   UNL     1      -7.222  19.822  66.813  1.00  0.00    -0.227 C  
HETATM   36  S   UNL     1      -6.347  19.571  68.337  1.00  0.00    -0.251 S  
HETATM   37  O   UNL     1      -5.400  20.879  68.278  1.00  0.00    -0.258 OA 
HETATM   38  O   UNL     1      -5.502  18.404  68.250  1.00  0.00    -0.165 OA 
HETATM   39  O   UNL     1      -7.252  19.790  69.445  1.00  0.00    -0.338 OA 
ENDBRANCH  34  35
ENDBRANCH  32  34
ENDBRANCH  29  30
ENDBRANCH   6  29
TORSDOF 4
ENDMDL
MODEL       52
REMARK 921   NORMALIZED FREE ENERGY PREDICTED BY IDOCK:   -6.10 KCAL/MOL
REMARK 922        TOTAL FREE ENERGY PREDICTED BY IDOCK:   -8.35 KCAL/MOL
REMARK 923 INTER-LIGAND FREE ENERGY PREDICTED BY IDOCK:   -7.17 KCAL/MOL
REMARK 924 INTRA-LIGAND FREE ENERGY PREDICTED BY IDOCK:   -1.18 KCAL/MOL
REMARK 927      BINDING AFFINITY PREDICTED BY RF-SCORE:    0.00 PKD
ROOT
HETATM    1  C   UNL     1      -8.213  12.955  67.750  1.00  0.00    -0.174 C  
HETATM    2  C   UNL     1      -8.885  11.355  67.680  1.00  0.00    -0.139 C  
HETATM    3  C   UNL     1      -9.619  13.548  67.800  1.00  0.00    -0.219 C  
HETATM    4  C   UNL     1      -8.305  10.085  68.290  1.00  0.00    -0.110 C  
HETATM    5  C   UNL     1      -9.802  13.561  69.327  1.00  0.00     0.467 C  
HETATM    6  C   UNL     1      -9.720  10.983  66.355  1.00  0.00    -0.235 C  
HETATM    7  C   UNL     1      -6.706  12.866  69.938  1.00  0.00     0.240 C  
HETATM    8  C   UNL     1      -8.804  14.600  69.693  1.00  0.00     0.323 C  
HETATM    9  C   UNL     1      -9.208  15.973  68.943  1.00  0.00    -0.233 C  
HETATM   10  H   UNL     1      -4.937  14.282  69.718  1.00  0.00     0.000 HD 
HETATM   11  O   UNL     1      -5.130  15.136  69.349  1.00  0.00    -0.092 OA 
HETATM   12  C   UNL     1      -7.485  13.917  69.106  1.00  0.00     0.027 C  
HETATM   13  C   UNL     1     -10.685  16.372  69.112  1.00  0.00    -0.317 C  
HETATM   14  C   UNL     1      -6.556  15.284  69.333  1.00  0.00    -0.152 C  
HETATM   15  C   UNL     1     -11.022  17.307  67.987  1.00  0.00    -0.194 C  
HETATM   16  O   UNL     1     -11.670  15.360  68.960  1.00  0.00    -0.332 OA 
HETATM   17  C   UNL     1      -6.870  16.681  68.730  1.00  0.00    -0.180 C  
HETATM   18  C   UNL     1     -10.331  18.636  68.160  1.00  0.00    -0.402 C  
HETATM   19  C   UNL     1      -8.284  17.202  69.052  1.00  0.00    -0.107 C  
HETATM   20  H   UNL     1     -12.581  15.606  69.065  1.00  0.00     0.000 HD 
HETATM   21  C   UNL     1      -8.178  19.773  68.829  1.00  0.00    -0.208 C  
HETATM   22  C   UNL     1     -11.009  19.585  67.155  1.00  0.00    -0.459 C  
HETATM   23  C   UNL     1      -8.772  18.511  68.142  1.00  0.00    -0.330 C  
HETATM   24  C   UNL     1     -10.431  19.707  65.758  1.00  0.00    -0.444 C  
HETATM   25  C   UNL     1      -8.286  18.528  66.649  1.00  0.00    -0.288 C  
HETATM   26  H   UNL     1     -10.695  18.892  63.961  1.00  0.00     0.000 HD 
HETATM   27  O   UNL     1     -11.057  18.816  64.836  1.00  0.00    -0.404 OA 
HETATM   28  C   UNL     1      -8.918  19.591  65.709  1.00  0.00     0.126 C  
ENDROOT
BRANCH   6  29
HETATM   29  C   UNL     1      -9.083  11.076  64.980  1.00  0.00    -0.182 C  
BRANCH  29  30
HETATM   30  C   UNL     1     -10.086  11.211  63.871  1.00  0.00    -0.348 C  
HETATM   31  O   UNL     1      -9.828  10.870  62.723  1.00  0.00    -0.289 OA 
HETATM   32  N   UNL     1     -11.293  11.774  64.245  1.00  0.00    -0.340 N  
HETATM   33  H   UNL     1     -11.460  11.997  65.226  1.00  0.00     0.000 HD 
BRANCH  32  34
HETATM   34  C   UNL     1     -12.321  12.051  63.268  1.00  0.00    -0.438 C  
BRANCH  34  35
HETATM   35  C   UNL     1     -12.507  13.554  63.061  1.00  0.00     0.444 C  
HETATM   36  S   UNL     1     -12.170  14.425  64.571  1.00  0.00    -0.421 S  
HETATM   37  O   UNL     1     -12.540  15.914  64.065  1.00  0.00    -0.661 OA 
HETATM   38  O   UNL     1     -10.759  14.393  64.871  1.00  0.00    -0.388 OA 
HETATM   39  O   UNL     1     -13.178  14.080  65.551  1.00  0.00    -0.710 OA 
ENDBRANCH  34  35
ENDBRANCH  32  34
ENDBRANCH  29  30
ENDBRANCH   6  29
TORSDOF 4
ENDMDL
MODEL       53
REMARK 921   NORMALIZED FREE ENERGY PREDICTED BY IDOCK:   -6.09 KCAL/MOL
REMARK 922        TOTAL FREE ENERGY PREDICTED BY IDOCK:   -8.34 KCAL/MOL
REMARK 923 INTER-LIGAND FREE ENERGY PREDICTED BY IDOCK:   -7.10 KCAL/MOL
REMARK 924 INTRA-LIGAND FREE ENERGY PREDICTED BY IDOCK:   -1.24 KCAL/MOL
REMARK 927      BINDING AFFINITY PREDICTED BY RF-SCORE:    0.00 PKD
ROOT
HETATM    1  C   UNL     1     -10.816   7.396  70.395  1.00  0.00    -0.258 C  
HETATM    2  C   UNL     1     -11.772   7.314  71.843  1.00  0.00    -0.323 C  
HETATM    3  C   UNL     1      -9.816   8.308  71.102  1.00  0.00    -0.219 C  
HETATM    4  C   UNL     1     -12.581   6.125  72.347  1.00  0.00     0.110 C  
HETATM    5  C   UNL     1      -8.877   7.225  71.658  1.00  0.00    -0.123 C  
HETATM    6  C   UNL     1     -12.472   8.682  72.321  1.00  0.00    -0.460 C  
HETATM    7  C   UNL     1     -10.224   4.846  69.935  1.00  0.00    -0.299 C  
HETATM    8  C   UNL     1      -8.291   6.723  70.387  1.00  0.00    -0.130 C  
HETATM    9  C   UNL     1      -7.552   7.957  69.652  1.00  0.00    -0.098 C  
HETATM   10  H   UNL     1      -9.985   4.499  67.698  1.00  0.00     0.000 HD 
HETATM   11  O   UNL     1      -9.493   5.158  67.223  1.00  0.00    -0.121 OA 
HETATM   12  C   UNL     1      -9.625   6.247  69.650  1.00  0.00    -0.163 C  
HETATM   13  C   UNL     1      -6.600   8.755  70.562  1.00  0.00    -0.042 C  
HETATM   14  C   UNL     1      -8.849   5.993  68.195  1.00  0.00    -0.111 C  
HETATM   15  C   UNL     1      -6.420  10.107  69.934  1.00  0.00    -0.086 C  
HETATM   16  O   UNL     1      -7.052   9.092  71.865  1.00  0.00    -0.314 OA 
HETATM   17  C   UNL     1      -8.044   7.072  67.418  1.00  0.00    -0.116 C  
HETATM   18  C   UNL     1      -5.612  10.013  68.666  1.00  0.00    -0.038 C  
HETATM   19  C   UNL     1      -6.941   7.754  68.250  1.00  0.00    -0.079 C  
HETATM   20  H   UNL     1      -6.465   9.584  72.427  1.00  0.00     0.000 HD 
HETATM   21  C   UNL     1      -5.223   8.677  66.558  1.00  0.00    -0.034 C  
HETATM   22  C   UNL     1      -5.222  11.462  68.319  1.00  0.00    -0.039 C  
HETATM   23  C   UNL     1      -6.308   9.139  67.572  1.00  0.00    -0.063 C  
HETATM   24  C   UNL     1      -6.140  12.272  67.422  1.00  0.00    -0.153 C  
HETATM   25  C   UNL     1      -7.322  10.041  66.780  1.00  0.00    -0.095 C  
HETATM   26  H   UNL     1      -7.648  13.559  67.610  1.00  0.00     0.000 HD 
HETATM   27  O   UNL     1      -7.073  13.051  68.171  1.00  0.00    -0.083 OA 
HETATM   28  C   UNL     1      -6.830  11.450  66.349  1.00  0.00    -0.003 C  
ENDROOT
BRANCH   6  29
HETATM   29  C   UNL     1     -13.421   9.435  71.404  1.00  0.00    -0.403 C  
BRANCH  29  30
HETATM   30  C   UNL     1     -12.789  10.630  70.751  1.00  0.00    -0.352 C  
HETATM   31  O   UNL     1     -12.718  11.713  71.319  1.00  0.00    -0.393 OA 
HETATM   32  N   UNL     1     -12.333  10.414  69.463  1.00  0.00    -0.541 N  
HETATM   33  H   UNL     1     -12.383   9.477  69.062  1.00  0.00     0.000 HD 
BRANCH  32  34
HETATM   34  C   UNL     1     -11.784  11.495  68.676  1.00  0.00    -0.326 C  
BRANCH  34  35
HETATM   35  C   UNL     1     -11.019  10.970  67.461  1.00  0.00    -0.281 C  
HETATM   36  S   UNL     1     -10.966  12.207  66.190  1.00  0.00    -0.311 S  
HETATM   37  O   UNL     1     -10.211  11.340  65.055  1.00  0.00    -0.252 OA 
HETATM   38  O   UNL     1     -10.096  13.292  66.575  1.00  0.00    -0.262 OA 
HETATM   39  O   UNL     1     -12.306  12.430  65.690  1.00  0.00    -0.639 OA 
ENDBRANCH  34  35
ENDBRANCH  32  34
ENDBRANCH  29  30
ENDBRANCH   6  29
TORSDOF 4
ENDMDL
MODEL       54
REMARK 921   NORMALIZED FREE ENERGY PREDICTED BY IDOCK:   -6.08 KCAL/MOL
REMARK 922        TOTAL FREE ENERGY PREDICTED BY IDOCK:   -8.33 KCAL/MOL
REMARK 923 INTER-LIGAND FREE ENERGY PREDICTED BY IDOCK:   -7.60 KCAL/MOL
REMARK 924 INTRA-LIGAND FREE ENERGY PREDICTED BY IDOCK:   -0.73 KCAL/MOL
REMARK 927      BINDING AFFINITY PREDICTED BY RF-SCORE:    0.00 PKD
ROOT
HETATM    1  C   UNL     1      -9.965  11.533  67.493  1.00  0.00    -0.207 C  
HETATM    2  C   UNL     1     -11.332  12.573  67.236  1.00  0.00    -0.373 C  
HETATM    3  C   UNL     1     -10.712  10.822  68.619  1.00  0.00    -0.242 C  
HETATM    4  C   UNL     1     -11.817  13.146  65.910  1.00  0.00    -0.453 C  
HETATM    5  C   UNL     1     -11.386   9.723  67.782  1.00  0.00     0.195 C  
HETATM    6  C   UNL     1     -11.695  13.592  68.427  1.00  0.00    -0.393 C  
HETATM    7  C   UNL     1      -9.659  10.364  65.127  1.00  0.00    -0.329 C  
HETATM    8  C   UNL     1     -10.190   8.932  67.393  1.00  0.00    -0.313 C  
HETATM    9  C   UNL     1      -9.466   8.417  68.742  1.00  0.00    -0.147 C  
HETATM   10  H   UNL     1      -7.466   9.858  64.790  1.00  0.00     0.000 HD 
HETATM   11  O   UNL     1      -7.006   9.481  65.531  1.00  0.00    -0.084 OA 
HETATM   12  C   UNL     1      -9.366  10.060  66.618  1.00  0.00    -0.202 C  
HETATM   13  C   UNL     1     -10.417   7.745  69.750  1.00  0.00    -0.233 C  
HETATM   14  C   UNL     1      -7.991   9.122  66.509  1.00  0.00    -0.100 C  
HETATM   15  C   UNL     1      -9.751   7.808  71.094  1.00  0.00    -0.175 C  
HETATM   16  O   UNL     1     -11.664   8.373  70.009  1.00  0.00    -0.455 OA 
HETATM   17  C   UNL     1      -7.238   8.506  67.721  1.00  0.00    -0.084 C  
HETATM   18  C   UNL     1      -8.557   6.890  71.152  1.00  0.00    -0.131 C  
HETATM   19  C   UNL     1      -8.128   7.656  68.648  1.00  0.00    -0.127 C  
HETATM   20  H   UNL     1     -12.251   7.959  70.630  1.00  0.00     0.000 HD 
HETATM   21  C   UNL     1      -6.544   6.036  69.887  1.00  0.00    -0.047 C  
HETATM   22  C   UNL     1      -8.183   6.796  72.643  1.00  0.00    -0.109 C  
HETATM   23  C   UNL     1      -7.447   7.281  70.122  1.00  0.00    -0.088 C  
HETATM   24  C   UNL     1      -7.183   7.785  73.211  1.00  0.00    -0.100 C  
HETATM   25  C   UNL     1      -6.539   8.392  70.761  1.00  0.00    -0.039 C  
HETATM   26  H   UNL     1      -7.193   9.547  74.138  1.00  0.00     0.000 HD 
HETATM   27  O   UNL     1      -7.820   8.928  73.782  1.00  0.00    -0.380 OA 
HETATM   28  C   UNL     1      -6.091   8.182  72.233  1.00  0.00    -0.050 C  
ENDROOT
BRANCH   6  29
HETATM   29  C   UNL     1     -10.674  14.598  68.931  1.00  0.00    -0.251 C  
BRANCH  29  30
HETATM   30  C   UNL     1      -9.891  15.249  67.828  1.00  0.00    -0.220 C  
HETATM   31  O   UNL     1      -8.765  14.871  67.526  1.00  0.00    -0.170 OA 
HETATM   32  N   UNL     1     -10.526  16.315  67.216  1.00  0.00    -0.298 N  
HETATM   33  H   UNL     1     -11.480  16.553  67.485  1.00  0.00     0.000 HD 
BRANCH  32  34
HETATM   34  C   UNL     1      -9.859  17.096  66.200  1.00  0.00    -0.262 C  
BRANCH  34  35
HETATM   35  C   UNL     1     -10.117  18.592  66.385  1.00  0.00    -0.405 C  
HETATM   36  S   UNL     1      -9.314  19.174  67.857  1.00  0.00    -0.327 S  
HETATM   37  O   UNL     1      -9.844  20.699  67.822  1.00  0.00    -0.373 OA 
HETATM   38  O   UNL     1      -7.882  19.194  67.678  1.00  0.00    -0.250 OA 
HETATM   39  O   UNL     1      -9.940  18.565  69.010  1.00  0.00    -0.378 OA 
ENDBRANCH  34  35
ENDBRANCH  32  34
ENDBRANCH  29  30
ENDBRANCH   6  29
TORSDOF 4
ENDMDL
MODEL       55
REMARK 921   NORMALIZED FREE ENERGY PREDICTED BY IDOCK:   -6.02 KCAL/MOL
REMARK 922        TOTAL FREE ENERGY PREDICTED BY IDOCK:   -8.25 KCAL/MOL
REMARK 923 INTER-LIGAND FREE ENERGY PREDICTED BY IDOCK:   -7.98 KCAL/MOL
REMARK 924 INTRA-LIGAND FREE ENERGY PREDICTED BY IDOCK:   -0.27 KCAL/MOL
REMARK 927      BINDING AFFINITY PREDICTED BY RF-SCORE:    0.00 PKD
ROOT
HETATM    1  C   UNL     1      -8.539   7.740  67.263  1.00  0.00    -0.128 C  
HETATM    2  C   UNL     1      -8.996   9.115  66.307  1.00  0.00    -0.194 C  
HETATM    3  C   UNL     1      -9.678   8.032  68.236  1.00  0.00    -0.177 C  
HETATM    4  C   UNL     1      -8.904   9.257  64.792  1.00  0.00    -0.225 C  
HETATM    5  C   UNL     1     -10.773   7.193  67.558  1.00  0.00    -0.344 C  
HETATM    6  C   UNL     1      -8.818  10.560  66.993  1.00  0.00    -0.142 C  
HETATM    7  C   UNL     1      -8.724   5.731  65.532  1.00  0.00    -0.141 C  
HETATM    8  C   UNL     1     -10.237   5.829  67.805  1.00  0.00    -0.234 C  
HETATM    9  C   UNL     1     -10.106   5.621  69.402  1.00  0.00    -0.290 C  
HETATM   10  H   UNL     1      -7.225   4.105  66.071  1.00  0.00     0.000 HD 
HETATM   11  O   UNL     1      -7.158   3.887  66.993  1.00  0.00    -0.061 OA 
HETATM   12  C   UNL     1      -8.829   5.960  67.062  1.00  0.00    -0.112 C  
HETATM   13  C   UNL     1     -11.372   5.998  70.192  1.00  0.00    -0.281 C  
HETATM   14  C   UNL     1      -8.265   4.508  67.660  1.00  0.00    -0.099 C  
HETATM   15  C   UNL     1     -10.948   6.258  71.609  1.00  0.00    -0.310 C  
HETATM   16  O   UNL     1     -12.032   7.210  69.855  1.00  0.00    -0.558 OA 
HETATM   17  C   UNL     1      -8.156   4.153  69.169  1.00  0.00    -0.070 C  
HETATM   18  C   UNL     1     -10.536   4.981  72.295  1.00  0.00    -0.275 C  
HETATM   19  C   UNL     1      -9.470   4.329  69.954  1.00  0.00    -0.260 C  
HETATM   20  H   UNL     1     -12.814   7.442  70.342  1.00  0.00     0.000 HD 
HETATM   21  C   UNL     1      -9.287   2.802  72.028  1.00  0.00    -0.176 C  
HETATM   22  C   UNL     1     -10.454   5.327  73.793  1.00  0.00    -0.304 C  
HETATM   23  C   UNL     1      -9.304   4.300  71.612  1.00  0.00    -0.199 C  
HETATM   24  C   UNL     1      -9.133   5.809  74.362  1.00  0.00    -0.126 C  
HETATM   25  C   UNL     1      -7.993   4.951  72.182  1.00  0.00    -0.110 C  
HETATM   26  H   UNL     1      -8.207   7.535  74.721  1.00  0.00     0.000 HD 
HETATM   27  O   UNL     1      -9.034   7.233  74.365  1.00  0.00    -0.216 OA 
HETATM   28  C   UNL     1      -7.918   5.165  73.719  1.00  0.00    -0.105 C  
ENDROOT
BRANCH   6  29
HETATM   29  C   UNL     1      -7.463  11.018  67.506  1.00  0.00    -0.102 C  
BRANCH  29  30
HETATM   30  C   UNL     1      -7.202  12.477  67.266  1.00  0.00    -0.114 C  
HETATM   31  O   UNL     1      -6.075  12.902  67.043  1.00  0.00    -0.268 OA 
HETATM   32  N   UNL     1      -8.319  13.289  67.350  1.00  0.00    -0.184 N  
HETATM   33  H   UNL     1      -9.237  12.867  67.497  1.00  0.00     0.000 HD 
BRANCH  32  34
HETATM   34  C   UNL     1      -8.208  14.724  67.233  1.00  0.00    -0.213 C  
BRANCH  34  35
HETATM   35  C   UNL     1      -9.330  15.304  66.371  1.00  0.00    -0.296 C  
HETATM   36  S   UNL     1      -9.304  17.077  66.445  1.00  0.00    -0.260 S  
HETATM   37  O   UNL     1     -10.618  17.365  65.551  1.00  0.00    -0.595 OA 
HETATM   38  O   UNL     1      -8.159  17.597  65.737  1.00  0.00    -0.550 OA 
HETATM   39  O   UNL     1      -9.641  17.499  67.788  1.00  0.00    -0.260 OA 
ENDBRANCH  34  35
ENDBRANCH  32  34
ENDBRANCH  29  30
ENDBRANCH   6  29
TORSDOF 4
ENDMDL
MODEL       56
REMARK 921   NORMALIZED FREE ENERGY PREDICTED BY IDOCK:   -6.00 KCAL/MOL
REMARK 922        TOTAL FREE ENERGY PREDICTED BY IDOCK:   -8.23 KCAL/MOL
REMARK 923 INTER-LIGAND FREE ENERGY PREDICTED BY IDOCK:   -7.04 KCAL/MOL
REMARK 924 INTRA-LIGAND FREE ENERGY PREDICTED BY IDOCK:   -1.19 KCAL/MOL
REMARK 927      BINDING AFFINITY PREDICTED BY RF-SCORE:    0.00 PKD
ROOT
HETATM    1  C   UNL     1     -11.212  12.892  69.620  1.00  0.00    -0.072 C  
HETATM    2  C   UNL     1     -11.763  11.288  69.248  1.00  0.00    -0.403 C  
HETATM    3  C   UNL     1     -10.892  13.128  68.145  1.00  0.00    -0.271 C  
HETATM    4  C   UNL     1     -12.895  10.523  69.923  1.00  0.00     0.078 C  
HETATM    5  C   UNL     1     -12.251  13.700  67.710  1.00  0.00    -0.201 C  
HETATM    6  C   UNL     1     -10.652  10.250  68.721  1.00  0.00    -0.231 C  
HETATM    7  C   UNL     1     -13.352  14.009  70.732  1.00  0.00    -0.086 C  
HETATM    8  C   UNL     1     -12.230  14.993  68.444  1.00  0.00    -0.009 C  
HETATM    9  C   UNL     1     -10.942  15.833  67.945  1.00  0.00    -0.324 C  
HETATM   10  H   UNL     1     -12.706  15.578  72.249  1.00  0.00     0.000 HD 
HETATM   11  O   UNL     1     -11.999  16.153  71.980  1.00  0.00    -0.479 OA 
HETATM   12  C   UNL     1     -12.094  14.446  69.939  1.00  0.00    -0.398 C  
HETATM   13  C   UNL     1     -10.806  15.927  66.415  1.00  0.00    -0.193 C  
HETATM   14  C   UNL     1     -11.804  15.962  70.573  1.00  0.00    -0.350 C  
HETATM   15  C   UNL     1      -9.369  16.244  66.119  1.00  0.00    -0.374 C  
HETATM   16  O   UNL     1     -11.010  14.745  65.654  1.00  0.00    -0.319 OA 
HETATM   17  C   UNL     1     -10.647  16.900  70.133  1.00  0.00     0.179 C  
HETATM   18  C   UNL     1      -9.025  17.651  66.537  1.00  0.00    -0.283 C  
HETATM   19  C   UNL     1     -10.603  17.178  68.618  1.00  0.00    -0.352 C  
HETATM   20  H   UNL     1     -10.927  14.803  64.710  1.00  0.00     0.000 HD 
HETATM   21  C   UNL     1      -9.332  19.407  68.325  1.00  0.00    -0.414 C  
HETATM   22  C   UNL     1      -7.663  17.952  65.886  1.00  0.00    -0.141 C  
HETATM   23  C   UNL     1      -9.191  17.879  68.075  1.00  0.00    -0.267 C  
HETATM   24  C   UNL     1      -6.396  17.640  66.661  1.00  0.00    -0.200 C  
HETATM   25  C   UNL     1      -7.874  17.415  68.795  1.00  0.00    -0.250 C  
HETATM   26  H   UNL     1      -5.091  16.147  66.841  1.00  0.00     0.000 HD 
HETATM   27  O   UNL     1      -5.884  16.343  66.356  1.00  0.00    -0.175 OA 
HETATM   28  C   UNL     1      -6.527  17.853  68.158  1.00  0.00    -0.189 C  
ENDROOT
BRANCH   6  29
HETATM   29  C   UNL     1      -9.423   9.933  69.554  1.00  0.00    -0.239 C  
BRANCH  29  30
HETATM   30  C   UNL     1      -8.185  10.631  69.069  1.00  0.00    -0.151 C  
HETATM   31  O   UNL     1      -7.940  10.755  67.875  1.00  0.00    -0.107 OA 
HETATM   32  N   UNL     1      -7.343  11.083  70.069  1.00  0.00    -0.292 N  
HETATM   33  H   UNL     1      -7.625  10.987  71.045  1.00  0.00     0.000 HD 
BRANCH  32  34
HETATM   34  C   UNL     1      -6.071  11.692  69.755  1.00  0.00    -0.131 C  
BRANCH  34  35
HETATM   35  C   UNL     1      -5.702  12.773  70.770  1.00  0.00    -0.131 C  
HETATM   36  S   UNL     1      -6.092  14.379  70.122  1.00  0.00    -0.169 S  
HETATM   37  O   UNL     1      -5.511  15.267  71.340  1.00  0.00    -0.061 OA 
HETATM   38  O   UNL     1      -7.521  14.571  70.070  1.00  0.00     0.055 OA 
HETATM   39  O   UNL     1      -5.232  14.654  68.990  1.00  0.00    -0.088 OA 
ENDBRANCH  34  35
ENDBRANCH  32  34
ENDBRANCH  29  30
ENDBRANCH   6  29
TORSDOF 4
ENDMDL
MODEL       57
REMARK 921   NORMALIZED FREE ENERGY PREDICTED BY IDOCK:   -5.90 KCAL/MOL
REMARK 922        TOTAL FREE ENERGY PREDICTED BY IDOCK:   -8.10 KCAL/MOL
REMARK 923 INTER-LIGAND FREE ENERGY PREDICTED BY IDOCK:   -6.52 KCAL/MOL
REMARK 924 INTRA-LIGAND FREE ENERGY PREDICTED BY IDOCK:   -1.58 KCAL/MOL
REMARK 927      BINDING AFFINITY PREDICTED BY RF-SCORE:    0.00 PKD
ROOT
HETATM    1  C   UNL     1      -9.113   5.409  70.661  1.00  0.00    -0.172 C  
HETATM    2  C   UNL     1      -9.622   3.759  70.852  1.00  0.00    -0.256 C  
HETATM    3  C   UNL     1      -9.709   5.434  69.255  1.00  0.00    -0.224 C  
HETATM    4  C   UNL     1     -10.093   3.083  72.134  1.00  0.00    -0.202 C  
HETATM    5  C   UNL     1     -11.123   5.916  69.620  1.00  0.00    -0.414 C  
HETATM    6  C   UNL     1      -8.913   2.672  69.900  1.00  0.00    -0.163 C  
HETATM    7  C   UNL     1     -10.340   6.642  72.670  1.00  0.00    -0.219 C  
HETATM    8  C   UNL     1     -10.812   7.301  70.061  1.00  0.00    -0.271 C  
HETATM    9  C   UNL     1     -10.121   8.079  68.825  1.00  0.00    -0.206 C  
HETATM   10  H   UNL     1      -9.102   8.424  73.357  1.00  0.00     0.000 HD 
HETATM   11  O   UNL     1      -8.730   8.964  72.669  1.00  0.00    -0.373 OA 
HETATM   12  C   UNL     1      -9.803   6.978  71.256  1.00  0.00    -0.178 C  
HETATM   13  C   UNL     1     -10.886   7.953  67.495  1.00  0.00    -0.082 C  
HETATM   14  C   UNL     1      -9.350   8.574  71.437  1.00  0.00    -0.211 C  
HETATM   15  C   UNL     1      -9.908   8.246  66.394  1.00  0.00    -0.283 C  
HETATM   16  O   UNL     1     -11.372   6.671  67.125  1.00  0.00    -0.724 OA 
HETATM   17  C   UNL     1      -8.742   9.457  70.312  1.00  0.00    -0.261 C  
HETATM   18  C   UNL     1      -9.524   9.703  66.381  1.00  0.00    -0.244 C  
HETATM   19  C   UNL     1      -9.590   9.513  69.028  1.00  0.00    -0.166 C  
HETATM   20  H   UNL     1     -11.844   6.593  66.304  1.00  0.00     0.000 HD 
HETATM   21  C   UNL     1      -8.929  11.695  67.816  1.00  0.00    -0.170 C  
HETATM   22  C   UNL     1      -8.806   9.928  65.038  1.00  0.00    -0.220 C  
HETATM   23  C   UNL     1      -8.810  10.149  67.699  1.00  0.00    -0.125 C  
HETATM   24  C   UNL     1      -7.301   9.750  64.973  1.00  0.00    -0.128 C  
HETATM   25  C   UNL     1      -7.280   9.814  67.577  1.00  0.00    -0.089 C  
HETATM   26  H   UNL     1      -5.988   8.319  64.534  1.00  0.00     0.000 HD 
HETATM   27  O   UNL     1      -6.931   8.430  64.574  1.00  0.00    -0.071 OA 
HETATM   28  C   UNL     1      -6.579  10.176  66.239  1.00  0.00    -0.094 C  
ENDROOT
BRANCH   6  29
HETATM   29  C   UNL     1      -7.404   2.498  69.905  1.00  0.00    -0.043 C  
BRANCH  29  30
HETATM   30  C   UNL     1      -6.760   2.883  68.604  1.00  0.00    -0.037 C  
HETATM   31  O   UNL     1      -5.576   3.191  68.536  1.00  0.00    -0.016 OA 
HETATM   32  N   UNL     1      -7.613   2.893  67.514  1.00  0.00    -0.064 N  
HETATM   33  H   UNL     1      -8.579   2.585  67.630  1.00  0.00     0.000 HD 
BRANCH  32  34
HETATM   34  C   UNL     1      -7.158   3.331  66.215  1.00  0.00    -0.062 C  
BRANCH  34  35
HETATM   35  C   UNL     1      -8.160   2.970  65.120  1.00  0.00    -0.086 C  
HETATM   36  S   UNL     1      -9.379   4.250  64.960  1.00  0.00    -0.172 S  
HETATM   37  O   UNL     1     -10.309   3.546  63.841  1.00  0.00    -0.202 OA 
HETATM   38  O   UNL     1      -8.797   5.434  64.375  1.00  0.00    -0.072 OA 
HETATM   39  O   UNL     1     -10.179   4.295  66.165  1.00  0.00    -0.221 OA 
ENDBRANCH  34  35
ENDBRANCH  32  34
ENDBRANCH  29  30
ENDBRANCH   6  29
TORSDOF 4
ENDMDL
MODEL       58
REMARK 921   NORMALIZED FREE ENERGY PREDICTED BY IDOCK:   -5.89 KCAL/MOL
REMARK 922        TOTAL FREE ENERGY PREDICTED BY IDOCK:   -8.09 KCAL/MOL
REMARK 923 INTER-LIGAND FREE ENERGY PREDICTED BY IDOCK:   -6.32 KCAL/MOL
REMARK 924 INTRA-LIGAND FREE ENERGY PREDICTED BY IDOCK:   -1.77 KCAL/MOL
REMARK 927      BINDING AFFINITY PREDICTED BY RF-SCORE:    0.00 PKD
ROOT
HETATM    1  C   UNL     1      -8.049   5.872  66.947  1.00  0.00    -0.102 C  
HETATM    2  C   UNL     1      -8.285   6.689  65.433  1.00  0.00    -0.138 C  
HETATM    3  C   UNL     1      -9.176   6.693  67.570  1.00  0.00    -0.114 C  
HETATM    4  C   UNL     1      -8.119   6.105  64.035  1.00  0.00    -0.074 C  
HETATM    5  C   UNL     1     -10.346   5.749  67.247  1.00  0.00    -0.284 C  
HETATM    6  C   UNL     1      -7.944   8.261  65.403  1.00  0.00    -0.127 C  
HETATM    7  C   UNL     1      -8.432   3.321  66.307  1.00  0.00    -0.108 C  
HETATM    8  C   UNL     1     -10.004   4.607  68.135  1.00  0.00    -0.127 C  
HETATM    9  C   UNL     1      -9.961   5.149  69.657  1.00  0.00    -0.313 C  
HETATM   10  H   UNL     1      -7.182   1.986  67.663  1.00  0.00     0.000 HD 
HETATM   11  O   UNL     1      -7.180   2.214  68.585  1.00  0.00    -0.043 OA 
HETATM   12  C   UNL     1      -8.564   4.239  67.549  1.00  0.00    -0.108 C  
HETATM   13  C   UNL     1     -11.195   5.972  70.067  1.00  0.00    -0.355 C  
HETATM   14  C   UNL     1      -8.219   3.179  68.791  1.00  0.00    -0.060 C  
HETATM   15  C   UNL     1     -10.794   6.813  71.245  1.00  0.00    -0.266 C  
HETATM   16  O   UNL     1     -11.676   6.950  69.157  1.00  0.00    -0.539 OA 
HETATM   17  C   UNL     1      -8.214   3.552  70.300  1.00  0.00    -0.075 C  
HETATM   18  C   UNL     1     -10.580   5.963  72.471  1.00  0.00    -0.256 C  
HETATM   19  C   UNL     1      -9.522   4.201  70.792  1.00  0.00    -0.242 C  
HETATM   20  H   UNL     1     -12.438   7.458  69.410  1.00  0.00     0.000 HD 
HETATM   21  C   UNL     1      -9.619   3.794  73.340  1.00  0.00    -0.136 C  
HETATM   22  C   UNL     1     -10.509   6.952  73.650  1.00  0.00    -0.400 C  
HETATM   23  C   UNL     1      -9.424   4.925  72.290  1.00  0.00    -0.173 C  
HETATM   24  C   UNL     1      -9.157   7.507  74.059  1.00  0.00    -0.245 C  
HETATM   25  C   UNL     1      -8.061   5.630  72.623  1.00  0.00    -0.102 C  
HETATM   26  H   UNL     1      -8.026   9.101  73.681  1.00  0.00     0.000 HD 
HETATM   27  O   UNL     1      -8.873   8.753  73.425  1.00  0.00    -0.245 OA 
HETATM   28  C   UNL     1      -8.015   6.521  73.895  1.00  0.00    -0.106 C  
ENDROOT
BRANCH   6  29
HETATM   29  C   UNL     1      -6.561   8.766  65.777  1.00  0.00    -0.060 C  
BRANCH  29  30
HETATM   30  C   UNL     1      -6.557   9.619  67.013  1.00  0.00    -0.067 C  
HETATM   31  O   UNL     1      -5.514   9.973  67.549  1.00  0.00    -0.038 OA 
HETATM   32  N   UNL     1      -7.811   9.935  67.505  1.00  0.00    -0.098 N  
HETATM   33  H   UNL     1      -8.641   9.645  66.987  1.00  0.00     0.000 HD 
BRANCH  32  34
HETATM   34  C   UNL     1      -7.965  10.672  68.738  1.00  0.00    -0.135 C  
BRANCH  34  35
HETATM   35  C   UNL     1      -9.056  10.065  69.620  1.00  0.00    -0.210 C  
HETATM   36  S   UNL     1     -10.658  10.444  68.957  1.00  0.00    -0.237 S  
HETATM   37  O   UNL     1     -11.555   9.778  70.125  1.00  0.00    -0.243 OA 
HETATM   38  O   UNL     1     -10.890   9.705  67.740  1.00  0.00    -0.270 OA 
HETATM   39  O   UNL     1     -10.885  11.870  69.052  1.00  0.00    -0.222 OA 
ENDBRANCH  34  35
ENDBRANCH  32  34
ENDBRANCH  29  30
ENDBRANCH   6  29
TORSDOF 4
ENDMDL
MODEL       59
REMARK 921   NORMALIZED FREE ENERGY PREDICTED BY IDOCK:   -5.85 KCAL/MOL
REMARK 922        TOTAL FREE ENERGY PREDICTED BY IDOCK:   -8.04 KCAL/MOL
REMARK 923 INTER-LIGAND FREE ENERGY PREDICTED BY IDOCK:   -6.76 KCAL/MOL
REMARK 924 INTRA-LIGAND FREE ENERGY PREDICTED BY IDOCK:   -1.28 KCAL/MOL
REMARK 927      BINDING AFFINITY PREDICTED BY RF-SCORE:    0.00 PKD
ROOT
HETATM    1  C   UNL     1      -7.573  14.374  68.939  1.00  0.00    -0.128 C  
HETATM    2  C   UNL     1      -7.834  15.810  67.998  1.00  0.00    -0.138 C  
HETATM    3  C   UNL     1      -7.780  13.515  67.694  1.00  0.00    -0.180 C  
HETATM    4  C   UNL     1      -7.168  17.168  68.184  1.00  0.00    -0.193 C  
HETATM    5  C   UNL     1      -6.321  13.461  67.213  1.00  0.00     0.204 C  
HETATM    6  C   UNL     1      -9.310  16.013  67.390  1.00  0.00    -0.220 C  
HETATM    7  C   UNL     1      -5.135  14.752  69.928  1.00  0.00    -0.093 C  
HETATM    8  C   UNL     1      -5.726  12.638  68.299  1.00  0.00    -0.062 C  
HETATM    9  C   UNL     1      -6.490  11.215  68.329  1.00  0.00    -0.057 C  
HETATM   10  H   UNL     1      -4.948  13.714  71.945  1.00  0.00     0.000 HD 
HETATM   11  O   UNL     1      -5.316  12.840  72.000  1.00  0.00    -0.383 OA 
HETATM   12  C   UNL     1      -6.065  13.570  69.552  1.00  0.00    -0.112 C  
HETATM   13  C   UNL     1      -6.602  10.532  66.954  1.00  0.00    -0.081 C  
HETATM   14  C   UNL     1      -5.608  12.413  70.663  1.00  0.00    -0.168 C  
HETATM   15  C   UNL     1      -7.736   9.552  67.039  1.00  0.00    -0.091 C  
HETATM   16  O   UNL     1      -6.984  11.329  65.843  1.00  0.00    -0.369 OA 
HETATM   17  C   UNL     1      -6.210  10.983  70.754  1.00  0.00     0.139 C  
HETATM   18  C   UNL     1      -7.381   8.385  67.925  1.00  0.00    -0.096 C  
HETATM   19  C   UNL     1      -6.154  10.192  69.433  1.00  0.00    -0.041 C  
HETATM   20  H   UNL     1      -7.052  10.908  64.994  1.00  0.00     0.000 HD 
HETATM   21  C   UNL     1      -6.257   7.694  70.079  1.00  0.00    -0.027 C  
HETATM   22  C   UNL     1      -8.464   7.323  67.660  1.00  0.00    -0.116 C  
HETATM   23  C   UNL     1      -7.094   8.816  69.401  1.00  0.00    -0.057 C  
HETATM   24  C   UNL     1      -9.714   7.322  68.521  1.00  0.00    -0.149 C  
HETATM   25  C   UNL     1      -8.460   8.900  70.172  1.00  0.00    -0.150 C  
HETATM   26  H   UNL     1     -11.557   8.074  68.471  1.00  0.00     0.000 HD 
HETATM   27  O   UNL     1     -10.774   8.075  67.932  1.00  0.00    -0.174 OA 
HETATM   28  C   UNL     1      -9.466   7.735  69.961  1.00  0.00    -0.161 C  
ENDROOT
BRANCH   6  29
HETATM   29  C   UNL     1     -10.528  16.052  68.297  1.00  0.00    -0.269 C  
BRANCH  29  30
HETATM   30  C   UNL     1     -11.209  14.721  68.429  1.00  0.00    -0.284 C  
HETATM   31  O   UNL     1     -11.714  14.156  67.466  1.00  0.00    -0.344 OA 
HETATM   32  N   UNL     1     -11.247  14.212  69.715  1.00  0.00    -0.420 N  
HETATM   33  H   UNL     1     -10.770  14.711  70.466  1.00  0.00     0.000 HD 
BRANCH  32  34
HETATM   34  C   UNL     1     -11.949  12.984  70.011  1.00  0.00    -0.312 C  
BRANCH  34  35
HETATM   35  C   UNL     1     -12.735  13.091  71.318  1.00  0.00    -0.293 C  
HETATM   36  S   UNL     1     -12.727  14.767  71.901  1.00  0.00    -0.346 S  
HETATM   37  O   UNL     1     -13.519  14.532  73.290  1.00  0.00    -0.581 OA 
HETATM   38  O   UNL     1     -13.546  15.602  71.056  1.00  0.00    -0.588 OA 
HETATM   39  O   UNL     1     -11.377  15.131  72.275  1.00  0.00    -0.416 OA 
ENDBRANCH  34  35
ENDBRANCH  32  34
ENDBRANCH  29  30
ENDBRANCH   6  29
TORSDOF 4
ENDMDL
MODEL       60
REMARK 921   NORMALIZED FREE ENERGY PREDICTED BY IDOCK:   -5.82 KCAL/MOL
REMARK 922        TOTAL FREE ENERGY PREDICTED BY IDOCK:   -8.01 KCAL/MOL
REMARK 923 INTER-LIGAND FREE ENERGY PREDICTED BY IDOCK:   -6.91 KCAL/MOL
REMARK 924 INTRA-LIGAND FREE ENERGY PREDICTED BY IDOCK:   -1.10 KCAL/MOL
REMARK 927      BINDING AFFINITY PREDICTED BY RF-SCORE:    0.00 PKD
ROOT
HETATM    1  C   UNL     1      -8.170   9.396  67.833  1.00  0.00    -0.115 C  
HETATM    2  C   UNL     1      -7.008   8.304  68.521  1.00  0.00    -0.069 C  
HETATM    3  C   UNL     1      -7.548  10.554  68.610  1.00  0.00    -0.099 C  
HETATM    4  C   UNL     1      -6.380   7.087  67.853  1.00  0.00    -0.043 C  
HETATM    5  C   UNL     1      -6.514  10.998  67.562  1.00  0.00    -0.063 C  
HETATM    6  C   UNL     1      -7.105   8.057  70.108  1.00  0.00    -0.049 C  
HETATM    7  C   UNL     1      -7.745   9.141  65.222  1.00  0.00    -0.099 C  
HETATM    8  C   UNL     1      -7.427  11.527  66.514  1.00  0.00    -0.022 C  
HETATM    9  C   UNL     1      -8.300  12.721  67.164  1.00  0.00    -0.164 C  
HETATM   10  H   UNL     1      -9.681   9.512  64.083  1.00  0.00     0.000 HD 
HETATM   11  O   UNL     1     -10.202  10.251  64.375  1.00  0.00    -0.298 OA 
HETATM   12  C   UNL     1      -8.276  10.208  66.213  1.00  0.00    -0.127 C  
HETATM   13  C   UNL     1      -7.466  13.771  67.920  1.00  0.00    -0.152 C  
HETATM   14  C   UNL     1      -9.390  11.019  65.272  1.00  0.00    -0.216 C  
HETATM   15  C   UNL     1      -8.395  14.472  68.869  1.00  0.00    -0.112 C  
HETATM   16  O   UNL     1      -6.446  13.309  68.793  1.00  0.00    -0.086 OA 
HETATM   17  C   UNL     1     -10.242  12.228  65.750  1.00  0.00    -0.281 C  
HETATM   18  C   UNL     1      -9.374  15.345  68.127  1.00  0.00    -0.197 C  
HETATM   19  C   UNL     1      -9.415  13.389  66.334  1.00  0.00    -0.230 C  
HETATM   20  H   UNL     1      -5.931  13.957  69.259  1.00  0.00     0.000 HD 
HETATM   21  C   UNL     1     -10.875  15.507  66.102  1.00  0.00    -0.295 C  
HETATM   22  C   UNL     1     -10.022  16.240  69.199  1.00  0.00    -0.260 C  
HETATM   23  C   UNL     1     -10.300  14.530  67.167  1.00  0.00    -0.265 C  
HETATM   24  C   UNL     1     -11.291  15.764  69.881  1.00  0.00    -0.349 C  
HETATM   25  C   UNL     1     -11.519  13.982  67.994  1.00  0.00    -0.342 C  
HETATM   26  H   UNL     1     -11.815  14.769  71.524  1.00  0.00     0.000 HD 
HETATM   27  O   UNL     1     -11.020  15.067  71.097  1.00  0.00    -0.227 OA 
HETATM   28  C   UNL     1     -12.212  14.969  68.972  1.00  0.00    -0.160 C  
ENDROOT
BRANCH   6  29
HETATM   29  C   UNL     1      -8.383   7.534  70.739  1.00  0.00    -0.118 C  
BRANCH  29  30
HETATM   30  C   UNL     1      -9.227   8.616  71.350  1.00  0.00    -0.235 C  
HETATM   31  O   UNL     1      -8.884   9.202  72.370  1.00  0.00    -0.229 OA 
HETATM   32  N   UNL     1     -10.418   8.866  70.691  1.00  0.00    -0.208 N  
HETATM   33  H   UNL     1     -10.624   8.373  69.823  1.00  0.00     0.000 HD 
BRANCH  32  34
HETATM   34  C   UNL     1     -11.373   9.815  71.214  1.00  0.00    -0.375 C  
BRANCH  34  35
HETATM   35  C   UNL     1     -12.699   9.139  71.563  1.00  0.00    -0.341 C  
HETATM   36  S   UNL     1     -12.511   7.375  71.540  1.00  0.00    -0.373 S  
HETATM   37  O   UNL     1     -14.048   6.974  71.835  1.00  0.00    -0.326 OA 
HETATM   38  O   UNL     1     -11.712   6.936  72.659  1.00  0.00    -0.202 OA 
HETATM   39  O   UNL     1     -12.245   6.945  70.184  1.00  0.00    -0.185 OA 
ENDBRANCH  34  35
ENDBRANCH  32  34
ENDBRANCH  29  30
ENDBRANCH   6  29
TORSDOF 4
ENDMDL
MODEL       61
REMARK 921   NORMALIZED FREE ENERGY PREDICTED BY IDOCK:   -5.80 KCAL/MOL
REMARK 922        TOTAL FREE ENERGY PREDICTED BY IDOCK:   -7.98 KCAL/MOL
REMARK 923 INTER-LIGAND FREE ENERGY PREDICTED BY IDOCK:   -7.32 KCAL/MOL
REMARK 924 INTRA-LIGAND FREE ENERGY PREDICTED BY IDOCK:   -0.66 KCAL/MOL
REMARK 927      BINDING AFFINITY PREDICTED BY RF-SCORE:    0.00 PKD
ROOT
HETATM    1  C   UNL     1      -9.097   8.432  69.255  1.00  0.00    -0.150 C  
HETATM    2  C   UNL     1      -8.721   8.188  70.933  1.00  0.00    -0.152 C  
HETATM    3  C   UNL     1      -8.992   9.943  69.448  1.00  0.00    -0.204 C  
HETATM    4  C   UNL     1      -7.929   7.038  71.542  1.00  0.00    -0.103 C  
HETATM    5  C   UNL     1      -7.495  10.106  69.133  1.00  0.00    -0.098 C  
HETATM    6  C   UNL     1      -9.807   8.716  71.998  1.00  0.00    -0.396 C  
HETATM    7  C   UNL     1      -7.165   7.091  68.017  1.00  0.00    -0.095 C  
HETATM    8  C   UNL     1      -7.505   9.782  67.682  1.00  0.00    -0.091 C  
HETATM    9  C   UNL     1      -8.479  10.834  66.938  1.00  0.00    -0.131 C  
HETATM   10  H   UNL     1      -7.927   6.300  66.023  1.00  0.00     0.000 HD 
HETATM   11  O   UNL     1      -8.446   6.904  65.506  1.00  0.00    -0.144 OA 
HETATM   12  C   UNL     1      -8.097   8.300  67.746  1.00  0.00    -0.127 C  
HETATM   13  C   UNL     1      -8.206  12.306  67.295  1.00  0.00    -0.182 C  
HETATM   14  C   UNL     1      -8.304   8.204  66.094  1.00  0.00    -0.126 C  
HETATM   15  C   UNL     1      -9.455  13.077  66.977  1.00  0.00    -0.237 C  
HETATM   16  O   UNL     1      -7.998  12.632  68.662  1.00  0.00    -0.255 OA 
HETATM   17  C   UNL     1      -9.154   9.191  65.247  1.00  0.00    -0.252 C  
HETATM   18  C   UNL     1      -9.674  13.166  65.488  1.00  0.00    -0.061 C  
HETATM   19  C   UNL     1      -8.768  10.672  65.432  1.00  0.00    -0.195 C  
HETATM   20  H   UNL     1      -7.829  13.541  68.882  1.00  0.00     0.000 HD 
HETATM   21  C   UNL     1      -9.566  11.900  63.305  1.00  0.00    -0.187 C  
HETATM   22  C   UNL     1     -10.763  14.237  65.297  1.00  0.00    -0.377 C  
HETATM   23  C   UNL     1      -9.871  11.764  64.824  1.00  0.00    -0.238 C  
HETATM   24  C   UNL     1     -12.218  13.804  65.269  1.00  0.00    -0.439 C  
HETATM   25  C   UNL     1     -11.383  11.357  64.954  1.00  0.00    -0.109 C  
HETATM   26  H   UNL     1     -13.738  13.616  66.541  1.00  0.00     0.000 HD 
HETATM   27  O   UNL     1     -12.828  13.886  66.557  1.00  0.00    -0.184 OA 
HETATM   28  C   UNL     1     -12.441  12.446  64.629  1.00  0.00    -0.500 C  
ENDROOT
BRANCH   6  29
HETATM   29  C   UNL     1     -11.242   8.218  71.960  1.00  0.00    -0.389 C  
BRANCH  29  30
HETATM   30  C   UNL     1     -11.349   6.721  71.980  1.00  0.00    -0.272 C  
HETATM   31  O   UNL     1     -11.511   6.072  70.953  1.00  0.00    -0.284 OA 
HETATM   32  N   UNL     1     -11.283   6.150  73.238  1.00  0.00    -0.464 N  
HETATM   33  H   UNL     1     -11.104   6.742  74.049  1.00  0.00     0.000 HD 
BRANCH  32  34
HETATM   34  C   UNL     1     -11.463   4.728  73.422  1.00  0.00    -0.244 C  
BRANCH  34  35
HETATM   35  C   UNL     1     -10.130   4.023  73.672  1.00  0.00    -0.130 C  
HETATM   36  S   UNL     1      -9.785   2.884  72.355  1.00  0.00    -0.158 S  
HETATM   37  O   UNL     1      -8.419   2.255  72.945  1.00  0.00    -0.061 OA 
HETATM   38  O   UNL     1      -9.461   3.595  71.142  1.00  0.00    -0.138 OA 
HETATM   39  O   UNL     1     -10.758   1.814  72.388  1.00  0.00    -0.147 OA 
ENDBRANCH  34  35
ENDBRANCH  32  34
ENDBRANCH  29  30
ENDBRANCH   6  29
TORSDOF 4
ENDMDL
MODEL       62
REMARK 921   NORMALIZED FREE ENERGY PREDICTED BY IDOCK:   -5.77 KCAL/MOL
REMARK 922        TOTAL FREE ENERGY PREDICTED BY IDOCK:   -7.95 KCAL/MOL
REMARK 923 INTER-LIGAND FREE ENERGY PREDICTED BY IDOCK:   -6.38 KCAL/MOL
REMARK 924 INTRA-LIGAND FREE ENERGY PREDICTED BY IDOCK:   -1.57 KCAL/MOL
REMARK 927      BINDING AFFINITY PREDICTED BY RF-SCORE:    0.00 PKD
ROOT
HETATM    1  C   UNL     1     -10.287  12.243  69.073  1.00  0.00     0.008 C  
HETATM    2  C   UNL     1     -11.870  12.683  69.635  1.00  0.00    -0.379 C  
HETATM    3  C   UNL     1     -10.910  11.428  67.942  1.00  0.00    -0.274 C  
HETATM    4  C   UNL     1     -12.288  14.001  70.275  1.00  0.00    -0.425 C  
HETATM    5  C   UNL     1     -10.977  12.536  66.878  1.00  0.00    -0.296 C  
HETATM    6  C   UNL     1     -12.785  11.491  70.213  1.00  0.00    -0.085 C  
HETATM    7  C   UNL     1      -9.162  14.599  68.578  1.00  0.00    -0.193 C  
HETATM    8  C   UNL     1      -9.525  12.728  66.620  1.00  0.00    -0.249 C  
HETATM    9  C   UNL     1      -8.915  11.322  66.108  1.00  0.00    -0.210 C  
HETATM   10  H   UNL     1      -6.912  14.466  68.901  1.00  0.00     0.000 HD 
HETATM   11  O   UNL     1      -6.486  13.692  68.553  1.00  0.00    -0.077 OA 
HETATM   12  C   UNL     1      -9.047  13.132  68.090  1.00  0.00    -0.200 C  
HETATM   13  C   UNL     1      -9.718  10.665  64.971  1.00  0.00    -0.279 C  
HETATM   14  C   UNL     1      -7.429  13.031  67.699  1.00  0.00    -0.156 C  
HETATM   15  C   UNL     1      -9.370   9.204  64.973  1.00  0.00    -0.120 C  
HETATM   16  O   UNL     1     -11.133  10.632  65.087  1.00  0.00     0.099 OA 
HETATM   17  C   UNL     1      -6.731  11.764  67.131  1.00  0.00    -0.145 C  
HETATM   18  C   UNL     1      -7.954   8.981  64.507  1.00  0.00    -0.131 C  
HETATM   19  C   UNL     1      -7.398  11.193  65.865  1.00  0.00     0.112 C  
HETATM   20  H   UNL     1     -11.628  10.227  64.385  1.00  0.00     0.000 HD 
HETATM   21  C   UNL     1      -5.579   9.830  64.639  1.00  0.00    -0.079 C  
HETATM   22  C   UNL     1      -7.843   7.470  64.238  1.00  0.00    -0.133 C  
HETATM   23  C   UNL     1      -6.900   9.659  65.442  1.00  0.00    -0.094 C  
HETATM   24  C   UNL     1      -7.390   6.557  65.363  1.00  0.00    -0.076 C  
HETATM   25  C   UNL     1      -6.589   8.686  66.635  1.00  0.00    -0.060 C  
HETATM   26  H   UNL     1      -8.207   5.441  66.795  1.00  0.00     0.000 HD 
HETATM   27  O   UNL     1      -8.490   6.013  66.090  1.00  0.00    -0.123 OA 
HETATM   28  C   UNL     1      -6.364   7.188  66.287  1.00  0.00    -0.044 C  
ENDROOT
BRANCH   6  29
HETATM   29  C   UNL     1     -12.308  10.634  71.372  1.00  0.00    -0.455 C  
BRANCH  29  30
HETATM   30  C   UNL     1     -12.723   9.195  71.253  1.00  0.00    -0.278 C  
HETATM   31  O   UNL     1     -13.812   8.803  71.654  1.00  0.00    -0.387 OA 
HETATM   32  N   UNL     1     -11.772   8.361  70.693  1.00  0.00    -0.450 N  
HETATM   33  H   UNL     1     -10.901   8.758  70.340  1.00  0.00     0.000 HD 
BRANCH  32  34
HETATM   34  C   UNL     1     -11.993   6.937  70.598  1.00  0.00    -0.348 C  
BRANCH  34  35
HETATM   35  C   UNL     1     -10.715   6.198  70.198  1.00  0.00    -0.302 C  
HETATM   36  S   UNL     1      -9.402   7.357  69.916  1.00  0.00    -0.153 S  
HETATM   37  O   UNL     1      -8.270   6.311  69.431  1.00  0.00    -0.111 OA 
HETATM   38  O   UNL     1      -8.965   7.942  71.161  1.00  0.00    -0.134 OA 
HETATM   39  O   UNL     1      -9.720   8.159  68.753  1.00  0.00    -0.149 OA 
ENDBRANCH  34  35
ENDBRANCH  32  34
ENDBRANCH  29  30
ENDBRANCH   6  29
TORSDOF 4
ENDMDL
MODEL       63
REMARK 921   NORMALIZED FREE ENERGY PREDICTED BY IDOCK:   -5.77 KCAL/MOL
REMARK 922        TOTAL FREE ENERGY PREDICTED BY IDOCK:   -7.94 KCAL/MOL
REMARK 923 INTER-LIGAND FREE ENERGY PREDICTED BY IDOCK:   -6.41 KCAL/MOL
REMARK 924 INTRA-LIGAND FREE ENERGY PREDICTED BY IDOCK:   -1.54 KCAL/MOL
REMARK 927      BINDING AFFINITY PREDICTED BY RF-SCORE:    0.00 PKD
ROOT
HETATM    1  C   UNL     1      -9.174   9.025  65.974  1.00  0.00    -0.284 C  
HETATM    2  C   UNL     1      -7.832   8.601  64.956  1.00  0.00    -0.116 C  
HETATM    3  C   UNL     1      -8.404   8.537  67.199  1.00  0.00    -0.111 C  
HETATM    4  C   UNL     1      -7.367   9.320  63.696  1.00  0.00    -0.101 C  
HETATM    5  C   UNL     1      -7.711   9.859  67.568  1.00  0.00    -0.091 C  
HETATM    6  C   UNL     1      -7.485   7.033  64.839  1.00  0.00    -0.095 C  
HETATM    7  C   UNL     1      -9.467  11.625  65.510  1.00  0.00    -0.215 C  
HETATM    8  C   UNL     1      -8.892  10.653  67.998  1.00  0.00    -0.130 C  
HETATM    9  C   UNL     1      -9.596   9.882  69.231  1.00  0.00    -0.215 C  
HETATM   10  H   UNL     1     -11.651  12.215  65.762  1.00  0.00     0.000 HD 
HETATM   11  O   UNL     1     -12.098  11.849  66.516  1.00  0.00    -0.568 OA 
HETATM   12  C   UNL     1      -9.744  10.610  66.648  1.00  0.00    -0.225 C  
HETATM   13  C   UNL     1      -8.624   9.465  70.349  1.00  0.00    -0.230 C  
HETATM   14  C   UNL     1     -11.099  11.269  67.365  1.00  0.00    -0.297 C  
HETATM   15  C   UNL     1      -9.284   8.353  71.114  1.00  0.00    -0.218 C  
HETATM   16  O   UNL     1      -7.390   8.872  69.973  1.00  0.00    -0.049 OA 
HETATM   17  C   UNL     1     -11.831  10.669  68.598  1.00  0.00    -0.135 C  
HETATM   18  C   UNL     1     -10.457   8.863  71.911  1.00  0.00    -0.415 C  
HETATM   19  C   UNL     1     -10.917  10.423  69.814  1.00  0.00    -0.345 C  
HETATM   20  H   UNL     1      -6.790   8.615  70.663  1.00  0.00     0.000 HD 
HETATM   21  C   UNL     1     -12.457  10.406  71.887  1.00  0.00    -0.291 C  
HETATM   22  C   UNL     1     -10.819   7.726  72.883  1.00  0.00    -0.453 C  
HETATM   23  C   UNL     1     -11.581   9.468  71.008  1.00  0.00    -0.419 C  
HETATM   24  C   UNL     1     -11.839   6.689  72.449  1.00  0.00    -0.191 C  
HETATM   25  C   UNL     1     -12.509   8.301  70.515  1.00  0.00     0.412 C  
HETATM   26  H   UNL     1     -11.862   4.895  71.586  1.00  0.00     0.000 HD 
HETATM   27  O   UNL     1     -11.224   5.544  71.858  1.00  0.00    -0.216 OA 
HETATM   28  C   UNL     1     -12.944   7.247  71.571  1.00  0.00    -0.434 C  
ENDROOT
BRANCH   6  29
HETATM   29  C   UNL     1      -8.525   6.038  64.354  1.00  0.00     0.050 C  
BRANCH  29  30
HETATM   30  C   UNL     1      -8.361   4.672  64.955  1.00  0.00    -0.129 C  
HETATM   31  O   UNL     1      -7.630   3.829  64.449  1.00  0.00    -0.077 OA 
HETATM   32  N   UNL     1      -9.120   4.440  66.088  1.00  0.00    -0.124 N  
HETATM   33  H   UNL     1      -9.676   5.198  66.483  1.00  0.00     0.000 HD 
BRANCH  32  34
HETATM   34  C   UNL     1      -9.135   3.142  66.722  1.00  0.00    -0.167 C  
BRANCH  34  35
HETATM   35  C   UNL     1      -8.953   3.256  68.236  1.00  0.00    -0.140 C  
HETATM   36  S   UNL     1      -8.696   4.952  68.694  1.00  0.00    -0.094 S  
HETATM   37  O   UNL     1      -8.445   4.729  70.274  1.00  0.00    -0.081 OA 
HETATM   38  O   UNL     1      -9.915   5.709  68.538  1.00  0.00    -0.138 OA 
HETATM   39  O   UNL     1      -7.431   5.402  68.154  1.00  0.00    -0.075 OA 
ENDBRANCH  34  35
ENDBRANCH  32  34
ENDBRANCH  29  30
ENDBRANCH   6  29
TORSDOF 4
ENDMDL
MODEL       64
REMARK 921   NORMALIZED FREE ENERGY PREDICTED BY IDOCK:   -5.77 KCAL/MOL
REMARK 922        TOTAL FREE ENERGY PREDICTED BY IDOCK:   -7.94 KCAL/MOL
REMARK 923 INTER-LIGAND FREE ENERGY PREDICTED BY IDOCK:   -7.01 KCAL/MOL
REMARK 924 INTRA-LIGAND FREE ENERGY PREDICTED BY IDOCK:   -0.93 KCAL/MOL
REMARK 927      BINDING AFFINITY PREDICTED BY RF-SCORE:    0.00 PKD
ROOT
HETATM    1  C   UNL     1      -9.955   9.378  67.328  1.00  0.00    -0.252 C  
HETATM    2  C   UNL     1      -9.345   7.899  68.005  1.00  0.00    -0.152 C  
HETATM    3  C   UNL     1      -9.052  10.182  68.260  1.00  0.00    -0.122 C  
HETATM    4  C   UNL     1      -9.123   6.577  67.281  1.00  0.00    -0.117 C  
HETATM    5  C   UNL     1      -7.818  10.278  67.349  1.00  0.00    -0.102 C  
HETATM    6  C   UNL     1      -9.701   7.614  69.549  1.00  0.00    -0.168 C  
HETATM    7  C   UNL     1      -9.360   9.135  64.749  1.00  0.00     0.021 C  
HETATM    8  C   UNL     1      -8.358  11.162  66.283  1.00  0.00    -0.163 C  
HETATM    9  C   UNL     1      -8.814  12.554  66.966  1.00  0.00    -0.212 C  
HETATM   10  H   UNL     1     -10.894  10.251  63.492  1.00  0.00     0.000 HD 
HETATM   11  O   UNL     1     -11.146  11.112  63.807  1.00  0.00    -0.329 OA 
HETATM   12  C   UNL     1      -9.582  10.263  65.788  1.00  0.00    -0.279 C  
HETATM   13  C   UNL     1      -7.751  13.182  67.885  1.00  0.00    -0.147 C  
HETATM   14  C   UNL     1     -10.220  11.478  64.838  1.00  0.00    -0.275 C  
HETATM   15  C   UNL     1      -8.468  14.117  68.815  1.00  0.00    -0.069 C  
HETATM   16  O   UNL     1      -7.068  12.330  68.793  1.00  0.00    -0.102 OA 
HETATM   17  C   UNL     1     -10.632  12.884  65.354  1.00  0.00    -0.308 C  
HETATM   18  C   UNL     1      -8.981  15.329  68.078  1.00  0.00    -0.171 C  
HETATM   19  C   UNL     1      -9.516  13.629  66.112  1.00  0.00    -0.166 C  
HETATM   20  H   UNL     1      -6.411  12.717  69.360  1.00  0.00     0.000 HD 
HETATM   21  C   UNL     1     -10.088  16.142  65.959  1.00  0.00    -0.372 C  
HETATM   22  C   UNL     1      -9.382  16.335  69.172  1.00  0.00    -0.236 C  
HETATM   23  C   UNL     1     -10.024  14.963  66.972  1.00  0.00    -0.240 C  
HETATM   24  C   UNL     1     -10.806  16.317  69.696  1.00  0.00    -0.345 C  
HETATM   25  C   UNL     1     -11.442  14.852  67.638  1.00  0.00    -0.366 C  
HETATM   26  H   UNL     1     -11.832  15.489  71.189  1.00  0.00     0.000 HD 
HETATM   27  O   UNL     1     -10.940  15.501  70.860  1.00  0.00    -0.329 OA 
HETATM   28  C   UNL     1     -11.842  15.966  68.644  1.00  0.00    -0.243 C  
ENDROOT
BRANCH   6  29
HETATM   29  C   UNL     1     -11.145   7.559  70.018  1.00  0.00    -0.219 C  
BRANCH  29  30
HETATM   30  C   UNL     1     -11.380   6.529  71.086  1.00  0.00    -0.314 C  
HETATM   31  O   UNL     1     -12.406   6.518  71.756  1.00  0.00    -0.347 OA 
HETATM   32  N   UNL     1     -10.343   5.632  71.266  1.00  0.00    -0.220 N  
HETATM   33  H   UNL     1      -9.533   5.669  70.647  1.00  0.00     0.000 HD 
BRANCH  32  34
HETATM   34  C   UNL     1     -10.387   4.642  72.318  1.00  0.00    -0.185 C  
BRANCH  34  35
HETATM   35  C   UNL     1      -9.528   3.425  71.978  1.00  0.00    -0.133 C  
HETATM   36  S   UNL     1      -8.655   3.699  70.457  1.00  0.00    -0.073 S  
HETATM   37  O   UNL     1      -7.950   2.250  70.331  1.00  0.00    -0.042 OA 
HETATM   38  O   UNL     1      -7.617   4.685  70.640  1.00  0.00    -0.052 OA 
HETATM   39  O   UNL     1      -9.607   3.769  69.370  1.00  0.00    -0.183 OA 
ENDBRANCH  34  35
ENDBRANCH  32  34
ENDBRANCH  29  30
ENDBRANCH   6  29
TORSDOF 4
ENDMDL
MODEL       65
REMARK 921   NORMALIZED FREE ENERGY PREDICTED BY IDOCK:   -5.76 KCAL/MOL
REMARK 922        TOTAL FREE ENERGY PREDICTED BY IDOCK:   -7.93 KCAL/MOL
REMARK 923 INTER-LIGAND FREE ENERGY PREDICTED BY IDOCK:   -6.93 KCAL/MOL
REMARK 924 INTRA-LIGAND FREE ENERGY PREDICTED BY IDOCK:   -1.01 KCAL/MOL
REMARK 927      BINDING AFFINITY PREDICTED BY RF-SCORE:    0.00 PKD
ROOT
HETATM    1  C   UNL     1      -8.856   7.762  65.985  1.00  0.00    -0.189 C  
HETATM    2  C   UNL     1      -8.108   6.340  66.644  1.00  0.00    -0.110 C  
HETATM    3  C   UNL     1      -8.357   8.580  67.174  1.00  0.00    -0.111 C  
HETATM    4  C   UNL     1      -7.467   5.193  65.871  1.00  0.00    -0.082 C  
HETATM    5  C   UNL     1      -7.006   9.024  66.590  1.00  0.00    -0.081 C  
HETATM    6  C   UNL     1      -8.714   5.784  68.027  1.00  0.00    -0.103 C  
HETATM    7  C   UNL     1      -7.693   7.991  63.606  1.00  0.00    -0.136 C  
HETATM    8  C   UNL     1      -7.482   9.934  65.515  1.00  0.00    -0.126 C  
HETATM    9  C   UNL     1      -8.351  11.111  66.200  1.00  0.00    -0.144 C  
HETATM   10  H   UNL     1      -9.126   8.973  62.135  1.00  0.00     0.000 HD 
HETATM   11  O   UNL     1      -9.612   9.721  62.462  1.00  0.00    -0.171 OA 
HETATM   12  C   UNL     1      -8.359   8.905  64.666  1.00  0.00    -0.179 C  
HETATM   13  C   UNL     1      -7.661  11.789  67.398  1.00  0.00    -0.143 C  
HETATM   14  C   UNL     1      -9.021  10.103  63.711  1.00  0.00    -0.246 C  
HETATM   15  C   UNL     1      -8.737  12.440  68.217  1.00  0.00    -0.175 C  
HETATM   16  O   UNL     1      -7.022  10.958  68.356  1.00  0.00    -0.066 OA 
HETATM   17  C   UNL     1      -9.817  11.325  64.246  1.00  0.00    -0.319 C  
HETATM   18  C   UNL     1      -9.323  13.628  67.499  1.00  0.00    -0.223 C  
HETATM   19  C   UNL     1      -9.066  12.148  65.311  1.00  0.00     0.345 C  
HETATM   20  H   UNL     1      -6.595  11.376  69.095  1.00  0.00     0.000 HD 
HETATM   21  C   UNL     1     -10.104  14.512  65.265  1.00  0.00    -0.389 C  
HETATM   22  C   UNL     1     -10.147  14.384  68.557  1.00  0.00    -0.244 C  
HETATM   23  C   UNL     1     -10.010  13.236  66.149  1.00  0.00    -0.295 C  
HETATM   24  C   UNL     1     -11.614  14.034  68.730  1.00  0.00    -0.331 C  
HETATM   25  C   UNL     1     -11.482  12.778  66.451  1.00  0.00    -0.409 C  
HETATM   26  H   UNL     1     -12.735  12.835  69.856  1.00  0.00     0.000 HD 
HETATM   27  O   UNL     1     -11.817  13.054  69.748  1.00  0.00    -0.308 OA 
HETATM   28  C   UNL     1     -12.308  13.650  67.436  1.00  0.00    -0.148 C  
ENDROOT
BRANCH   6  29
HETATM   29  C   UNL     1     -10.180   5.402  68.139  1.00  0.00    -0.226 C  
BRANCH  29  30
HETATM   30  C   UNL     1     -10.804   5.825  69.437  1.00  0.00    -0.323 C  
HETATM   31  O   UNL     1     -11.776   6.570  69.473  1.00  0.00    -0.329 OA 
HETATM   32  N   UNL     1     -10.177   5.338  70.570  1.00  0.00    -0.249 N  
HETATM   33  H   UNL     1      -9.397   4.687  70.471  1.00  0.00     0.000 HD 
BRANCH  32  34
HETATM   34  C   UNL     1     -10.609   5.734  71.890  1.00  0.00    -0.232 C  
BRANCH  34  35
HETATM   35  C   UNL     1      -9.518   6.513  72.626  1.00  0.00    -0.147 C  
HETATM   36  S   UNL     1      -9.427   8.172  72.003  1.00  0.00    -0.241 S  
HETATM   37  O   UNL     1      -8.166   8.678  72.877  1.00  0.00    -0.393 OA 
HETATM   38  O   UNL     1     -10.585   8.931  72.411  1.00  0.00    -0.261 OA 
HETATM   39  O   UNL     1      -8.968   8.139  70.631  1.00  0.00    -0.143 OA 
ENDBRANCH  34  35
ENDBRANCH  32  34
ENDBRANCH  29  30
ENDBRANCH   6  29
TORSDOF 4
ENDMDL
MODEL       66
REMARK 921   NORMALIZED FREE ENERGY PREDICTED BY IDOCK:   -5.71 KCAL/MOL
REMARK 922        TOTAL FREE ENERGY PREDICTED BY IDOCK:   -7.87 KCAL/MOL
REMARK 923 INTER-LIGAND FREE ENERGY PREDICTED BY IDOCK:   -6.81 KCAL/MOL
REMARK 924 INTRA-LIGAND FREE ENERGY PREDICTED BY IDOCK:   -1.07 KCAL/MOL
REMARK 927      BINDING AFFINITY PREDICTED BY RF-SCORE:    0.00 PKD
ROOT
HETATM    1  C   UNL     1      -7.733   9.041  69.527  1.00  0.00    -0.082 C  
HETATM    2  C   UNL     1      -6.205   8.493  70.144  1.00  0.00    -0.034 C  
HETATM    3  C   UNL     1      -7.213  10.477  69.503  1.00  0.00    -0.137 C  
HETATM    4  C   UNL     1      -5.514   7.167  69.850  1.00  0.00    -0.023 C  
HETATM    5  C   UNL     1      -6.639  10.483  68.077  1.00  0.00    -0.060 C  
HETATM    6  C   UNL     1      -5.805   8.992  71.621  1.00  0.00    -0.064 C  
HETATM    7  C   UNL     1      -7.988   7.659  67.272  1.00  0.00    -0.118 C  
HETATM    8  C   UNL     1      -7.900  10.390  67.295  1.00  0.00    -0.106 C  
HETATM    9  C   UNL     1      -8.819  11.666  67.669  1.00  0.00    -0.159 C  
HETATM   10  H   UNL     1     -10.192   7.294  66.832  1.00  0.00     0.000 HD 
HETATM   11  O   UNL     1     -10.772   8.035  66.964  1.00  0.00    -0.328 OA 
HETATM   12  C   UNL     1      -8.464   9.009  67.866  1.00  0.00    -0.121 C  
HETATM   13  C   UNL     1      -8.081  13.015  67.596  1.00  0.00    -0.172 C  
HETATM   14  C   UNL     1      -9.950   9.197  67.132  1.00  0.00    -0.218 C  
HETATM   15  C   UNL     1      -8.854  13.986  68.441  1.00  0.00    -0.180 C  
HETATM   16  O   UNL     1      -6.783  13.096  68.166  1.00  0.00    -0.085 OA 
HETATM   17  C   UNL     1     -10.899  10.409  67.347  1.00  0.00    -0.344 C  
HETATM   18  C   UNL     1     -10.175  14.332  67.802  1.00  0.00    -0.235 C  
HETATM   19  C   UNL     1     -10.242  11.777  67.086  1.00  0.00    -0.236 C  
HETATM   20  H   UNL     1      -6.328  13.929  68.120  1.00  0.00     0.000 HD 
HETATM   21  C   UNL     1     -12.165  13.414  66.547  1.00  0.00    -0.414 C  
HETATM   22  C   UNL     1     -10.698  15.556  68.576  1.00  0.00    -0.259 C  
HETATM   23  C   UNL     1     -11.109  13.088  67.641  1.00  0.00    -0.296 C  
HETATM   24  C   UNL     1     -11.585  15.333  69.787  1.00  0.00    -0.314 C  
HETATM   25  C   UNL     1     -11.892  12.873  68.985  1.00  0.00    -0.352 C  
HETATM   26  H   UNL     1     -11.392  15.157  71.761  1.00  0.00     0.000 HD 
HETATM   27  O   UNL     1     -10.837  15.296  71.002  1.00  0.00    -0.295 OA 
HETATM   28  C   UNL     1     -12.504  14.132  69.659  1.00  0.00    -0.207 C  
ENDROOT
BRANCH   6  29
HETATM   29  C   UNL     1      -6.703   8.704  72.812  1.00  0.00    -0.026 C  
BRANCH  29  30
HETATM   30  C   UNL     1      -7.275   7.315  72.798  1.00  0.00    -0.072 C  
HETATM   31  O   UNL     1      -6.601   6.338  73.102  1.00  0.00    -0.067 OA 
HETATM   32  N   UNL     1      -8.594   7.233  72.389  1.00  0.00    -0.115 N  
HETATM   33  H   UNL     1      -9.111   8.090  72.190  1.00  0.00     0.000 HD 
BRANCH  32  34
HETATM   34  C   UNL     1      -9.250   5.955  72.238  1.00  0.00    -0.144 C  
BRANCH  34  35
HETATM   35  C   UNL     1     -10.767   6.086  72.372  1.00  0.00    -0.228 C  
HETATM   36  S   UNL     1     -11.449   6.817  70.905  1.00  0.00    -0.354 S  
HETATM   37  O   UNL     1     -12.988   6.908  71.387  1.00  0.00    -0.355 OA 
HETATM   38  O   UNL     1     -11.380   5.893  69.799  1.00  0.00    -0.371 OA 
HETATM   39  O   UNL     1     -10.988   8.185  70.801  1.00  0.00    -0.235 OA 
ENDBRANCH  34  35
ENDBRANCH  32  34
ENDBRANCH  29  30
ENDBRANCH   6  29
TORSDOF 4
ENDMDL
MODEL       67
REMARK 921   NORMALIZED FREE ENERGY PREDICTED BY IDOCK:   -5.71 KCAL/MOL
REMARK 922        TOTAL FREE ENERGY PREDICTED BY IDOCK:   -7.87 KCAL/MOL
REMARK 923 INTER-LIGAND FREE ENERGY PREDICTED BY IDOCK:   -7.11 KCAL/MOL
REMARK 924 INTRA-LIGAND FREE ENERGY PREDICTED BY IDOCK:   -0.76 KCAL/MOL
REMARK 927      BINDING AFFINITY PREDICTED BY RF-SCORE:    0.00 PKD
ROOT
HETATM    1  C   UNL     1      -8.933   8.443  68.398  1.00  0.00    -0.136 C  
HETATM    2  C   UNL     1      -9.346   7.070  69.377  1.00  0.00    -0.146 C  
HETATM    3  C   UNL     1     -10.321   9.034  68.634  1.00  0.00    -0.233 C  
HETATM    4  C   UNL     1      -8.420   6.279  70.292  1.00  0.00    -0.134 C  
HETATM    5  C   UNL     1     -10.007   9.847  69.901  1.00  0.00    -0.292 C  
HETATM    6  C   UNL     1     -10.496   6.099  68.807  1.00  0.00    -0.295 C  
HETATM    7  C   UNL     1      -6.811   9.442  69.647  1.00  0.00    -0.056 C  
HETATM    8  C   UNL     1      -9.110  10.882  69.321  1.00  0.00     0.003 C  
HETATM    9  C   UNL     1      -9.933  11.680  68.183  1.00  0.00    -0.198 C  
HETATM   10  H   UNL     1      -5.437  10.461  68.145  1.00  0.00     0.000 HD 
HETATM   11  O   UNL     1      -5.862  11.006  67.494  1.00  0.00    -0.043 OA 
HETATM   12  C   UNL     1      -7.962   9.938  68.735  1.00  0.00    -0.093 C  
HETATM   13  C   UNL     1     -11.320  12.170  68.635  1.00  0.00    -0.280 C  
HETATM   14  C   UNL     1      -7.223  11.184  67.907  1.00  0.00    -0.090 C  
HETATM   15  C   UNL     1     -12.134  12.398  67.394  1.00  0.00    -0.075 C  
HETATM   16  O   UNL     1     -12.139  11.269  69.365  1.00  0.00    -0.329 OA 
HETATM   17  C   UNL     1      -7.919  12.075  66.841  1.00  0.00    -0.112 C  
HETATM   18  C   UNL     1     -11.631  13.592  66.625  1.00  0.00    -0.396 C  
HETATM   19  C   UNL     1      -9.216  12.747  67.331  1.00  0.00    -0.193 C  
HETATM   20  H   UNL     1     -12.995  11.572  69.645  1.00  0.00     0.000 HD 
HETATM   21  C   UNL     1      -9.571  14.820  65.832  1.00  0.00    -0.320 C  
HETATM   22  C   UNL     1     -12.728  13.908  65.593  1.00  0.00    -0.534 C  
HETATM   23  C   UNL     1     -10.159  13.411  66.128  1.00  0.00    -0.304 C  
HETATM   24  C   UNL     1     -12.652  13.262  64.222  1.00  0.00    -0.182 C  
HETATM   25  C   UNL     1     -10.184  12.629  64.766  1.00  0.00    -0.307 C  
HETATM   26  H   UNL     1     -13.353  11.643  63.299  1.00  0.00     0.000 HD 
HETATM   27  O   UNL     1     -13.401  12.048  64.157  1.00  0.00    -0.725 OA 
HETATM   28  C   UNL     1     -11.235  13.074  63.712  1.00  0.00    -0.396 C  
ENDROOT
BRANCH   6  29
HETATM   29  C   UNL     1     -10.354   5.436  67.448  1.00  0.00    -0.258 C  
BRANCH  29  30
HETATM   30  C   UNL     1      -9.478   4.217  67.473  1.00  0.00    -0.178 C  
HETATM   31  O   UNL     1      -8.699   3.964  66.562  1.00  0.00    -0.109 OA 
HETATM   32  N   UNL     1      -9.647   3.402  68.578  1.00  0.00    -0.132 N  
HETATM   33  H   UNL     1     -10.282   3.692  69.322  1.00  0.00     0.000 HD 
BRANCH  32  34
HETATM   34  C   UNL     1      -8.940   2.148  68.695  1.00  0.00    -0.123 C  
BRANCH  34  35
HETATM   35  C   UNL     1      -9.215   1.475  70.040  1.00  0.00    -0.098 C  
HETATM   36  S   UNL     1      -9.031   2.647  71.360  1.00  0.00    -0.097 S  
HETATM   37  O   UNL     1      -9.276   1.639  72.599  1.00  0.00    -0.071 OA 
HETATM   38  O   UNL     1     -10.111   3.604  71.342  1.00  0.00    -0.137 OA 
HETATM   39  O   UNL     1      -7.643   3.047  71.447  1.00  0.00    -0.040 OA 
ENDBRANCH  34  35
ENDBRANCH  32  34
ENDBRANCH  29  30
ENDBRANCH   6  29
TORSDOF 4
ENDMDL
MODEL       68
REMARK 921   NORMALIZED FREE ENERGY PREDICTED BY IDOCK:   -5.66 KCAL/MOL
REMARK 922        TOTAL FREE ENERGY PREDICTED BY IDOCK:   -7.81 KCAL/MOL
REMARK 923 INTER-LIGAND FREE ENERGY PREDICTED BY IDOCK:   -7.39 KCAL/MOL
REMARK 924 INTRA-LIGAND FREE ENERGY PREDICTED BY IDOCK:   -0.42 KCAL/MOL
REMARK 927      BINDING AFFINITY PREDICTED BY RF-SCORE:    0.00 PKD
ROOT
HETATM    1  C   UNL     1      -9.144   9.129  67.123  1.00  0.00    -0.146 C  
HETATM    2  C   UNL     1     -10.210  10.244  66.325  1.00  0.00    -0.287 C  
HETATM    3  C   UNL     1     -10.297   8.646  67.998  1.00  0.00    -0.277 C  
HETATM    4  C   UNL     1     -10.167  10.677  64.865  1.00  0.00    -0.395 C  
HETATM    5  C   UNL     1     -10.804   7.510  67.094  1.00  0.00    -0.298 C  
HETATM    6  C   UNL     1     -10.800  11.443  67.224  1.00  0.00    -0.311 C  
HETATM    7  C   UNL     1      -8.250   7.631  65.117  1.00  0.00    -0.130 C  
HETATM    8  C   UNL     1      -9.659   6.569  67.204  1.00  0.00    -0.162 C  
HETATM    9  C   UNL     1      -9.478   6.175  68.761  1.00  0.00    -0.128 C  
HETATM   10  H   UNL     1      -6.149   6.889  65.582  1.00  0.00     0.000 HD 
HETATM   11  O   UNL     1      -6.003   6.575  66.466  1.00  0.00    -0.026 OA 
HETATM   12  C   UNL     1      -8.492   7.505  66.643  1.00  0.00    -0.130 C  
HETATM   13  C   UNL     1     -10.780   5.733  69.453  1.00  0.00    -0.326 C  
HETATM   14  C   UNL     1      -7.287   6.440  67.090  1.00  0.00    -0.083 C  
HETATM   15  C   UNL     1     -10.577   5.914  70.930  1.00  0.00    -0.319 C  
HETATM   16  O   UNL     1     -11.952   6.500  69.220  1.00  0.00    -0.519 OA 
HETATM   17  C   UNL     1      -7.049   5.926  68.536  1.00  0.00    -0.081 C  
HETATM   18  C   UNL     1      -9.593   4.909  71.471  1.00  0.00    -0.218 C  
HETATM   19  C   UNL     1      -8.290   5.291  69.191  1.00  0.00    -0.091 C  
HETATM   20  H   UNL     1     -12.755   6.227  69.647  1.00  0.00     0.000 HD 
HETATM   21  C   UNL     1      -7.410   3.715  71.038  1.00  0.00    -0.037 C  
HETATM   22  C   UNL     1      -9.732   4.981  73.003  1.00  0.00    -0.167 C  
HETATM   23  C   UNL     1      -8.171   5.056  70.837  1.00  0.00    -0.108 C  
HETATM   24  C   UNL     1      -8.847   5.942  73.774  1.00  0.00    -0.124 C  
HETATM   25  C   UNL     1      -7.381   6.156  71.631  1.00  0.00    -0.089 C  
HETATM   26  H   UNL     1      -8.927   7.806  74.470  1.00  0.00     0.000 HD 
HETATM   27  O   UNL     1      -9.480   7.204  73.987  1.00  0.00    -0.231 OA 
HETATM   28  C   UNL     1      -7.459   6.105  73.182  1.00  0.00    -0.096 C  
ENDROOT
BRANCH   6  29
HETATM   29  C   UNL     1      -9.874  12.410  67.940  1.00  0.00    -0.202 C  
BRANCH  29  30
HETATM   30  C   UNL     1     -10.237  13.850  67.718  1.00  0.00    -0.237 C  
HETATM   31  O   UNL     1     -11.047  14.428  68.433  1.00  0.00    -0.239 OA 
HETATM   32  N   UNL     1      -9.613  14.447  66.637  1.00  0.00    -0.270 N  
HETATM   33  H   UNL     1      -8.916  13.923  66.108  1.00  0.00     0.000 HD 
BRANCH  32  34
HETATM   34  C   UNL     1      -9.933  15.800  66.246  1.00  0.00    -0.295 C  
BRANCH  34  35
HETATM   35  C   UNL     1      -9.243  16.822  67.150  1.00  0.00    -0.224 C  
HETATM   36  S   UNL     1      -7.601  17.150  66.560  1.00  0.00    -0.312 S  
HETATM   37  O   UNL     1      -7.126  18.146  67.740  1.00  0.00    -0.206 OA 
HETATM   38  O   UNL     1      -7.647  17.905  65.331  1.00  0.00    -0.377 OA 
HETATM   39  O   UNL     1      -6.798  15.955  66.705  1.00  0.00    -0.243 OA 
ENDBRANCH  34  35
ENDBRANCH  32  34
ENDBRANCH  29  30
ENDBRANCH   6  29
TORSDOF 4
ENDMDL
MODEL       69
REMARK 921   NORMALIZED FREE ENERGY PREDICTED BY IDOCK:   -5.66 KCAL/MOL
REMARK 922        TOTAL FREE ENERGY PREDICTED BY IDOCK:   -7.80 KCAL/MOL
REMARK 923 INTER-LIGAND FREE ENERGY PREDICTED BY IDOCK:   -7.21 KCAL/MOL
REMARK 924 INTRA-LIGAND FREE ENERGY PREDICTED BY IDOCK:   -0.59 KCAL/MOL
REMARK 927      BINDING AFFINITY PREDICTED BY RF-SCORE:    0.00 PKD
ROOT
HETATM    1  C   UNL     1     -11.192  13.146  67.319  1.00  0.00    -0.319 C  
HETATM    2  C   UNL     1     -10.977  11.567  68.010  1.00  0.00    -0.284 C  
HETATM    3  C   UNL     1      -9.960  13.647  68.069  1.00  0.00    -0.247 C  
HETATM    4  C   UNL     1     -11.280  10.225  67.355  1.00  0.00    -0.145 C  
HETATM    5  C   UNL     1      -8.902  13.328  67.001  1.00  0.00    -0.216 C  
HETATM    6  C   UNL     1     -11.176  11.445  69.603  1.00  0.00    -0.301 C  
HETATM    7  C   UNL     1     -11.080  12.667  64.707  1.00  0.00    -0.335 C  
HETATM    8  C   UNL     1      -9.291  14.312  65.957  1.00  0.00    -0.143 C  
HETATM    9  C   UNL     1      -9.192  15.791  66.598  1.00  0.00    -0.283 C  
HETATM   10  H   UNL     1     -12.361  14.180  63.588  1.00  0.00     0.000 HD 
HETATM   11  O   UNL     1     -12.287  15.083  63.874  1.00  0.00    -0.695 OA 
HETATM   12  C   UNL     1     -10.791  13.832  65.688  1.00  0.00    -0.287 C  
HETATM   13  C   UNL     1      -7.866  16.074  67.326  1.00  0.00    -0.181 C  
HETATM   14  C   UNL     1     -11.154  15.163  64.749  1.00  0.00    -0.382 C  
HETATM   15  C   UNL     1      -8.117  17.210  68.276  1.00  0.00    -0.239 C  
HETATM   16  O   UNL     1      -7.355  15.073  68.193  1.00  0.00    -0.101 OA 
HETATM   17  C   UNL     1     -11.033  16.639  65.218  1.00  0.00    -0.127 C  
HETATM   18  C   UNL     1      -8.332  18.503  67.532  1.00  0.00    -0.267 C  
HETATM   19  C   UNL     1      -9.645  17.012  65.771  1.00  0.00    -0.043 C  
HETATM   20  H   UNL     1      -6.536  15.247  68.642  1.00  0.00     0.000 HD 
HETATM   21  C   UNL     1      -9.429  19.574  65.524  1.00  0.00     0.509 C  
HETATM   22  C   UNL     1      -8.241  19.611  68.597  1.00  0.00    -0.311 C  
HETATM   23  C   UNL     1      -9.586  18.459  66.597  1.00  0.00    -0.320 C  
HETATM   24  C   UNL     1      -9.510  20.054  69.303  1.00  0.00     0.139 C  
HETATM   25  C   UNL     1     -10.857  18.816  67.448  1.00  0.00    -0.414 C  
HETATM   26  H   UNL     1     -10.513  19.627  70.968  1.00  0.00     0.000 HD 
HETATM   27  O   UNL     1      -9.719  19.349  70.526  1.00  0.00     0.863 OA 
HETATM   28  C   UNL     1     -10.744  20.022  68.420  1.00  0.00    -0.007 C  
ENDROOT
BRANCH   6  29
HETATM   29  C   UNL     1     -12.482  11.858  70.259  1.00  0.00    -0.199 C  
BRANCH  29  30
HETATM   30  C   UNL     1     -12.952  10.887  71.303  1.00  0.00    -0.392 C  
HETATM   31  O   UNL     1     -13.304  11.258  72.417  1.00  0.00    -0.259 OA 
HETATM   32  N   UNL     1     -12.921   9.559  70.918  1.00  0.00    -0.543 N  
HETATM   33  H   UNL     1     -12.658   9.319  69.962  1.00  0.00     0.000 HD 
BRANCH  32  34
HETATM   34  C   UNL     1     -13.257   8.505  71.847  1.00  0.00    -0.369 C  
BRANCH  34  35
HETATM   35  C   UNL     1     -12.589   7.185  71.461  1.00  0.00    -0.390 C  
HETATM   36  S   UNL     1     -10.941   7.119  72.118  1.00  0.00    -0.251 S  
HETATM   37  O   UNL     1     -10.493   5.707  71.474  1.00  0.00    -0.223 OA 
HETATM   38  O   UNL     1     -10.973   6.965  73.552  1.00  0.00    -0.274 OA 
HETATM   39  O   UNL     1     -10.131   8.124  71.465  1.00  0.00    -0.175 OA 
ENDBRANCH  34  35
ENDBRANCH  32  34
ENDBRANCH  29  30
ENDBRANCH   6  29
TORSDOF 4
ENDMDL
MODEL       70
REMARK 921   NORMALIZED FREE ENERGY PREDICTED BY IDOCK:   -5.65 KCAL/MOL
REMARK 922        TOTAL FREE ENERGY PREDICTED BY IDOCK:   -7.79 KCAL/MOL
REMARK 923 INTER-LIGAND FREE ENERGY PREDICTED BY IDOCK:   -7.18 KCAL/MOL
REMARK 924 INTRA-LIGAND FREE ENERGY PREDICTED BY IDOCK:   -0.61 KCAL/MOL
REMARK 927      BINDING AFFINITY PREDICTED BY RF-SCORE:    0.00 PKD
ROOT
HETATM    1  C   UNL     1      -9.891   7.170  70.034  1.00  0.00    -0.178 C  
HETATM    2  C   UNL     1     -10.320   8.071  71.455  1.00  0.00    -0.243 C  
HETATM    3  C   UNL     1      -8.741   8.137  69.762  1.00  0.00    -0.135 C  
HETATM    4  C   UNL     1     -10.887   7.522  72.758  1.00  0.00    -0.397 C  
HETATM    5  C   UNL     1      -7.643   7.408  70.552  1.00  0.00    -0.087 C  
HETATM    6  C   UNL     1     -10.863   9.568  71.220  1.00  0.00    -0.413 C  
HETATM    7  C   UNL     1      -9.411   4.740  70.999  1.00  0.00    -0.227 C  
HETATM    8  C   UNL     1      -7.489   6.192  69.710  1.00  0.00    -0.081 C  
HETATM    9  C   UNL     1      -7.065   6.661  68.223  1.00  0.00    -0.083 C  
HETATM   10  H   UNL     1      -9.906   3.171  69.426  1.00  0.00     0.000 HD 
HETATM   11  O   UNL     1      -9.614   3.360  68.542  1.00  0.00    -0.164 OA 
HETATM   12  C   UNL     1      -8.977   5.619  69.798  1.00  0.00    -0.140 C  
HETATM   13  C   UNL     1      -5.891   7.657  68.187  1.00  0.00    -0.039 C  
HETATM   14  C   UNL     1      -8.712   4.472  68.617  1.00  0.00    -0.098 C  
HETATM   15  C   UNL     1      -5.963   8.376  66.871  1.00  0.00    -0.053 C  
HETATM   16  O   UNL     1      -5.903   8.733  69.112  1.00  0.00    -0.038 OA 
HETATM   17  C   UNL     1      -8.235   4.781  67.171  1.00  0.00    -0.106 C  
HETATM   18  C   UNL     1      -5.611   7.457  65.729  1.00  0.00    -0.032 C  
HETATM   19  C   UNL     1      -6.940   5.613  67.099  1.00  0.00    -0.065 C  
HETATM   20  H   UNL     1      -5.178   9.347  69.091  1.00  0.00     0.000 HD 
HETATM   21  C   UNL     1      -5.894   5.130  64.788  1.00  0.00    -0.017 C  
HETATM   22  C   UNL     1      -5.396   8.375  64.513  1.00  0.00    -0.036 C  
HETATM   23  C   UNL     1      -6.602   6.253  65.598  1.00  0.00    -0.047 C  
HETATM   24  C   UNL     1      -6.579   8.689  63.615  1.00  0.00    -0.088 C  
HETATM   25  C   UNL     1      -7.843   6.717  64.754  1.00  0.00    -0.115 C  
HETATM   26  H   UNL     1      -7.978  10.094  63.433  1.00  0.00     0.000 HD 
HETATM   27  O   UNL     1      -7.238   9.897  63.995  1.00  0.00    -0.125 OA 
HETATM   28  C   UNL     1      -7.558   7.539  63.467  1.00  0.00    -0.118 C  
ENDROOT
BRANCH   6  29
HETATM   29  C   UNL     1     -12.080   9.829  70.350  1.00  0.00    -0.176 C  
BRANCH  29  30
HETATM   30  C   UNL     1     -12.035  11.160  69.655  1.00  0.00    -0.359 C  
HETATM   31  O   UNL     1     -12.150  11.256  68.439  1.00  0.00    -0.598 OA 
HETATM   32  N   UNL     1     -11.824  12.244  70.488  1.00  0.00    -0.517 N  
HETATM   33  H   UNL     1     -11.780  12.100  71.497  1.00  0.00     0.000 HD 
BRANCH  32  34
HETATM   34  C   UNL     1     -11.667  13.576  69.953  1.00  0.00    -0.271 C  
BRANCH  34  35
HETATM   35  C   UNL     1     -12.832  14.481  70.353  1.00  0.00    -0.262 C  
HETATM   36  S   UNL     1     -13.091  14.403  72.108  1.00  0.00    -0.399 S  
HETATM   37  O   UNL     1     -14.399  15.349  72.190  1.00  0.00    -0.550 OA 
HETATM   38  O   UNL     1     -12.017  15.065  72.808  1.00  0.00    -0.351 OA 
HETATM   39  O   UNL     1     -13.543  13.075  72.461  1.00  0.00    -0.572 OA 
ENDBRANCH  34  35
ENDBRANCH  32  34
ENDBRANCH  29  30
ENDBRANCH   6  29
TORSDOF 4
ENDMDL
MODEL       71
REMARK 921   NORMALIZED FREE ENERGY PREDICTED BY IDOCK:   -5.63 KCAL/MOL
REMARK 922        TOTAL FREE ENERGY PREDICTED BY IDOCK:   -7.78 KCAL/MOL
REMARK 923 INTER-LIGAND FREE ENERGY PREDICTED BY IDOCK:   -7.13 KCAL/MOL
REMARK 924 INTRA-LIGAND FREE ENERGY PREDICTED BY IDOCK:   -0.65 KCAL/MOL
REMARK 927      BINDING AFFINITY PREDICTED BY RF-SCORE:    0.00 PKD
ROOT
HETATM    1  C   UNL     1      -9.091   8.239  68.420  1.00  0.00    -0.136 C  
HETATM    2  C   UNL     1      -9.556   6.840  69.338  1.00  0.00    -0.146 C  
HETATM    3  C   UNL     1     -10.459   8.867  68.676  1.00  0.00    -0.223 C  
HETATM    4  C   UNL     1      -8.663   5.978  70.222  1.00  0.00    -0.143 C  
HETATM    5  C   UNL     1     -10.122   9.613  69.978  1.00  0.00    -0.293 C  
HETATM    6  C   UNL     1     -10.736   5.935  68.722  1.00  0.00    -0.354 C  
HETATM    7  C   UNL     1      -6.941   9.108  69.719  1.00  0.00    -0.056 C  
HETATM    8  C   UNL     1      -9.187  10.640  69.447  1.00  0.00    -0.073 C  
HETATM    9  C   UNL     1      -9.976  11.515  68.340  1.00  0.00    -0.206 C  
HETATM   10  H   UNL     1      -5.525  10.142  68.267  1.00  0.00     0.000 HD 
HETATM   11  O   UNL     1      -5.927  10.729  67.638  1.00  0.00    -0.044 OA 
HETATM   12  C   UNL     1      -8.069   9.683  68.825  1.00  0.00    -0.097 C  
HETATM   13  C   UNL     1     -11.347  12.034  68.808  1.00  0.00    -0.278 C  
HETATM   14  C   UNL     1      -7.284  10.937  68.054  1.00  0.00    -0.086 C  
HETATM   15  C   UNL     1     -12.147  12.342  67.575  1.00  0.00    -0.078 C  
HETATM   16  O   UNL     1     -12.201  11.131  69.496  1.00  0.00    -0.323 OA 
HETATM   17  C   UNL     1      -7.942  11.897  67.024  1.00  0.00    -0.158 C  
HETATM   18  C   UNL     1     -11.598  13.550  66.860  1.00  0.00    -0.398 C  
HETATM   19  C   UNL     1      -9.217  12.592  67.538  1.00  0.00    -0.188 C  
HETATM   20  H   UNL     1     -13.048  11.451  69.785  1.00  0.00     0.000 HD 
HETATM   21  C   UNL     1      -9.492  14.738  66.129  1.00  0.00    -0.324 C  
HETATM   22  C   UNL     1     -12.678  13.949  65.838  1.00  0.00    -0.466 C  
HETATM   23  C   UNL     1     -10.131  13.339  66.361  1.00  0.00    -0.290 C  
HETATM   24  C   UNL     1     -12.617  13.359  64.441  1.00  0.00    -0.190 C  
HETATM   25  C   UNL     1     -10.176  12.617  64.966  1.00  0.00    -0.294 C  
HETATM   26  H   UNL     1     -13.370  11.807  63.446  1.00  0.00     0.000 HD 
HETATM   27  O   UNL     1     -13.407  12.176  64.321  1.00  0.00    -0.761 OA 
HETATM   28  C   UNL     1     -11.205  13.144  63.929  1.00  0.00    -0.377 C  
ENDROOT
BRANCH   6  29
HETATM   29  C   UNL     1     -10.610   5.327  67.336  1.00  0.00    -0.168 C  
BRANCH  29  30
HETATM   30  C   UNL     1      -9.591   4.227  67.264  1.00  0.00    -0.189 C  
HETATM   31  O   UNL     1      -9.506   3.368  68.134  1.00  0.00    -0.183 OA 
HETATM   32  N   UNL     1      -8.749   4.285  66.167  1.00  0.00    -0.113 N  
HETATM   33  H   UNL     1      -8.900   5.001  65.456  1.00  0.00     0.000 HD 
BRANCH  32  34
HETATM   34  C   UNL     1      -7.661   3.347  66.011  1.00  0.00    -0.081 C  
BRANCH  34  35
HETATM   35  C   UNL     1      -7.907   2.393  64.843  1.00  0.00    -0.077 C  
HETATM   36  S   UNL     1      -8.186   3.314  63.351  1.00  0.00    -0.085 S  
HETATM   37  O   UNL     1      -8.502   2.071  62.368  1.00  0.00    -0.070 OA 
HETATM   38  O   UNL     1      -6.963   3.936  62.904  1.00  0.00    -0.037 OA 
HETATM   39  O   UNL     1      -9.428   4.046  63.472  1.00  0.00    -0.140 OA 
ENDBRANCH  34  35
ENDBRANCH  32  34
ENDBRANCH  29  30
ENDBRANCH   6  29
TORSDOF 4
ENDMDL
MODEL       72
REMARK 921   NORMALIZED FREE ENERGY PREDICTED BY IDOCK:   -5.61 KCAL/MOL
REMARK 922        TOTAL FREE ENERGY PREDICTED BY IDOCK:   -7.75 KCAL/MOL
REMARK 923 INTER-LIGAND FREE ENERGY PREDICTED BY IDOCK:   -6.67 KCAL/MOL
REMARK 924 INTRA-LIGAND FREE ENERGY PREDICTED BY IDOCK:   -1.09 KCAL/MOL
REMARK 927      BINDING AFFINITY PREDICTED BY RF-SCORE:    0.00 PKD
ROOT
HETATM    1  C   UNL     1      -8.210  12.281  68.387  1.00  0.00    -0.146 C  
HETATM    2  C   UNL     1      -8.469  13.775  67.539  1.00  0.00    -0.199 C  
HETATM    3  C   UNL     1      -8.279  11.516  67.068  1.00  0.00    -0.167 C  
HETATM    4  C   UNL     1      -7.887  15.141  67.881  1.00  0.00    -0.144 C  
HETATM    5  C   UNL     1      -6.786  11.563  66.703  1.00  0.00    -0.075 C  
HETATM    6  C   UNL     1      -9.903  13.962  66.832  1.00  0.00    -0.268 C  
HETATM    7  C   UNL     1      -5.876  12.685  69.593  1.00  0.00    -0.114 C  
HETATM    8  C   UNL     1      -6.236  10.684  67.768  1.00  0.00    -0.054 C  
HETATM    9  C   UNL     1      -6.929   9.231  67.628  1.00  0.00    -0.078 C  
HETATM   10  H   UNL     1      -5.793  11.499  71.535  1.00  0.00     0.000 HD 
HETATM   11  O   UNL     1      -6.120  10.608  71.494  1.00  0.00    -0.292 OA 
HETATM   12  C   UNL     1      -6.716  11.498  69.056  1.00  0.00    -0.098 C  
HETATM   13  C   UNL     1      -6.902   8.654  66.201  1.00  0.00    -0.073 C  
HETATM   14  C   UNL     1      -6.288  10.277  70.110  1.00  0.00    -0.117 C  
HETATM   15  C   UNL     1      -7.989   7.622  66.121  1.00  0.00    -0.110 C  
HETATM   16  O   UNL     1      -7.237   9.520  65.127  1.00  0.00    -0.100 OA 
HETATM   17  C   UNL     1      -6.824   8.820  70.044  1.00  0.00    -0.042 C  
HETATM   18  C   UNL     1      -7.646   6.406  66.942  1.00  0.00    -0.095 C  
HETATM   19  C   UNL     1      -6.629   8.139  68.675  1.00  0.00    -0.058 C  
HETATM   20  H   UNL     1      -7.219   9.165  64.246  1.00  0.00     0.000 HD 
HETATM   21  C   UNL     1      -6.657   5.595  69.120  1.00  0.00    -0.054 C  
HETATM   22  C   UNL     1      -8.652   5.323  66.511  1.00  0.00    -0.112 C  
HETATM   23  C   UNL     1      -7.494   6.730  68.464  1.00  0.00    -0.092 C  
HETATM   24  C   UNL     1      -9.962   5.199  67.267  1.00  0.00    -0.186 C  
HETATM   25  C   UNL     1      -8.918   6.693  69.128  1.00  0.00    -0.131 C  
HETATM   26  H   UNL     1     -11.831   5.872  67.126  1.00  0.00     0.000 HD 
HETATM   27  O   UNL     1     -11.010   5.950  66.653  1.00  0.00    -0.287 OA 
HETATM   28  C   UNL     1      -9.846   5.507  68.749  1.00  0.00    -0.206 C  
ENDROOT
BRANCH   6  29
HETATM   29  C   UNL     1     -11.187  13.876  67.639  1.00  0.00    -0.316 C  
BRANCH  29  30
HETATM   30  C   UNL     1     -11.602  12.465  67.941  1.00  0.00    -0.356 C  
HETATM   31  O   UNL     1     -11.932  11.686  67.054  1.00  0.00    -0.593 OA 
HETATM   32  N   UNL     1     -11.612  12.136  69.284  1.00  0.00    -0.297 N  
HETATM   33  H   UNL     1     -11.285  12.817  69.970  1.00  0.00     0.000 HD 
BRANCH  32  34
HETATM   34  C   UNL     1     -12.077  10.844  69.732  1.00  0.00    -0.338 C  
BRANCH  34  35
HETATM   35  C   UNL     1     -11.041  10.152  70.619  1.00  0.00    -0.322 C  
HETATM   36  S   UNL     1     -11.766   8.745  71.423  1.00  0.00    -0.326 S  
HETATM   37  O   UNL     1     -10.496   8.316  72.325  1.00  0.00    -0.269 OA 
HETATM   38  O   UNL     1     -12.014   7.690  70.470  1.00  0.00    -0.170 OA 
HETATM   39  O   UNL     1     -12.775   9.200  72.354  1.00  0.00    -0.382 OA 
ENDBRANCH  34  35
ENDBRANCH  32  34
ENDBRANCH  29  30
ENDBRANCH   6  29
TORSDOF 4
ENDMDL
MODEL       73
REMARK 921   NORMALIZED FREE ENERGY PREDICTED BY IDOCK:   -5.60 KCAL/MOL
REMARK 922        TOTAL FREE ENERGY PREDICTED BY IDOCK:   -7.74 KCAL/MOL
REMARK 923 INTER-LIGAND FREE ENERGY PREDICTED BY IDOCK:   -6.77 KCAL/MOL
REMARK 924 INTRA-LIGAND FREE ENERGY PREDICTED BY IDOCK:   -0.97 KCAL/MOL
REMARK 927      BINDING AFFINITY PREDICTED BY RF-SCORE:    0.00 PKD
ROOT
HETATM    1  C   UNL     1      -9.933   6.852  70.464  1.00  0.00    -0.194 C  
HETATM    2  C   UNL     1     -10.316   7.534  72.014  1.00  0.00    -0.236 C  
HETATM    3  C   UNL     1      -8.816   7.877  70.284  1.00  0.00    -0.140 C  
HETATM    4  C   UNL     1     -10.814   6.794  73.250  1.00  0.00    -0.302 C  
HETATM    5  C   UNL     1      -7.669   7.073  70.918  1.00  0.00    -0.095 C  
HETATM    6  C   UNL     1     -10.899   9.035  72.016  1.00  0.00    -0.342 C  
HETATM    7  C   UNL     1      -9.363   4.325  71.057  1.00  0.00    -0.221 C  
HETATM    8  C   UNL     1      -7.529   5.992  69.907  1.00  0.00    -0.080 C  
HETATM    9  C   UNL     1      -7.181   6.675  68.485  1.00  0.00    -0.085 C  
HETATM   10  H   UNL     1      -9.895   2.979  69.300  1.00  0.00     0.000 HD 
HETATM   11  O   UNL     1      -9.646   3.297  68.440  1.00  0.00    -0.168 OA 
HETATM   12  C   UNL     1      -9.000   5.374  69.975  1.00  0.00    -0.152 C  
HETATM   13  C   UNL     1      -6.030   7.696  68.541  1.00  0.00    -0.031 C  
HETATM   14  C   UNL     1      -8.764   4.410  68.634  1.00  0.00    -0.095 C  
HETATM   15  C   UNL     1      -6.174   8.590  67.344  1.00  0.00    -0.056 C  
HETATM   16  O   UNL     1      -6.021   8.632  69.609  1.00  0.00    -0.032 OA 
HETATM   17  C   UNL     1      -8.358   4.930  67.227  1.00  0.00    -0.106 C  
HETATM   18  C   UNL     1      -5.855   7.849  66.071  1.00  0.00    -0.037 C  
HETATM   19  C   UNL     1      -7.085   5.798  67.221  1.00  0.00    -0.074 C  
HETATM   20  H   UNL     1      -5.311   9.261  69.644  1.00  0.00     0.000 HD 
HETATM   21  C   UNL     1      -6.133   5.670  64.824  1.00  0.00    -0.025 C  
HETATM   22  C   UNL     1      -5.712   8.934  64.988  1.00  0.00    -0.055 C  
HETATM   23  C   UNL     1      -6.826   6.651  65.812  1.00  0.00    -0.049 C  
HETATM   24  C   UNL     1      -6.940   9.340  64.192  1.00  0.00    -0.095 C  
HETATM   25  C   UNL     1      -8.112   7.195  65.094  1.00  0.00    -0.127 C  
HETATM   26  H   UNL     1      -8.373  10.719  64.268  1.00  0.00     0.000 HD 
HETATM   27  O   UNL     1      -7.605  10.465  64.766  1.00  0.00    -0.135 OA 
HETATM   28  C   UNL     1      -7.901   8.196  63.925  1.00  0.00    -0.147 C  
ENDROOT
BRANCH   6  29
HETATM   29  C   UNL     1     -12.158   9.383  71.241  1.00  0.00    -0.424 C  
BRANCH  29  30
HETATM   30  C   UNL     1     -12.386  10.862  71.117  1.00  0.00    -0.374 C  
HETATM   31  O   UNL     1     -13.282  11.430  71.730  1.00  0.00    -0.458 OA 
HETATM   32  N   UNL     1     -11.533  11.510  70.242  1.00  0.00    -0.515 N  
HETATM   33  H   UNL     1     -10.780  10.987  69.795  1.00  0.00     0.000 HD 
BRANCH  32  34
HETATM   34  C   UNL     1     -11.691  12.917  69.951  1.00  0.00    -0.254 C  
BRANCH  34  35
HETATM   35  C   UNL     1     -12.285  13.137  68.559  1.00  0.00    -0.032 C  
HETATM   36  S   UNL     1     -11.419  12.152  67.363  1.00  0.00    -0.343 S  
HETATM   37  O   UNL     1     -12.188  12.669  66.039  1.00  0.00    -0.564 OA 
HETATM   38  O   UNL     1     -11.727  10.753  67.540  1.00  0.00    -0.510 OA 
HETATM   39  O   UNL     1     -10.061  12.637  67.244  1.00  0.00    -0.212 OA 
ENDBRANCH  34  35
ENDBRANCH  32  34
ENDBRANCH  29  30
ENDBRANCH   6  29
TORSDOF 4
ENDMDL
MODEL       74
REMARK 921   NORMALIZED FREE ENERGY PREDICTED BY IDOCK:   -5.49 KCAL/MOL
REMARK 922        TOTAL FREE ENERGY PREDICTED BY IDOCK:   -7.59 KCAL/MOL
REMARK 923 INTER-LIGAND FREE ENERGY PREDICTED BY IDOCK:   -6.75 KCAL/MOL
REMARK 924 INTRA-LIGAND FREE ENERGY PREDICTED BY IDOCK:   -0.85 KCAL/MOL
REMARK 927      BINDING AFFINITY PREDICTED BY RF-SCORE:    0.00 PKD
ROOT
HETATM    1  C   UNL     1     -10.674  11.987  69.829  1.00  0.00     0.442 C  
HETATM    2  C   UNL     1     -10.979  10.324  69.432  1.00  0.00    -0.289 C  
HETATM    3  C   UNL     1     -10.403  12.293  68.358  1.00  0.00    -0.231 C  
HETATM    4  C   UNL     1     -11.979   9.386  70.098  1.00  0.00     0.105 C  
HETATM    5  C   UNL     1     -11.836  12.659  67.937  1.00  0.00    -0.388 C  
HETATM    6  C   UNL     1      -9.728   9.474  68.883  1.00  0.00    -0.166 C  
HETATM    7  C   UNL     1     -12.951  12.748  70.969  1.00  0.00    -0.166 C  
HETATM    8  C   UNL     1     -12.005  13.928  68.693  1.00  0.00    -0.401 C  
HETATM    9  C   UNL     1     -10.863  14.961  68.205  1.00  0.00    -0.256 C  
HETATM   10  H   UNL     1     -12.541  14.372  72.510  1.00  0.00     0.000 HD 
HETATM   11  O   UNL     1     -11.930  15.051  72.248  1.00  0.00    -0.360 OA 
HETATM   12  C   UNL     1     -11.780  13.383  70.178  1.00  0.00    -0.266 C  
HETATM   13  C   UNL     1     -10.752  15.100  66.676  1.00  0.00    -0.310 C  
HETATM   14  C   UNL     1     -11.718  14.915  70.837  1.00  0.00    -0.323 C  
HETATM   15  C   UNL     1      -9.381  15.636  66.380  1.00  0.00    -0.332 C  
HETATM   16  O   UNL     1     -10.780  13.914  65.895  1.00  0.00    -0.279 OA 
HETATM   17  C   UNL     1     -10.718  16.025  70.409  1.00  0.00    -0.218 C  
HETATM   18  C   UNL     1      -9.251  17.071  66.821  1.00  0.00    -0.270 C  
HETATM   19  C   UNL     1     -10.726  16.331  68.899  1.00  0.00    -0.300 C  
HETATM   20  H   UNL     1     -10.712  14.000  64.952  1.00  0.00     0.000 HD 
HETATM   21  C   UNL     1      -9.809  18.731  68.641  1.00  0.00    -0.441 C  
HETATM   22  C   UNL     1      -7.954  17.586  66.170  1.00  0.00    -0.261 C  
HETATM   23  C   UNL     1      -9.440  17.246  68.363  1.00  0.00    -0.283 C  
HETATM   24  C   UNL     1      -6.650  17.456  66.935  1.00  0.00    -0.189 C  
HETATM   25  C   UNL     1      -8.064  16.975  69.070  1.00  0.00    -0.137 C  
HETATM   26  H   UNL     1      -5.133  16.175  67.085  1.00  0.00     0.000 HD 
HETATM   27  O   UNL     1      -5.950  16.257  66.606  1.00  0.00    -0.286 OA 
HETATM   28  C   UNL     1      -6.802  17.623  68.437  1.00  0.00    -0.214 C  
ENDROOT
BRANCH   6  29
HETATM   29  C   UNL     1      -8.459   9.334  69.706  1.00  0.00    -0.152 C  
BRANCH  29  30
HETATM   30  C   UNL     1      -7.265   8.931  68.889  1.00  0.00    -0.074 C  
HETATM   31  O   UNL     1      -6.341   9.706  68.672  1.00  0.00    -0.047 OA 
HETATM   32  N   UNL     1      -7.314   7.644  68.384  1.00  0.00    -0.093 N  
HETATM   33  H   UNL     1      -8.092   7.035  68.637  1.00  0.00     0.000 HD 
BRANCH  32  34
HETATM   34  C   UNL     1      -6.281   7.148  67.505  1.00  0.00    -0.046 C  
BRANCH  34  35
HETATM   35  C   UNL     1      -6.839   6.147  66.493  1.00  0.00    -0.062 C  
HETATM   36  S   UNL     1      -8.418   5.546  67.037  1.00  0.00    -0.109 S  
HETATM   37  O   UNL     1      -8.679   4.478  65.852  1.00  0.00    -0.117 OA 
HETATM   38  O   UNL     1      -9.418   6.581  66.932  1.00  0.00    -0.141 OA 
HETATM   39  O   UNL     1      -8.238   4.763  68.240  1.00  0.00    -0.088 OA 
ENDBRANCH  34  35
ENDBRANCH  32  34
ENDBRANCH  29  30
ENDBRANCH   6  29
TORSDOF 4
ENDMDL
MODEL       75
REMARK 921   NORMALIZED FREE ENERGY PREDICTED BY IDOCK:   -5.46 KCAL/MOL
REMARK 922        TOTAL FREE ENERGY PREDICTED BY IDOCK:   -7.56 KCAL/MOL
REMARK 923 INTER-LIGAND FREE ENERGY PREDICTED BY IDOCK:   -7.27 KCAL/MOL
REMARK 924 INTRA-LIGAND FREE ENERGY PREDICTED BY IDOCK:   -0.29 KCAL/MOL
REMARK 927      BINDING AFFINITY PREDICTED BY RF-SCORE:    0.00 PKD
ROOT
HETATM    1  C   UNL     1     -10.559  10.060  68.669  1.00  0.00    -0.239 C  
HETATM    2  C   UNL     1     -10.277   8.749  69.773  1.00  0.00    -0.205 C  
HETATM    3  C   UNL     1      -9.553  10.922  69.429  1.00  0.00     0.009 C  
HETATM    4  C   UNL     1     -10.289   7.259  69.456  1.00  0.00    -0.230 C  
HETATM    5  C   UNL     1      -8.289  10.536  68.644  1.00  0.00    -0.132 C  
HETATM    6  C   UNL     1     -10.743   8.979  71.296  1.00  0.00    -0.379 C  
HETATM    7  C   UNL     1      -9.920   8.998  66.318  1.00  0.00    -0.352 C  
HETATM    8  C   UNL     1      -8.602  11.165  67.334  1.00  0.00    -0.137 C  
HETATM    9  C   UNL     1      -8.804  12.750  67.572  1.00  0.00    -0.187 C  
HETATM   10  H   UNL     1     -11.155   9.968  64.670  1.00  0.00     0.000 HD 
HETATM   11  O   UNL     1     -11.246  10.912  64.717  1.00  0.00     0.004 OA 
HETATM   12  C   UNL     1      -9.958  10.395  66.989  1.00  0.00    -0.252 C  
HETATM   13  C   UNL     1      -7.675  13.414  68.382  1.00  0.00    -0.138 C  
HETATM   14  C   UNL     1     -10.307  11.384  65.692  1.00  0.00    -0.257 C  
HETATM   15  C   UNL     1      -8.232  14.685  68.955  1.00  0.00    -0.145 C  
HETATM   16  O   UNL     1      -7.209  12.746  69.545  1.00  0.00    -0.319 OA 
HETATM   17  C   UNL     1     -10.457  12.929  65.770  1.00  0.00    -0.293 C  
HETATM   18  C   UNL     1      -8.467  15.710  67.875  1.00  0.00    -0.153 C  
HETATM   19  C   UNL     1      -9.247  13.647  66.399  1.00  0.00    -0.142 C  
HETATM   20  H   UNL     1      -6.512  13.155  70.045  1.00  0.00     0.000 HD 
HETATM   21  C   UNL     1      -9.309  16.075  65.522  1.00  0.00     0.042 C  
HETATM   22  C   UNL     1      -8.707  17.039  68.615  1.00  0.00    -0.261 C  
HETATM   23  C   UNL     1      -9.517  15.238  66.816  1.00  0.00    -0.264 C  
HETATM   24  C   UNL     1     -10.127  17.422  68.991  1.00  0.00    -0.295 C  
HETATM   25  C   UNL     1     -10.955  15.572  67.353  1.00  0.00    -0.306 C  
HETATM   26  H   UNL     1     -11.353  17.244  70.549  1.00  0.00     0.000 HD 
HETATM   27  O   UNL     1     -10.464  17.004  70.313  1.00  0.00     0.141 OA 
HETATM   28  C   UNL     1     -11.168  16.978  67.980  1.00  0.00    -0.016 C  
ENDROOT
BRANCH   6  29
HETATM   29  C   UNL     1     -12.187   9.315  71.628  1.00  0.00    -0.445 C  
BRANCH  29  30
HETATM   30  C   UNL     1     -12.683  10.547  70.927  1.00  0.00    -0.402 C  
HETATM   31  O   UNL     1     -13.357  10.480  69.905  1.00  0.00     0.047 OA 
HETATM   32  N   UNL     1     -12.294  11.741  71.505  1.00  0.00    -0.076 N  
HETATM   33  H   UNL     1     -11.769  11.728  72.380  1.00  0.00     0.000 HD 
BRANCH  32  34
HETATM   34  C   UNL     1     -12.619  13.008  70.891  1.00  0.00    -0.280 C  
BRANCH  34  35
HETATM   35  C   UNL     1     -13.655  13.777  71.710  1.00  0.00    -0.368 C  
HETATM   36  S   UNL     1     -13.127  15.455  71.944  1.00  0.00    -0.464 S  
HETATM   37  O   UNL     1     -14.338  15.949  72.892  1.00  0.00    -0.373 OA 
HETATM   38  O   UNL     1     -13.204  16.188  70.703  1.00  0.00    -0.013 OA 
HETATM   39  O   UNL     1     -11.943  15.467  72.777  1.00  0.00    -0.397 OA 
ENDBRANCH  34  35
ENDBRANCH  32  34
ENDBRANCH  29  30
ENDBRANCH   6  29
TORSDOF 4
ENDMDL
MODEL       76
REMARK 921   NORMALIZED FREE ENERGY PREDICTED BY IDOCK:   -5.42 KCAL/MOL
REMARK 922        TOTAL FREE ENERGY PREDICTED BY IDOCK:   -7.51 KCAL/MOL
REMARK 923 INTER-LIGAND FREE ENERGY PREDICTED BY IDOCK:   -6.40 KCAL/MOL
REMARK 924 INTRA-LIGAND FREE ENERGY PREDICTED BY IDOCK:   -1.11 KCAL/MOL
REMARK 927      BINDING AFFINITY PREDICTED BY RF-SCORE:    0.00 PKD
ROOT
HETATM    1  C   UNL     1      -8.596   9.810  70.067  1.00  0.00    -0.229 C  
HETATM    2  C   UNL     1      -7.326   8.646  70.285  1.00  0.00    -0.054 C  
HETATM    3  C   UNL     1      -8.121  10.067  68.639  1.00  0.00    -0.102 C  
HETATM    4  C   UNL     1      -7.380   7.368  71.114  1.00  0.00    -0.072 C  
HETATM    5  C   UNL     1      -8.974   9.007  67.924  1.00  0.00    -0.135 C  
HETATM    6  C   UNL     1      -5.820   9.212  70.267  1.00  0.00    -0.035 C  
HETATM    7  C   UNL     1     -10.791   8.381  70.522  1.00  0.00    -0.250 C  
HETATM    8  C   UNL     1     -10.325   9.596  68.119  1.00  0.00    -0.250 C  
HETATM    9  C   UNL     1     -10.339  11.060  67.436  1.00  0.00    -0.242 C  
HETATM   10  H   UNL     1     -12.420   9.718  71.382  1.00  0.00     0.000 HD 
HETATM   11  O   UNL     1     -12.525  10.567  70.969  1.00  0.00    -0.329 OA 
HETATM   12  C   UNL     1     -10.368   9.636  69.715  1.00  0.00    -0.266 C  
HETATM   13  C   UNL     1      -9.796  11.089  65.997  1.00  0.00    -0.229 C  
HETATM   14  C   UNL     1     -11.764  10.549  69.754  1.00  0.00    -0.281 C  
HETATM   15  C   UNL     1      -9.386  12.505  65.708  1.00  0.00     0.014 C  
HETATM   16  O   UNL     1      -8.600  10.375  65.722  1.00  0.00    -0.152 OA 
HETATM   17  C   UNL     1     -11.934  11.938  69.079  1.00  0.00    -0.321 C  
HETATM   18  C   UNL     1     -10.589  13.405  65.592  1.00  0.00    -0.286 C  
HETATM   19  C   UNL     1     -11.587  11.955  67.578  1.00  0.00    -0.374 C  
HETATM   20  H   UNL     1      -8.265  10.392  64.833  1.00  0.00     0.000 HD 
HETATM   21  C   UNL     1     -12.852  13.965  66.564  1.00  0.00     0.162 C  
HETATM   22  C   UNL     1     -10.065  14.715  64.976  1.00  0.00    -0.318 C  
HETATM   23  C   UNL     1     -11.419  13.476  66.916  1.00  0.00    -0.374 C  
HETATM   24  C   UNL     1      -9.592  15.821  65.901  1.00  0.00    -0.347 C  
HETATM   25  C   UNL     1     -10.778  14.564  67.850  1.00  0.00    -0.245 C  
HETATM   26  H   UNL     1      -7.891  16.450  66.722  1.00  0.00     0.000 HD 
HETATM   27  O   UNL     1      -8.187  15.757  66.143  1.00  0.00    -0.179 OA 
HETATM   28  C   UNL     1     -10.380  15.915  67.195  1.00  0.00    -0.300 C  
ENDROOT
BRANCH   6  29
HETATM   29  C   UNL     1      -5.380  10.288  71.245  1.00  0.00    -0.076 C  
BRANCH  29  30
HETATM   30  C   UNL     1      -5.301  11.654  70.626  1.00  0.00    -0.141 C  
HETATM   31  O   UNL     1      -5.158  11.807  69.419  1.00  0.00    -0.052 OA 
HETATM   32  N   UNL     1      -5.370  12.704  71.524  1.00  0.00    -0.093 N  
HETATM   33  H   UNL     1      -5.532  12.510  72.512  1.00  0.00     0.000 HD 
BRANCH  32  34
HETATM   34  C   UNL     1      -5.216  14.072  71.085  1.00  0.00    -0.147 C  
BRANCH  34  35
HETATM   35  C   UNL     1      -6.529  14.637  70.544  1.00  0.00    -0.053 C  
HETATM   36  S   UNL     1      -6.231  16.158  69.680  1.00  0.00    -0.187 S  
HETATM   37  O   UNL     1      -7.764  16.534  69.337  1.00  0.00    -0.209 OA 
HETATM   38  O   UNL     1      -5.544  15.907  68.436  1.00  0.00    -0.100 OA 
HETATM   39  O   UNL     1      -5.781  17.159  70.624  1.00  0.00    -0.149 OA 
ENDBRANCH  34  35
ENDBRANCH  32  34
ENDBRANCH  29  30
ENDBRANCH   6  29
TORSDOF 4
ENDMDL
MODEL       77
REMARK 921   NORMALIZED FREE ENERGY PREDICTED BY IDOCK:   -5.41 KCAL/MOL
REMARK 922        TOTAL FREE ENERGY PREDICTED BY IDOCK:   -7.50 KCAL/MOL
REMARK 923 INTER-LIGAND FREE ENERGY PREDICTED BY IDOCK:   -7.03 KCAL/MOL
REMARK 924 INTRA-LIGAND FREE ENERGY PREDICTED BY IDOCK:   -0.47 KCAL/MOL
REMARK 927      BINDING AFFINITY PREDICTED BY RF-SCORE:    0.00 PKD
ROOT
HETATM    1  C   UNL     1      -9.026   8.147  68.133  1.00  0.00    -0.135 C  
HETATM    2  C   UNL     1      -9.516   6.667  68.900  1.00  0.00    -0.130 C  
HETATM    3  C   UNL     1     -10.381   8.770  68.461  1.00  0.00    -0.231 C  
HETATM    4  C   UNL     1      -8.637   5.700  69.683  1.00  0.00    -0.110 C  
HETATM    5  C   UNL     1     -10.027   9.367  69.833  1.00  0.00    -0.237 C  
HETATM    6  C   UNL     1     -10.715   5.855  68.197  1.00  0.00    -0.329 C  
HETATM    7  C   UNL     1      -6.857   8.833  69.506  1.00  0.00    -0.048 C  
HETATM    8  C   UNL     1      -9.074  10.427  69.409  1.00  0.00    -0.170 C  
HETATM    9  C   UNL     1      -9.849  11.428  68.405  1.00  0.00    -0.205 C  
HETATM   10  H   UNL     1      -5.426   9.988  68.166  1.00  0.00     0.000 HD 
HETATM   11  O   UNL     1      -5.818  10.646  67.604  1.00  0.00    -0.044 OA 
HETATM   12  C   UNL     1      -7.977   9.520  68.684  1.00  0.00    -0.092 C  
HETATM   13  C   UNL     1     -11.209  11.920  68.933  1.00  0.00    -0.254 C  
HETATM   14  C   UNL     1      -7.170  10.834  68.046  1.00  0.00    -0.086 C  
HETATM   15  C   UNL     1     -12.006  12.373  67.743  1.00  0.00    -0.252 C  
HETATM   16  O   UNL     1     -12.078  10.966  69.524  1.00  0.00    -0.324 OA 
HETATM   17  C   UNL     1      -7.812  11.910  67.127  1.00  0.00    -0.168 C  
HETATM   18  C   UNL     1     -11.436  13.639  67.157  1.00  0.00    -0.367 C  
HETATM   19  C   UNL     1      -9.073  12.570  67.718  1.00  0.00    -0.191 C  
HETATM   20  H   UNL     1     -12.918  11.270  69.850  1.00  0.00     0.000 HD 
HETATM   21  C   UNL     1      -9.310  14.858  66.546  1.00  0.00    -0.308 C  
HETATM   22  C   UNL     1     -12.511  14.164  66.189  1.00  0.00    -0.426 C  
HETATM   23  C   UNL     1      -9.975  13.455  66.631  1.00  0.00    -0.277 C  
HETATM   24  C   UNL     1     -12.466  13.725  64.737  1.00  0.00    -0.349 C  
HETATM   25  C   UNL     1     -10.037  12.886  65.168  1.00  0.00    -0.241 C  
HETATM   26  H   UNL     1     -13.251  12.302  63.587  1.00  0.00     0.000 HD 
HETATM   27  O   UNL     1     -13.279  12.577  64.496  1.00  0.00    -0.832 OA 
HETATM   28  C   UNL     1     -11.059  13.539  64.197  1.00  0.00    -0.302 C  
ENDROOT
BRANCH   6  29
HETATM   29  C   UNL     1     -10.604   5.395  66.754  1.00  0.00    -0.339 C  
BRANCH  29  30
HETATM   30  C   UNL     1      -9.539   4.358  66.544  1.00  0.00    -0.197 C  
HETATM   31  O   UNL     1      -9.707   3.187  66.866  1.00  0.00    -0.068 OA 
HETATM   32  N   UNL     1      -8.362   4.835  65.997  1.00  0.00    -0.111 N  
HETATM   33  H   UNL     1      -8.302   5.813  65.712  1.00  0.00     0.000 HD 
BRANCH  32  34
HETATM   34  C   UNL     1      -7.217   3.972  65.822  1.00  0.00    -0.072 C  
BRANCH  34  35
HETATM   35  C   UNL     1      -6.193   4.168  66.941  1.00  0.00    -0.036 C  
HETATM   36  S   UNL     1      -6.230   2.785  68.052  1.00  0.00    -0.029 S  
HETATM   37  O   UNL     1      -5.153   3.325  69.129  1.00  0.00    -0.010 OA 
HETATM   38  O   UNL     1      -5.677   1.612  67.419  1.00  0.00    -0.017 OA 
HETATM   39  O   UNL     1      -7.502   2.766  68.742  1.00  0.00    -0.048 OA 
ENDBRANCH  34  35
ENDBRANCH  32  34
ENDBRANCH  29  30
ENDBRANCH   6  29
TORSDOF 4
ENDMDL
MODEL       78
REMARK 921   NORMALIZED FREE ENERGY PREDICTED BY IDOCK:   -5.40 KCAL/MOL
REMARK 922        TOTAL FREE ENERGY PREDICTED BY IDOCK:   -7.49 KCAL/MOL
REMARK 923 INTER-LIGAND FREE ENERGY PREDICTED BY IDOCK:   -6.31 KCAL/MOL
REMARK 924 INTRA-LIGAND FREE ENERGY PREDICTED BY IDOCK:   -1.18 KCAL/MOL
REMARK 927      BINDING AFFINITY PREDICTED BY RF-SCORE:    0.00 PKD
ROOT
HETATM    1  C   UNL     1     -10.122  13.264  65.389  1.00  0.00    -0.267 C  
HETATM    2  C   UNL     1     -11.201  14.624  65.433  1.00  0.00    -0.347 C  
HETATM    3  C   UNL     1     -10.765  12.708  66.658  1.00  0.00    -0.275 C  
HETATM    4  C   UNL     1     -11.799  15.365  64.243  1.00  0.00    -0.207 C  
HETATM    5  C   UNL     1     -11.861  11.855  65.999  1.00  0.00    -0.101 C  
HETATM    6  C   UNL     1     -11.026  15.642  66.667  1.00  0.00    -0.212 C  
HETATM    7  C   UNL     1     -10.644  12.174  63.022  1.00  0.00     0.006 C  
HETATM    8  C   UNL     1     -11.019  10.810  65.360  1.00  0.00     0.040 C  
HETATM    9  C   UNL     1     -10.176  10.065  66.520  1.00  0.00    -0.291 C  
HETATM   10  H   UNL     1      -8.778  11.153  62.212  1.00  0.00     0.000 HD 
HETATM   11  O   UNL     1      -8.280  10.637  62.835  1.00  0.00    -0.159 OA 
HETATM   12  C   UNL     1     -10.123  11.734  64.414  1.00  0.00    -0.319 C  
HETATM   13  C   UNL     1     -11.026   9.603  67.718  1.00  0.00    -0.139 C  
HETATM   14  C   UNL     1      -9.089  10.488  64.010  1.00  0.00    -0.231 C  
HETATM   15  C   UNL     1     -10.092   9.431  68.881  1.00  0.00    -0.201 C  
HETATM   16  O   UNL     1     -11.985  10.509  68.242  1.00  0.00    -0.790 OA 
HETATM   17  C   UNL     1      -8.275   9.644  65.029  1.00  0.00    -0.137 C  
HETATM   18  C   UNL     1      -9.187   8.242  68.680  1.00  0.00    -0.143 C  
HETATM   19  C   UNL     1      -9.130   8.998  66.137  1.00  0.00    -0.246 C  
HETATM   20  H   UNL     1     -12.510  10.225  68.981  1.00  0.00     0.000 HD 
HETATM   21  C   UNL     1      -7.782   6.975  67.007  1.00  0.00    -0.107 C  
HETATM   22  C   UNL     1      -8.537   7.984  70.051  1.00  0.00    -0.134 C  
HETATM   23  C   UNL     1      -8.265   8.393  67.426  1.00  0.00    -0.120 C  
HETATM   24  C   UNL     1      -7.219   8.662  70.376  1.00  0.00    -0.045 C  
HETATM   25  C   UNL     1      -6.988   9.209  67.840  1.00  0.00    -0.077 C  
HETATM   26  H   UNL     1      -6.580  10.323  71.269  1.00  0.00     0.000 HD 
HETATM   27  O   UNL     1      -7.405   9.898  71.065  1.00  0.00    -0.312 OA 
HETATM   28  C   UNL     1      -6.301   8.821  69.178  1.00  0.00    -0.043 C  
ENDROOT
BRANCH   6  29
HETATM   29  C   UNL     1      -9.699  16.334  66.925  1.00  0.00    -0.247 C  
BRANCH  29  30
HETATM   30  C   UNL     1      -9.318  16.360  68.377  1.00  0.00    -0.217 C  
HETATM   31  O   UNL     1      -8.347  16.992  68.778  1.00  0.00    -0.251 OA 
HETATM   32  N   UNL     1     -10.123  15.596  69.203  1.00  0.00    -0.221 N  
HETATM   33  H   UNL     1     -10.942  15.128  68.813  1.00  0.00     0.000 HD 
BRANCH  32  34
HETATM   34  C   UNL     1      -9.825  15.451  70.609  1.00  0.00     0.723 C  
BRANCH  34  35
HETATM   35  C   UNL     1     -11.097  15.258  71.434  1.00  0.00    -0.227 C  
HETATM   36  S   UNL     1     -12.402  14.631  70.408  1.00  0.00    -0.355 S  
HETATM   37  O   UNL     1     -13.584  14.635  71.509  1.00  0.00    -0.362 OA 
HETATM   38  O   UNL     1     -12.141  13.260  70.038  1.00  0.00    -0.322 OA 
HETATM   39  O   UNL     1     -12.766  15.639  69.436  1.00  0.00     0.023 OA 
ENDBRANCH  34  35
ENDBRANCH  32  34
ENDBRANCH  29  30
ENDBRANCH   6  29
TORSDOF 4
ENDMDL
MODEL       79
REMARK 921   NORMALIZED FREE ENERGY PREDICTED BY IDOCK:   -5.40 KCAL/MOL
REMARK 922        TOTAL FREE ENERGY PREDICTED BY IDOCK:   -7.48 KCAL/MOL
REMARK 923 INTER-LIGAND FREE ENERGY PREDICTED BY IDOCK:   -6.50 KCAL/MOL
REMARK 924 INTRA-LIGAND FREE ENERGY PREDICTED BY IDOCK:   -0.98 KCAL/MOL
REMARK 927      BINDING AFFINITY PREDICTED BY RF-SCORE:    0.00 PKD
ROOT
HETATM    1  C   UNL     1      -8.186   7.446  67.119  1.00  0.00    -0.118 C  
HETATM    2  C   UNL     1      -7.332   6.299  68.104  1.00  0.00    -0.089 C  
HETATM    3  C   UNL     1      -7.876   8.550  68.128  1.00  0.00    -0.103 C  
HETATM    4  C   UNL     1      -6.507   5.110  67.629  1.00  0.00    -0.045 C  
HETATM    5  C   UNL     1      -6.545   9.033  67.531  1.00  0.00    -0.065 C  
HETATM    6  C   UNL     1      -7.973   5.968  69.543  1.00  0.00    -0.106 C  
HETATM    7  C   UNL     1      -6.879   7.326  64.808  1.00  0.00    -0.050 C  
HETATM    8  C   UNL     1      -7.038   9.633  66.263  1.00  0.00    -0.093 C  
HETATM    9  C   UNL     1      -8.087  10.804  66.636  1.00  0.00    -0.142 C  
HETATM   10  H   UNL     1      -8.299   7.790  63.090  1.00  0.00     0.000 HD 
HETATM   11  O   UNL     1      -8.892   8.521  63.225  1.00  0.00     0.060 OA 
HETATM   12  C   UNL     1      -7.725   8.346  65.612  1.00  0.00    -0.099 C  
HETATM   13  C   UNL     1      -7.572  11.798  67.693  1.00  0.00    -0.132 C  
HETATM   14  C   UNL     1      -8.445   9.226  64.390  1.00  0.00    -0.188 C  
HETATM   15  C   UNL     1      -8.775  12.461  68.298  1.00  0.00    -0.175 C  
HETATM   16  O   UNL     1      -6.917  11.272  68.838  1.00  0.00    -0.082 OA 
HETATM   17  C   UNL     1      -9.414  10.420  64.610  1.00  0.00    -0.336 C  
HETATM   18  C   UNL     1      -9.437  13.389  67.313  1.00  0.00    -0.234 C  
HETATM   19  C   UNL     1      -8.846  11.535  65.509  1.00  0.00     0.036 C  
HETATM   20  H   UNL     1      -6.598  11.885  69.490  1.00  0.00     0.000 HD 
HETATM   21  C   UNL     1     -10.142  13.685  64.905  1.00  0.00    -0.293 C  
HETATM   22  C   UNL     1     -10.421  14.236  68.142  1.00  0.00    -0.246 C  
HETATM   23  C   UNL     1      -9.970  12.642  66.046  1.00  0.00    -0.267 C  
HETATM   24  C   UNL     1     -11.846  13.744  68.312  1.00  0.00    -0.378 C  
HETATM   25  C   UNL     1     -11.398  12.071  66.366  1.00  0.00    -0.411 C  
HETATM   26  H   UNL     1     -12.905  12.670  69.612  1.00  0.00     0.000 HD 
HETATM   27  O   UNL     1     -12.013  12.978  69.505  1.00  0.00    -0.309 OA 
HETATM   28  C   UNL     1     -12.391  13.015  67.097  1.00  0.00    -0.004 C  
ENDROOT
BRANCH   6  29
HETATM   29  C   UNL     1      -9.390   5.433  69.660  1.00  0.00    -0.178 C  
BRANCH  29  30
HETATM   30  C   UNL     1     -10.421   6.515  69.801  1.00  0.00    -0.211 C  
HETATM   31  O   UNL     1     -11.500   6.457  69.223  1.00  0.00    -0.381 OA 
HETATM   32  N   UNL     1     -10.041   7.581  70.597  1.00  0.00    -0.187 N  
HETATM   33  H   UNL     1      -9.145   7.548  71.084  1.00  0.00     0.000 HD 
BRANCH  32  34
HETATM   34  C   UNL     1     -10.892   8.738  70.751  1.00  0.00    -0.234 C  
BRANCH  34  35
HETATM   35  C   UNL     1     -11.645   8.705  72.081  1.00  0.00    -0.370 C  
HETATM   36  S   UNL     1     -13.396   8.725  71.793  1.00  0.00    -0.393 S  
HETATM   37  O   UNL     1     -13.883   8.785  73.332  1.00  0.00    -0.065 OA 
HETATM   38  O   UNL     1     -13.832   7.467  71.236  1.00  0.00    -0.365 OA 
HETATM   39  O   UNL     1     -13.766   9.998  71.213  1.00  0.00    -0.243 OA 
ENDBRANCH  34  35
ENDBRANCH  32  34
ENDBRANCH  29  30
ENDBRANCH   6  29
TORSDOF 4
ENDMDL
MODEL       80
REMARK 921   NORMALIZED FREE ENERGY PREDICTED BY IDOCK:   -5.37 KCAL/MOL
REMARK 922        TOTAL FREE ENERGY PREDICTED BY IDOCK:   -7.45 KCAL/MOL
REMARK 923 INTER-LIGAND FREE ENERGY PREDICTED BY IDOCK:   -6.64 KCAL/MOL
REMARK 924 INTRA-LIGAND FREE ENERGY PREDICTED BY IDOCK:   -0.82 KCAL/MOL
REMARK 927      BINDING AFFINITY PREDICTED BY RF-SCORE:    0.00 PKD
ROOT
HETATM    1  C   UNL     1     -10.700   7.035  69.957  1.00  0.00    -0.267 C  
HETATM    2  C   UNL     1     -10.917   6.693  71.646  1.00  0.00    -0.280 C  
HETATM    3  C   UNL     1     -10.130   8.408  70.305  1.00  0.00    -0.196 C  
HETATM    4  C   UNL     1     -10.780   5.342  72.337  1.00  0.00    -0.286 C  
HETATM    5  C   UNL     1      -8.647   8.015  70.412  1.00  0.00    -0.131 C  
HETATM    6  C   UNL     1     -11.999   7.590  72.429  1.00  0.00    -0.264 C  
HETATM    7  C   UNL     1      -9.098   5.071  69.158  1.00  0.00    -0.137 C  
HETATM    8  C   UNL     1      -8.366   7.698  68.987  1.00  0.00    -0.128 C  
HETATM    9  C   UNL     1      -8.661   9.022  68.109  1.00  0.00    -0.130 C  
HETATM   10  H   UNL     1      -9.502   4.584  66.972  1.00  0.00     0.000 HD 
HETATM   11  O   UNL     1      -9.610   5.328  66.391  1.00  0.00    -0.143 OA 
HETATM   12  C   UNL     1      -9.433   6.531  68.760  1.00  0.00    -0.128 C  
HETATM   13  C   UNL     1      -8.001  10.300  68.656  1.00  0.00    -0.111 C  
HETATM   14  C   UNL     1      -9.191   6.496  67.110  1.00  0.00    -0.128 C  
HETATM   15  C   UNL     1      -8.759  11.466  68.090  1.00  0.00    -0.154 C  
HETATM   16  O   UNL     1      -8.081  10.547  70.052  1.00  0.00    -0.352 OA 
HETATM   17  C   UNL     1      -9.370   7.713  66.160  1.00  0.00    -0.141 C  
HETATM   18  C   UNL     1      -8.510  11.610  66.610  1.00  0.00    -0.165 C  
HETATM   19  C   UNL     1      -8.558   8.956  66.572  1.00  0.00    -0.133 C  
HETATM   20  H   UNL     1      -7.673  11.335  70.390  1.00  0.00     0.000 HD 
HETATM   21  C   UNL     1      -8.250  10.363  64.429  1.00  0.00    -0.125 C  
HETATM   22  C   UNL     1      -9.056  12.999  66.234  1.00  0.00    -0.005 C  
HETATM   23  C   UNL     1      -8.993  10.365  65.795  1.00  0.00    -0.189 C  
HETATM   24  C   UNL     1     -10.501  13.121  65.786  1.00  0.00    -0.283 C  
HETATM   25  C   UNL     1     -10.524  10.533  65.485  1.00  0.00    -0.220 C  
HETATM   26  H   UNL     1     -12.281  13.511  66.589  1.00  0.00     0.000 HD 
HETATM   27  O   UNL     1     -11.376  13.434  66.869  1.00  0.00    -0.302 OA 
HETATM   28  C   UNL     1     -10.998  11.928  64.990  1.00  0.00    -0.365 C  
ENDROOT
BRANCH   6  29
HETATM   29  C   UNL     1     -13.446   7.644  71.970  1.00  0.00    -0.220 C  
BRANCH  29  30
HETATM   30  C   UNL     1     -13.895   9.026  71.593  1.00  0.00    -0.368 C  
HETATM   31  O   UNL     1     -14.353   9.275  70.484  1.00  0.00     0.321 OA 
HETATM   32  N   UNL     1     -13.720   9.983  72.577  1.00  0.00    -0.571 N  
HETATM   33  H   UNL     1     -13.373   9.702  73.494  1.00  0.00     0.000 HD 
BRANCH  32  34
HETATM   34  C   UNL     1     -14.022  11.374  72.327  1.00  0.00     0.647 C  
BRANCH  34  35
HETATM   35  C   UNL     1     -12.792  12.131  71.824  1.00  0.00    -0.262 C  
HETATM   36  S   UNL     1     -13.070  13.881  71.924  1.00  0.00    -0.400 S  
HETATM   37  O   UNL     1     -11.685  14.373  71.252  1.00  0.00    -0.289 OA 
HETATM   38  O   UNL     1     -13.077  14.315  73.300  1.00  0.00    -0.583 OA 
HETATM   39  O   UNL     1     -14.113  14.249  70.991  1.00  0.00    -0.151 OA 
ENDBRANCH  34  35
ENDBRANCH  32  34
ENDBRANCH  29  30
ENDBRANCH   6  29
TORSDOF 4
ENDMDL
MODEL       81
REMARK 921   NORMALIZED FREE ENERGY PREDICTED BY IDOCK:   -5.32 KCAL/MOL
REMARK 922        TOTAL FREE ENERGY PREDICTED BY IDOCK:   -7.39 KCAL/MOL
REMARK 923 INTER-LIGAND FREE ENERGY PREDICTED BY IDOCK:   -6.29 KCAL/MOL
REMARK 924 INTRA-LIGAND FREE ENERGY PREDICTED BY IDOCK:   -1.10 KCAL/MOL
REMARK 927      BINDING AFFINITY PREDICTED BY RF-SCORE:    0.00 PKD
ROOT
HETATM    1  C   UNL     1      -7.433  13.727  69.188  1.00  0.00     0.062 C  
HETATM    2  C   UNL     1      -7.683  15.327  68.561  1.00  0.00    -0.128 C  
HETATM    3  C   UNL     1      -7.472  13.162  67.769  1.00  0.00    -0.150 C  
HETATM    4  C   UNL     1      -7.117  16.631  69.110  1.00  0.00    -0.226 C  
HETATM    5  C   UNL     1      -5.973  13.266  67.446  1.00  0.00     0.034 C  
HETATM    6  C   UNL     1      -9.104  15.612  67.860  1.00  0.00    -0.185 C  
HETATM    7  C   UNL     1      -5.127  13.956  70.487  1.00  0.00    -0.100 C  
HETATM    8  C   UNL     1      -5.439  12.242  68.382  1.00  0.00    -0.055 C  
HETATM    9  C   UNL     1      -6.121  10.823  68.018  1.00  0.00    -0.050 C  
HETATM   10  H   UNL     1      -5.076  12.500  72.236  1.00  0.00     0.000 HD 
HETATM   11  O   UNL     1      -5.397  11.624  72.060  1.00  0.00    -0.342 OA 
HETATM   12  C   UNL     1      -5.949  12.858  69.765  1.00  0.00    -0.129 C  
HETATM   13  C   UNL     1      -6.062  10.461  66.523  1.00  0.00    -0.072 C  
HETATM   14  C   UNL     1      -5.536  11.497  70.638  1.00  0.00    -0.142 C  
HETATM   15  C   UNL     1      -7.142   9.449  66.271  1.00  0.00    -0.088 C  
HETATM   16  O   UNL     1      -6.380  11.474  65.580  1.00  0.00    -0.325 OA 
HETATM   17  C   UNL     1      -6.062  10.064  70.350  1.00  0.00    -0.093 C  
HETATM   18  C   UNL     1      -6.809   8.127  66.913  1.00  0.00    -0.069 C  
HETATM   19  C   UNL     1      -5.836   9.591  68.901  1.00  0.00    -0.039 C  
HETATM   20  H   UNL     1      -6.343  11.251  64.657  1.00  0.00     0.000 HD 
HETATM   21  C   UNL     1      -5.859   7.010  68.969  1.00  0.00    -0.019 C  
HETATM   22  C   UNL     1      -7.800   7.115  66.309  1.00  0.00    -0.107 C  
HETATM   23  C   UNL     1      -6.689   8.226  68.469  1.00  0.00    -0.063 C  
HETATM   24  C   UNL     1      -9.125   6.880  67.011  1.00  0.00    -0.136 C  
HETATM   25  C   UNL     1      -8.125   8.089  69.091  1.00  0.00    -0.119 C  
HETATM   26  H   UNL     1     -10.993   7.561  66.932  1.00  0.00     0.000 HD 
HETATM   27  O   UNL     1     -10.164   7.709  66.492  1.00  0.00    -0.221 OA 
HETATM   28  C   UNL     1      -9.039   6.968  68.524  1.00  0.00    -0.131 C  
ENDROOT
BRANCH   6  29
HETATM   29  C   UNL     1     -10.403  15.406  68.619  1.00  0.00    -0.234 C  
BRANCH  29  30
HETATM   30  C   UNL     1     -11.328  14.427  67.955  1.00  0.00    -0.301 C  
HETATM   31  O   UNL     1     -12.489  14.716  67.688  1.00  0.00    -0.042 OA 
HETATM   32  N   UNL     1     -10.776  13.184  67.704  1.00  0.00    -0.236 N  
HETATM   33  H   UNL     1      -9.790  13.021  67.911  1.00  0.00     0.000 HD 
BRANCH  32  34
HETATM   34  C   UNL     1     -11.572  12.112  67.153  1.00  0.00    -0.335 C  
BRANCH  34  35
HETATM   35  C   UNL     1     -11.075  11.701  65.767  1.00  0.00    -0.256 C  
HETATM   36  S   UNL     1     -11.831  12.714  64.521  1.00  0.00    -0.406 S  
HETATM   37  O   UNL     1     -11.203  11.990  63.221  1.00  0.00    -0.386 OA 
HETATM   38  O   UNL     1     -11.312  14.060  64.578  1.00  0.00    -0.368 OA 
HETATM   39  O   UNL     1     -13.251  12.434  64.481  1.00  0.00    -0.834 OA 
ENDBRANCH  34  35
ENDBRANCH  32  34
ENDBRANCH  29  30
ENDBRANCH   6  29
TORSDOF 4
ENDMDL
MODEL       82
REMARK 921   NORMALIZED FREE ENERGY PREDICTED BY IDOCK:   -5.27 KCAL/MOL
REMARK 922        TOTAL FREE ENERGY PREDICTED BY IDOCK:   -7.33 KCAL/MOL
REMARK 923 INTER-LIGAND FREE ENERGY PREDICTED BY IDOCK:   -5.89 KCAL/MOL
REMARK 924 INTRA-LIGAND FREE ENERGY PREDICTED BY IDOCK:   -1.45 KCAL/MOL
REMARK 927      BINDING AFFINITY PREDICTED BY RF-SCORE:    0.00 PKD
ROOT
HETATM    1  C   UNL     1      -9.199  11.881  68.733  1.00  0.00     0.025 C  
HETATM    2  C   UNL     1     -10.419  13.112  68.631  1.00  0.00    -0.242 C  
HETATM    3  C   UNL     1      -9.954  11.042  67.704  1.00  0.00    -0.196 C  
HETATM    4  C   UNL     1     -10.221  14.618  68.752  1.00  0.00    -0.242 C  
HETATM    5  C   UNL     1      -9.287  11.592  66.433  1.00  0.00    -0.224 C  
HETATM    6  C   UNL     1     -11.886  12.718  69.165  1.00  0.00    -0.352 C  
HETATM    7  C   UNL     1      -6.987  13.185  68.050  1.00  0.00    -0.116 C  
HETATM    8  C   UNL     1      -7.914  11.053  66.613  1.00  0.00    -0.156 C  
HETATM    9  C   UNL     1      -8.012   9.442  66.692  1.00  0.00    -0.108 C  
HETATM   10  H   UNL     1      -5.189  12.261  69.097  1.00  0.00     0.000 HD 
HETATM   11  O   UNL     1      -5.155  11.312  69.109  1.00  0.00    -0.044 OA 
HETATM   12  C   UNL     1      -7.542  11.738  68.008  1.00  0.00    -0.116 C  
HETATM   13  C   UNL     1      -8.840   8.806  65.561  1.00  0.00    -0.188 C  
HETATM   14  C   UNL     1      -6.150  10.836  68.193  1.00  0.00    -0.050 C  
HETATM   15  C   UNL     1      -9.272   7.450  66.040  1.00  0.00    -0.092 C  
HETATM   16  O   UNL     1     -10.080   9.409  65.224  1.00  0.00    -0.376 OA 
HETATM   17  C   UNL     1      -6.095   9.284  68.214  1.00  0.00    -0.052 C  
HETATM   18  C   UNL     1      -8.101   6.504  66.122  1.00  0.00    -0.118 C  
HETATM   19  C   UNL     1      -6.744   8.615  66.987  1.00  0.00    -0.062 C  
HETATM   20  H   UNL     1     -10.591   9.017  64.526  1.00  0.00     0.000 HD 
HETATM   21  C   UNL     1      -5.676   6.272  66.788  1.00  0.00    -0.016 C  
HETATM   22  C   UNL     1      -8.716   5.103  66.291  1.00  0.00    -0.119 C  
HETATM   23  C   UNL     1      -7.016   6.978  67.144  1.00  0.00    -0.078 C  
HETATM   24  C   UNL     1      -8.966   4.577  67.692  1.00  0.00    -0.115 C  
HETATM   25  C   UNL     1      -7.428   6.485  68.577  1.00  0.00    -0.088 C  
HETATM   26  H   UNL     1     -10.449   4.523  69.020  1.00  0.00     0.000 HD 
HETATM   27  O   UNL     1     -10.292   4.853  68.142  1.00  0.00    -0.080 OA 
HETATM   28  C   UNL     1      -7.926   5.019  68.706  1.00  0.00    -0.081 C  
ENDROOT
BRANCH   6  29
HETATM   29  C   UNL     1     -12.093  12.240  70.592  1.00  0.00    -0.330 C  
BRANCH  29  30
HETATM   30  C   UNL     1     -12.518  10.803  70.679  1.00  0.00    -0.370 C  
HETATM   31  O   UNL     1     -13.026  10.222  69.726  1.00  0.00     0.018 OA 
HETATM   32  N   UNL     1     -12.321  10.212  71.914  1.00  0.00    -0.305 N  
HETATM   33  H   UNL     1     -11.854  10.737  72.653  1.00  0.00     0.000 HD 
BRANCH  32  34
HETATM   34  C   UNL     1     -12.765   8.862  72.173  1.00  0.00    -0.405 C  
BRANCH  34  35
HETATM   35  C   UNL     1     -11.603   7.960  72.587  1.00  0.00    -0.377 C  
HETATM   36  S   UNL     1     -10.262   8.125  71.436  1.00  0.00    -0.207 S  
HETATM   37  O   UNL     1      -9.274   7.015  72.070  1.00  0.00    -0.140 OA 
HETATM   38  O   UNL     1      -9.630   9.416  71.576  1.00  0.00    -0.250 OA 
HETATM   39  O   UNL     1     -10.672   7.600  70.152  1.00  0.00    -0.233 OA 
ENDBRANCH  34  35
ENDBRANCH  32  34
ENDBRANCH  29  30
ENDBRANCH   6  29
TORSDOF 4
ENDMDL
MODEL       83
REMARK 921   NORMALIZED FREE ENERGY PREDICTED BY IDOCK:   -5.24 KCAL/MOL
REMARK 922        TOTAL FREE ENERGY PREDICTED BY IDOCK:   -7.29 KCAL/MOL
REMARK 923 INTER-LIGAND FREE ENERGY PREDICTED BY IDOCK:   -6.23 KCAL/MOL
REMARK 924 INTRA-LIGAND FREE ENERGY PREDICTED BY IDOCK:   -1.06 KCAL/MOL
REMARK 927      BINDING AFFINITY PREDICTED BY RF-SCORE:    0.00 PKD
ROOT
HETATM    1  C   UNL     1      -8.078   7.408  66.316  1.00  0.00    -0.117 C  
HETATM    2  C   UNL     1      -8.513   8.634  65.166  1.00  0.00    -0.197 C  
HETATM    3  C   UNL     1      -9.316   7.741  67.145  1.00  0.00    -0.185 C  
HETATM    4  C   UNL     1      -8.287   8.606  63.659  1.00  0.00    -0.115 C  
HETATM    5  C   UNL     1     -10.300   6.764  66.480  1.00  0.00    -0.116 C  
HETATM    6  C   UNL     1      -8.472  10.157  65.687  1.00  0.00    -0.159 C  
HETATM    7  C   UNL     1      -8.000   5.206  64.829  1.00  0.00    -0.104 C  
HETATM    8  C   UNL     1      -9.721   5.472  66.935  1.00  0.00    -0.163 C  
HETATM    9  C   UNL     1      -9.729   5.458  68.550  1.00  0.00    -0.183 C  
HETATM   10  H   UNL     1      -6.478   3.747  65.687  1.00  0.00     0.000 HD 
HETATM   11  O   UNL     1      -6.487   3.641  66.631  1.00  0.00    -0.038 OA 
HETATM   12  C   UNL     1      -8.259   5.602  66.305  1.00  0.00    -0.108 C  
HETATM   13  C   UNL     1     -11.081   5.846  69.176  1.00  0.00    -0.258 C  
HETATM   14  C   UNL     1      -7.681   4.266  67.120  1.00  0.00    -0.092 C  
HETATM   15  C   UNL     1     -10.804   6.292  70.583  1.00  0.00    -0.339 C  
HETATM   16  O   UNL     1     -11.766   6.968  68.641  1.00  0.00    -0.204 OA 
HETATM   17  C   UNL     1      -7.695   4.094  68.664  1.00  0.00    -0.062 C  
HETATM   18  C   UNL     1     -10.394   5.130  71.451  1.00  0.00    -0.273 C  
HETATM   19  C   UNL     1      -9.084   4.279  69.306  1.00  0.00    -0.182 C  
HETATM   20  H   UNL     1     -12.601   7.207  69.027  1.00  0.00     0.000 HD 
HETATM   21  C   UNL     1      -9.018   3.014  71.556  1.00  0.00    -0.152 C  
HETATM   22  C   UNL     1     -10.470   5.650  72.898  1.00  0.00    -0.246 C  
HETATM   23  C   UNL     1      -9.072   4.451  70.964  1.00  0.00    -0.185 C  
HETATM   24  C   UNL     1      -9.233   6.273  73.517  1.00  0.00    -0.131 C  
HETATM   25  C   UNL     1      -7.854   5.241  71.563  1.00  0.00    -0.113 C  
HETATM   26  H   UNL     1      -8.432   8.082  73.745  1.00  0.00     0.000 HD 
HETATM   27  O   UNL     1      -9.207   7.692  73.357  1.00  0.00    -0.204 OA 
HETATM   28  C   UNL     1      -7.933   5.634  73.064  1.00  0.00    -0.104 C  
ENDROOT
BRANCH   6  29
HETATM   29  C   UNL     1      -7.195  10.752  66.257  1.00  0.00    -0.137 C  
BRANCH  29  30
HETATM   30  C   UNL     1      -7.359  12.172  66.716  1.00  0.00     0.084 C  
HETATM   31  O   UNL     1      -6.394  12.874  66.995  1.00  0.00    -0.212 OA 
HETATM   32  N   UNL     1      -8.670  12.600  66.826  1.00  0.00    -0.349 N  
HETATM   33  H   UNL     1      -9.426  11.980  66.537  1.00  0.00     0.000 HD 
BRANCH  32  34
HETATM   34  C   UNL     1      -8.985  13.912  67.343  1.00  0.00    -0.210 C  
BRANCH  34  35
HETATM   35  C   UNL     1      -9.958  13.831  68.519  1.00  0.00    -0.217 C  
HETATM   36  S   UNL     1     -10.873  12.312  68.452  1.00  0.00    -0.241 S  
HETATM   37  O   UNL     1     -11.843  12.570  69.717  1.00  0.00    -0.315 OA 
HETATM   38  O   UNL     1     -10.019  11.192  68.765  1.00  0.00    -0.196 OA 
HETATM   39  O   UNL     1     -11.732  12.328  67.287  1.00  0.00    -0.403 OA 
ENDBRANCH  34  35
ENDBRANCH  32  34
ENDBRANCH  29  30
ENDBRANCH   6  29
TORSDOF 4
ENDMDL
MODEL       84
REMARK 921   NORMALIZED FREE ENERGY PREDICTED BY IDOCK:   -5.23 KCAL/MOL
REMARK 922        TOTAL FREE ENERGY PREDICTED BY IDOCK:   -7.28 KCAL/MOL
REMARK 923 INTER-LIGAND FREE ENERGY PREDICTED BY IDOCK:   -6.23 KCAL/MOL
REMARK 924 INTRA-LIGAND FREE ENERGY PREDICTED BY IDOCK:   -1.05 KCAL/MOL
REMARK 927      BINDING AFFINITY PREDICTED BY RF-SCORE:    0.00 PKD
ROOT
HETATM    1  C   UNL     1      -7.636   6.300  70.617  1.00  0.00    -0.096 C  
HETATM    2  C   UNL     1      -7.645   5.965  72.321  1.00  0.00    -0.101 C  
HETATM    3  C   UNL     1      -7.849   7.784  70.904  1.00  0.00    -0.089 C  
HETATM    4  C   UNL     1      -6.834   4.904  73.056  1.00  0.00    -0.072 C  
HETATM    5  C   UNL     1      -6.375   8.210  70.991  1.00  0.00    -0.037 C  
HETATM    6  C   UNL     1      -9.033   6.214  73.097  1.00  0.00    -0.130 C  
HETATM    7  C   UNL     1      -5.256   5.401  69.851  1.00  0.00    -0.004 C  
HETATM    8  C   UNL     1      -5.972   8.023  69.572  1.00  0.00    -0.033 C  
HETATM    9  C   UNL     1      -6.905   8.971  68.655  1.00  0.00    -0.063 C  
HETATM   10  H   UNL     1      -5.357   4.685  67.692  1.00  0.00     0.000 HD 
HETATM   11  O   UNL     1      -5.832   5.244  67.089  1.00  0.00    -0.017 OA 
HETATM   12  C   UNL     1      -6.292   6.466  69.410  1.00  0.00    -0.035 C  
HETATM   13  C   UNL     1      -6.992  10.429  69.142  1.00  0.00    -0.071 C  
HETATM   14  C   UNL     1      -6.069   6.491  67.756  1.00  0.00    -0.030 C  
HETATM   15  C   UNL     1      -8.241  11.018  68.553  1.00  0.00    -0.146 C  
HETATM   16  O   UNL     1      -7.185  10.657  70.530  1.00  0.00    -0.463 OA 
HETATM   17  C   UNL     1      -6.847   7.405  66.770  1.00  0.00    -0.066 C  
HETATM   18  C   UNL     1      -8.102  11.207  67.064  1.00  0.00    -0.148 C  
HETATM   19  C   UNL     1      -6.785   8.904  67.119  1.00  0.00    -0.066 C  
HETATM   20  H   UNL     1      -7.237  11.557  70.831  1.00  0.00     0.000 HD 
HETATM   21  C   UNL     1      -7.244  10.180  64.922  1.00  0.00    -0.131 C  
HETATM   22  C   UNL     1      -9.283  12.105  66.652  1.00  0.00    -0.206 C  
HETATM   23  C   UNL     1      -7.881   9.859  66.303  1.00  0.00    -0.108 C  
HETATM   24  C   UNL     1     -10.588  11.452  66.232  1.00  0.00    -0.263 C  
HETATM   25  C   UNL     1      -9.283   9.207  66.022  1.00  0.00    -0.271 C  
HETATM   26  H   UNL     1     -12.315  10.909  67.061  1.00  0.00     0.000 HD 
HETATM   27  O   UNL     1     -11.498  11.318  67.324  1.00  0.00    -0.464 OA 
HETATM   28  C   UNL     1     -10.405  10.141  65.490  1.00  0.00    -0.196 C  
ENDROOT
BRANCH   6  29
HETATM   29  C   UNL     1     -10.304   5.501  72.669  1.00  0.00    -0.238 C  
BRANCH  29  30
HETATM   30  C   UNL     1     -11.246   6.383  71.900  1.00  0.00    -0.280 C  
HETATM   31  O   UNL     1     -11.553   6.141  70.739  1.00  0.00    -0.316 OA 
HETATM   32  N   UNL     1     -11.702   7.490  72.593  1.00  0.00    -0.529 N  
HETATM   33  H   UNL     1     -11.442   7.611  73.572  1.00  0.00     0.000 HD 
BRANCH  32  34
HETATM   34  C   UNL     1     -12.542   8.476  71.954  1.00  0.00    -0.354 C  
BRANCH  34  35
HETATM   35  C   UNL     1     -11.718   9.640  71.404  1.00  0.00    -0.404 C  
HETATM   36  S   UNL     1     -12.783  10.992  70.968  1.00  0.00    -0.373 S  
HETATM   37  O   UNL     1     -11.663  11.979  70.352  1.00  0.00    -0.266 OA 
HETATM   38  O   UNL     1     -13.323  11.613  72.154  1.00  0.00    -0.491 OA 
HETATM   39  O   UNL     1     -13.617  10.596  69.854  1.00  0.00     0.328 OA 
ENDBRANCH  34  35
ENDBRANCH  32  34
ENDBRANCH  29  30
ENDBRANCH   6  29
TORSDOF 4
ENDMDL
MODEL       85
REMARK 921   NORMALIZED FREE ENERGY PREDICTED BY IDOCK:   -5.21 KCAL/MOL
REMARK 922        TOTAL FREE ENERGY PREDICTED BY IDOCK:   -7.25 KCAL/MOL
REMARK 923 INTER-LIGAND FREE ENERGY PREDICTED BY IDOCK:   -6.67 KCAL/MOL
REMARK 924 INTRA-LIGAND FREE ENERGY PREDICTED BY IDOCK:   -0.58 KCAL/MOL
REMARK 927      BINDING AFFINITY PREDICTED BY RF-SCORE:    0.00 PKD
ROOT
HETATM    1  C   UNL     1      -8.623  12.584  66.750  1.00  0.00    -0.109 C  
HETATM    2  C   UNL     1      -9.433  11.063  66.539  1.00  0.00    -0.211 C  
HETATM    3  C   UNL     1      -9.964  13.265  67.017  1.00  0.00    -0.238 C  
HETATM    4  C   UNL     1      -8.913   9.681  66.916  1.00  0.00    -0.151 C  
HETATM    5  C   UNL     1     -10.009  13.081  68.543  1.00  0.00    -0.174 C  
HETATM    6  C   UNL     1     -10.412  10.939  65.266  1.00  0.00    -0.299 C  
HETATM    7  C   UNL     1      -6.942  12.085  68.747  1.00  0.00    -0.101 C  
HETATM    8  C   UNL     1      -8.897  13.984  68.940  1.00  0.00     0.062 C  
HETATM    9  C   UNL     1      -9.247  15.473  68.420  1.00  0.00    -0.191 C  
HETATM   10  H   UNL     1      -5.085  13.385  68.538  1.00  0.00     0.000 HD 
HETATM   11  O   UNL     1      -5.236  14.294  68.306  1.00  0.00    -0.099 OA 
HETATM   12  C   UNL     1      -7.698  13.294  68.140  1.00  0.00    -0.143 C  
HETATM   13  C   UNL     1     -10.664  15.951  68.786  1.00  0.00    -0.265 C  
HETATM   14  C   UNL     1      -6.640  14.546  68.451  1.00  0.00    -0.103 C  
HETATM   15  C   UNL     1     -11.018  17.055  67.832  1.00  0.00    -0.226 C  
HETATM   16  O   UNL     1     -11.741  15.044  68.601  1.00  0.00    -0.329 OA 
HETATM   17  C   UNL     1      -6.886  16.032  68.070  1.00  0.00    -0.141 C  
HETATM   18  C   UNL     1     -10.204  18.293  68.107  1.00  0.00    -0.406 C  
HETATM   19  C   UNL     1      -8.215  16.605  68.597  1.00  0.00    -0.245 C  
HETATM   20  H   UNL     1     -12.616  15.339  68.828  1.00  0.00     0.000 HD 
HETATM   21  C   UNL     1      -7.910  19.167  68.702  1.00  0.00    -0.390 C  
HETATM   22  C   UNL     1     -10.885  19.419  67.308  1.00  0.00    -0.561 C  
HETATM   23  C   UNL     1      -8.669  18.058  67.919  1.00  0.00    -0.258 C  
HETATM   24  C   UNL     1     -10.424  19.690  65.888  1.00  0.00    -0.493 C  
HETATM   25  C   UNL     1      -8.317  18.246  66.399  1.00  0.00    -0.267 C  
HETATM   26  H   UNL     1     -10.916  19.153  64.035  1.00  0.00     0.000 HD 
HETATM   27  O   UNL     1     -11.204  18.983  64.924  1.00  0.00    -0.213 OA 
HETATM   28  C   UNL     1      -8.937  19.472  65.674  1.00  0.00     0.343 C  
ENDROOT
BRANCH   6  29
HETATM   29  C   UNL     1      -9.893  11.175  63.858  1.00  0.00    -0.354 C  
BRANCH  29  30
HETATM   30  C   UNL     1      -8.826  10.201  63.451  1.00  0.00    -0.231 C  
HETATM   31  O   UNL     1      -7.796  10.567  62.897  1.00  0.00    -0.152 OA 
HETATM   32  N   UNL     1      -9.115   8.875  63.719  1.00  0.00    -0.325 N  
HETATM   33  H   UNL     1      -9.972   8.640  64.221  1.00  0.00     0.000 HD 
BRANCH  32  34
HETATM   34  C   UNL     1      -8.224   7.818  63.302  1.00  0.00     0.007 C  
BRANCH  34  35
HETATM   35  C   UNL     1      -7.450   7.237  64.485  1.00  0.00    -0.092 C  
HETATM   36  S   UNL     1      -8.383   5.933  65.245  1.00  0.00    -0.138 S  
HETATM   37  O   UNL     1      -7.380   5.615  66.471  1.00  0.00    -0.076 OA 
HETATM   38  O   UNL     1      -8.423   4.773  64.388  1.00  0.00    -0.122 OA 
HETATM   39  O   UNL     1      -9.575   6.492  65.847  1.00  0.00     0.022 OA 
ENDBRANCH  34  35
ENDBRANCH  32  34
ENDBRANCH  29  30
ENDBRANCH   6  29
TORSDOF 4
ENDMDL
MODEL       86
REMARK 921   NORMALIZED FREE ENERGY PREDICTED BY IDOCK:   -5.13 KCAL/MOL
REMARK 922        TOTAL FREE ENERGY PREDICTED BY IDOCK:   -7.16 KCAL/MOL
REMARK 923 INTER-LIGAND FREE ENERGY PREDICTED BY IDOCK:   -6.15 KCAL/MOL
REMARK 924 INTRA-LIGAND FREE ENERGY PREDICTED BY IDOCK:   -1.01 KCAL/MOL
REMARK 927      BINDING AFFINITY PREDICTED BY RF-SCORE:    0.00 PKD
ROOT
HETATM    1  C   UNL     1      -8.654  13.351  67.544  1.00  0.00    -0.200 C  
HETATM    2  C   UNL     1      -8.033  14.745  68.373  1.00  0.00    -0.138 C  
HETATM    3  C   UNL     1      -7.262  12.721  67.553  1.00  0.00    -0.154 C  
HETATM    4  C   UNL     1      -8.757  15.602  69.404  1.00  0.00    -0.249 C  
HETATM    5  C   UNL     1      -7.365  11.968  68.890  1.00  0.00    -0.067 C  
HETATM    6  C   UNL     1      -6.978  15.653  67.564  1.00  0.00    -0.218 C  
HETATM    7  C   UNL     1     -10.542  12.475  69.196  1.00  0.00    -0.000 C  
HETATM    8  C   UNL     1      -8.380  10.944  68.527  1.00  0.00    -0.142 C  
HETATM    9  C   UNL     1      -7.799  10.075  67.295  1.00  0.00    -0.102 C  
HETATM   10  H   UNL     1     -12.192  11.448  68.011  1.00  0.00     0.000 HD 
HETATM   11  O   UNL     1     -11.907  10.864  67.318  1.00  0.00    -0.389 OA 
HETATM   12  C   UNL     1      -9.589  11.904  68.116  1.00  0.00    -0.195 C  
HETATM   13  C   UNL     1      -6.367   9.554  67.512  1.00  0.00    -0.061 C  
HETATM   14  C   UNL     1     -10.499  10.654  67.488  1.00  0.00    -0.230 C  
HETATM   15  C   UNL     1      -5.797   9.252  66.156  1.00  0.00    -0.057 C  
HETATM   16  O   UNL     1      -5.404  10.453  68.043  1.00  0.00    -0.035 OA 
HETATM   17  C   UNL     1     -10.032   9.700  66.354  1.00  0.00    -0.323 C  
HETATM   18  C   UNL     1      -6.463   8.048  65.542  1.00  0.00    -0.045 C  
HETATM   19  C   UNL     1      -8.687   9.002  66.633  1.00  0.00    -0.140 C  
HETATM   20  H   UNL     1      -4.521  10.132  68.178  1.00  0.00     0.000 HD 
HETATM   21  C   UNL     1      -8.665   6.863  65.186  1.00  0.00     0.133 C  
HETATM   22  C   UNL     1      -5.580   7.654  64.345  1.00  0.00    -0.033 C  
HETATM   23  C   UNL     1      -7.995   8.261  65.310  1.00  0.00    -0.128 C  
HETATM   24  C   UNL     1      -5.884   8.251  62.983  1.00  0.00    -0.077 C  
HETATM   25  C   UNL     1      -8.195   8.990  63.932  1.00  0.00    -0.172 C  
HETATM   26  H   UNL     1      -5.317   9.808  61.879  1.00  0.00     0.000 HD 
HETATM   27  O   UNL     1      -5.127   9.434  62.732  1.00  0.00    -0.070 OA 
HETATM   28  C   UNL     1      -7.365   8.469  62.728  1.00  0.00    -0.098 C  
ENDROOT
BRANCH   6  29
HETATM   29  C   UNL     1      -7.346  16.268  66.225  1.00  0.00     0.227 C  
BRANCH  29  30
HETATM   30  C   UNL     1      -8.763  16.761  66.170  1.00  0.00    -0.264 C  
HETATM   31  O   UNL     1      -9.086  17.849  66.634  1.00  0.00    -0.254 OA 
HETATM   32  N   UNL     1      -9.662  15.884  65.590  1.00  0.00    -0.316 N  
HETATM   33  H   UNL     1      -9.322  15.012  65.184  1.00  0.00     0.000 HD 
BRANCH  32  34
HETATM   34  C   UNL     1     -11.075  16.183  65.549  1.00  0.00    -0.069 C  
BRANCH  34  35
HETATM   35  C   UNL     1     -11.736  15.593  64.303  1.00  0.00    -0.169 C  
HETATM   36  S   UNL     1     -11.920  13.837  64.483  1.00  0.00    -0.443 S  
HETATM   37  O   UNL     1     -12.528  13.518  63.020  1.00  0.00    -0.709 OA 
HETATM   38  O   UNL     1     -12.933  13.531  65.463  1.00  0.00    -0.586 OA 
HETATM   39  O   UNL     1     -10.609  13.223  64.507  1.00  0.00    -0.379 OA 
ENDBRANCH  34  35
ENDBRANCH  32  34
ENDBRANCH  29  30
ENDBRANCH   6  29
TORSDOF 4
ENDMDL
MODEL       87
REMARK 921   NORMALIZED FREE ENERGY PREDICTED BY IDOCK:   -5.11 KCAL/MOL
REMARK 922        TOTAL FREE ENERGY PREDICTED BY IDOCK:   -7.13 KCAL/MOL
REMARK 923 INTER-LIGAND FREE ENERGY PREDICTED BY IDOCK:   -6.01 KCAL/MOL
REMARK 924 INTRA-LIGAND FREE ENERGY PREDICTED BY IDOCK:   -1.11 KCAL/MOL
REMARK 927      BINDING AFFINITY PREDICTED BY RF-SCORE:    0.00 PKD
ROOT
HETATM    1  C   UNL     1     -11.451   9.687  69.839  1.00  0.00    -0.144 C  
HETATM    2  C   UNL     1     -11.283  11.406  69.666  1.00  0.00    -0.301 C  
HETATM    3  C   UNL     1      -9.943   9.518  69.671  1.00  0.00    -0.220 C  
HETATM    4  C   UNL     1     -12.104  12.487  70.358  1.00  0.00    -0.380 C  
HETATM    5  C   UNL     1      -9.539   9.624  71.151  1.00  0.00     0.123 C  
HETATM    6  C   UNL     1     -10.794  11.940  68.228  1.00  0.00    -0.261 C  
HETATM    7  C   UNL     1     -12.579   9.443  72.234  1.00  0.00    -0.378 C  
HETATM    8  C   UNL     1     -10.134   8.363  71.667  1.00  0.00    -0.308 C  
HETATM    9  C   UNL     1      -9.470   7.128  70.864  1.00  0.00    -0.160 C  
HETATM   10  H   UNL     1     -13.881   7.577  72.290  1.00  0.00     0.000 HD 
HETATM   11  O   UNL     1     -13.510   6.797  71.896  1.00  0.00    -0.255 OA 
HETATM   12  C   UNL     1     -11.665   8.619  71.291  1.00  0.00    -0.341 C  
HETATM   13  C   UNL     1      -7.932   7.171  70.803  1.00  0.00    -0.100 C  
HETATM   14  C   UNL     1     -12.120   7.057  71.660  1.00  0.00    -0.347 C  
HETATM   15  C   UNL     1      -7.513   6.319  69.639  1.00  0.00    -0.085 C  
HETATM   16  O   UNL     1      -7.312   8.411  70.500  1.00  0.00    -0.052 OA 
HETATM   17  C   UNL     1     -11.512   5.780  71.015  1.00  0.00    -0.014 C  
HETATM   18  C   UNL     1      -7.762   4.859  69.917  1.00  0.00    -0.056 C  
HETATM   19  C   UNL     1      -9.977   5.694  71.116  1.00  0.00    -0.244 C  
HETATM   20  H   UNL     1      -6.363   8.438  70.463  1.00  0.00     0.000 HD 
HETATM   21  C   UNL     1      -9.376   3.191  70.912  1.00  0.00    -0.221 C  
HETATM   22  C   UNL     1      -6.997   4.096  68.820  1.00  0.00    -0.047 C  
HETATM   23  C   UNL     1      -9.276   4.538  70.141  1.00  0.00    -0.197 C  
HETATM   24  C   UNL     1      -7.717   3.753  67.529  1.00  0.00    -0.078 C  
HETATM   25  C   UNL     1      -9.953   4.318  68.741  1.00  0.00    -0.023 C  
HETATM   26  H   UNL     1      -7.966   4.529  65.712  1.00  0.00     0.000 HD 
HETATM   27  O   UNL     1      -7.515   4.744  66.521  1.00  0.00    -0.084 OA 
HETATM   28  C   UNL     1      -9.190   3.436  67.715  1.00  0.00    -0.235 C  
ENDROOT
BRANCH   6  29
HETATM   29  C   UNL     1     -11.575  11.610  66.967  1.00  0.00    -0.268 C  
BRANCH  29  30
HETATM   30  C   UNL     1     -10.710  11.513  65.744  1.00  0.00    -0.271 C  
HETATM   31  O   UNL     1     -11.115  11.855  64.639  1.00  0.00    -0.303 OA 
HETATM   32  N   UNL     1      -9.451  10.983  65.963  1.00  0.00    -0.199 N  
HETATM   33  H   UNL     1      -9.160  10.757  66.914  1.00  0.00     0.000 HD 
BRANCH  32  34
HETATM   34  C   UNL     1      -8.541  10.745  64.866  1.00  0.00    -0.092 C  
BRANCH  34  35
HETATM   35  C   UNL     1      -7.427   9.776  65.263  1.00  0.00    -0.120 C  
HETATM   36  S   UNL     1      -6.638  10.331  66.753  1.00  0.00    -0.079 S  
HETATM   37  O   UNL     1      -5.491   9.196  66.843  1.00  0.00    -0.039 OA 
HETATM   38  O   UNL     1      -7.518  10.166  67.884  1.00  0.00    -0.087 OA 
HETATM   39  O   UNL     1      -5.943  11.572  66.487  1.00  0.00    -0.150 OA 
ENDBRANCH  34  35
ENDBRANCH  32  34
ENDBRANCH  29  30
ENDBRANCH   6  29
TORSDOF 4
ENDMDL
MODEL       88
REMARK 921   NORMALIZED FREE ENERGY PREDICTED BY IDOCK:   -5.08 KCAL/MOL
REMARK 922        TOTAL FREE ENERGY PREDICTED BY IDOCK:   -7.10 KCAL/MOL
REMARK 923 INTER-LIGAND FREE ENERGY PREDICTED BY IDOCK:   -6.24 KCAL/MOL
REMARK 924 INTRA-LIGAND FREE ENERGY PREDICTED BY IDOCK:   -0.86 KCAL/MOL
REMARK 927      BINDING AFFINITY PREDICTED BY RF-SCORE:    0.00 PKD
ROOT
HETATM    1  C   UNL     1      -7.596  15.681  67.521  1.00  0.00    -0.200 C  
HETATM    2  C   UNL     1      -6.437  16.821  68.134  1.00  0.00    -0.147 C  
HETATM    3  C   UNL     1      -6.546  14.575  67.582  1.00  0.00    -0.174 C  
HETATM    4  C   UNL     1      -6.706  18.004  69.054  1.00  0.00    -0.252 C  
HETATM    5  C   UNL     1      -6.822  14.082  69.012  1.00  0.00    -0.111 C  
HETATM    6  C   UNL     1      -5.184  17.155  67.181  1.00  0.00    -0.178 C  
HETATM    7  C   UNL     1      -9.544  15.794  69.325  1.00  0.00    -0.270 C  
HETATM    8  C   UNL     1      -8.171  13.487  68.819  1.00  0.00     0.044 C  
HETATM    9  C   UNL     1      -8.053  12.323  67.704  1.00  0.00    -0.165 C  
HETATM   10  H   UNL     1     -11.543  15.342  68.334  1.00  0.00     0.000 HD 
HETATM   11  O   UNL     1     -11.551  14.616  67.722  1.00  0.00    -0.330 OA 
HETATM   12  C   UNL     1      -8.959  14.780  68.310  1.00  0.00    -0.181 C  
HETATM   13  C   UNL     1      -6.908  11.325  67.956  1.00  0.00    -0.067 C  
HETATM   14  C   UNL     1     -10.315  13.907  67.883  1.00  0.00    -0.240 C  
HETATM   15  C   UNL     1      -6.597  10.670  66.641  1.00  0.00    -0.101 C  
HETATM   16  O   UNL     1      -5.642  11.844  68.333  1.00  0.00    -0.049 OA 
HETATM   17  C   UNL     1     -10.328  12.720  66.881  1.00  0.00    -0.245 C  
HETATM   18  C   UNL     1      -7.711   9.748  66.216  1.00  0.00    -0.103 C  
HETATM   19  C   UNL     1      -9.325  11.600  67.219  1.00  0.00    -0.170 C  
HETATM   20  H   UNL     1      -4.936  11.228  68.489  1.00  0.00     0.000 HD 
HETATM   21  C   UNL     1     -10.217   9.460  66.082  1.00  0.00    -0.264 C  
HETATM   22  C   UNL     1      -7.133   8.908  65.062  1.00  0.00    -0.083 C  
HETATM   23  C   UNL     1      -9.064  10.500  65.994  1.00  0.00    -0.191 C  
HETATM   24  C   UNL     1      -7.294   9.410  63.639  1.00  0.00    -0.107 C  
HETATM   25  C   UNL     1      -9.080  11.082  64.535  1.00  0.00    -0.127 C  
HETATM   26  H   UNL     1      -6.269  10.491  62.317  1.00  0.00     0.000 HD 
HETATM   27  O   UNL     1      -6.169  10.177  63.208  1.00  0.00    -0.128 OA 
HETATM   28  C   UNL     1      -8.599  10.145  63.393  1.00  0.00    -0.199 C  
ENDROOT
BRANCH   6  29
HETATM   29  C   UNL     1      -5.394  17.701  65.779  1.00  0.00    -0.142 C  
BRANCH  29  30
HETATM   30  C   UNL     1      -5.971  19.087  65.765  1.00  0.00    -0.187 C  
HETATM   31  O   UNL     1      -5.260  20.083  65.830  1.00  0.00    -0.161 OA 
HETATM   32  N   UNL     1      -7.353  19.140  65.707  1.00  0.00    -0.261 N  
HETATM   33  H   UNL     1      -7.885  18.275  65.611  1.00  0.00     0.000 HD 
BRANCH  32  34
HETATM   34  C   UNL     1      -8.054  20.402  65.778  1.00  0.00     0.148 C  
BRANCH  34  35
HETATM   35  C   UNL     1      -9.158  20.369  66.835  1.00  0.00    -0.288 C  
HETATM   36  S   UNL     1     -10.359  19.128  66.426  1.00  0.00    -0.478 S  
HETATM   37  O   UNL     1     -11.399  19.407  67.630  1.00  0.00    -0.131 OA 
HETATM   38  O   UNL     1      -9.806  17.808  66.611  1.00  0.00    -0.292 OA 
HETATM   39  O   UNL     1     -11.047  19.516  65.214  1.00  0.00    -0.406 OA 
ENDBRANCH  34  35
ENDBRANCH  32  34
ENDBRANCH  29  30
ENDBRANCH   6  29
TORSDOF 4
ENDMDL
MODEL       89
REMARK 921   NORMALIZED FREE ENERGY PREDICTED BY IDOCK:   -5.03 KCAL/MOL
REMARK 922        TOTAL FREE ENERGY PREDICTED BY IDOCK:   -7.03 KCAL/MOL
REMARK 923 INTER-LIGAND FREE ENERGY PREDICTED BY IDOCK:   -7.27 KCAL/MOL
REMARK 924 INTRA-LIGAND FREE ENERGY PREDICTED BY IDOCK:    0.25 KCAL/MOL
REMARK 927      BINDING AFFINITY PREDICTED BY RF-SCORE:    0.00 PKD
ROOT
HETATM    1  C   UNL     1     -10.685   7.560  70.420  1.00  0.00    -0.248 C  
HETATM    2  C   UNL     1     -11.568   7.193  71.870  1.00  0.00    -0.314 C  
HETATM    3  C   UNL     1      -9.724   8.436  71.223  1.00  0.00    -0.245 C  
HETATM    4  C   UNL     1     -12.265   5.883  72.217  1.00  0.00    -0.050 C  
HETATM    5  C   UNL     1      -8.685   7.360  71.579  1.00  0.00    -0.122 C  
HETATM    6  C   UNL     1     -12.344   8.417  72.570  1.00  0.00    -0.358 C  
HETATM    7  C   UNL     1      -9.929   5.160  69.565  1.00  0.00    -0.301 C  
HETATM    8  C   UNL     1      -8.120   7.097  70.230  1.00  0.00    -0.118 C  
HETATM    9  C   UNL     1      -7.507   8.481  69.663  1.00  0.00    -0.075 C  
HETATM   10  H   UNL     1      -9.763   5.164  67.295  1.00  0.00     0.000 HD 
HETATM   11  O   UNL     1      -9.342   5.923  66.908  1.00  0.00    -0.123 OA 
HETATM   12  C   UNL     1      -9.447   6.631  69.473  1.00  0.00    -0.148 C  
HETATM   13  C   UNL     1      -6.577   9.209  70.650  1.00  0.00    -0.071 C  
HETATM   14  C   UNL     1      -8.719   6.655  67.972  1.00  0.00    -0.117 C  
HETATM   15  C   UNL     1      -6.523  10.648  70.226  1.00  0.00    -0.138 C  
HETATM   16  O   UNL     1      -6.994   9.315  72.003  1.00  0.00    -0.313 OA 
HETATM   17  C   UNL     1      -8.031   7.896  67.340  1.00  0.00    -0.122 C  
HETATM   18  C   UNL     1      -5.767  10.806  68.932  1.00  0.00    -0.040 C  
HETATM   19  C   UNL     1      -6.945   8.534  68.227  1.00  0.00    -0.070 C  
HETATM   20  H   UNL     1      -6.420   9.764  72.613  1.00  0.00     0.000 HD 
HETATM   21  C   UNL     1      -5.375   9.827  66.637  1.00  0.00    -0.045 C  
HETATM   22  C   UNL     1      -5.500  12.316  68.793  1.00  0.00    -0.050 C  
HETATM   23  C   UNL     1      -6.445  10.049  67.743  1.00  0.00    -0.066 C  
HETATM   24  C   UNL     1      -6.514  13.174  68.058  1.00  0.00    -0.126 C  
HETATM   25  C   UNL     1      -7.556  10.974  67.129  1.00  0.00    -0.117 C  
HETATM   26  H   UNL     1      -8.102  14.296  68.484  1.00  0.00     0.000 HD 
HETATM   27  O   UNL     1      -7.468  13.758  68.944  1.00  0.00    -0.111 OA 
HETATM   28  C   UNL     1      -7.188  12.465  66.897  1.00  0.00     0.087 C  
ENDROOT
BRANCH   6  29
HETATM   29  C   UNL     1     -13.385   9.218  71.807  1.00  0.00    -0.477 C  
BRANCH  29  30
HETATM   30  C   UNL     1     -12.999  10.656  71.613  1.00  0.00    -0.477 C  
HETATM   31  O   UNL     1     -12.103  10.985  70.845  1.00  0.00    -0.342 OA 
HETATM   32  N   UNL     1     -13.707  11.557  72.387  1.00  0.00    -0.313 N  
HETATM   33  H   UNL     1     -14.470  11.223  72.976  1.00  0.00     0.000 HD 
BRANCH  32  34
HETATM   34  C   UNL     1     -13.384  12.965  72.375  1.00  0.00    -0.421 C  
BRANCH  34  35
HETATM   35  C   UNL     1     -12.785  13.391  71.035  1.00  0.00    -0.307 C  
HETATM   36  S   UNL     1     -12.274  15.089  71.105  1.00  0.00    -0.355 S  
HETATM   37  O   UNL     1     -11.801  15.252  69.569  1.00  0.00    -0.310 OA 
HETATM   38  O   UNL     1     -11.112  15.234  71.947  1.00  0.00    -0.371 OA 
HETATM   39  O   UNL     1     -13.444  15.930  71.248  1.00  0.00    -0.499 OA 
ENDBRANCH  34  35
ENDBRANCH  32  34
ENDBRANCH  29  30
ENDBRANCH   6  29
TORSDOF 4
ENDMDL
MODEL       90
REMARK 921   NORMALIZED FREE ENERGY PREDICTED BY IDOCK:   -4.95 KCAL/MOL
REMARK 922        TOTAL FREE ENERGY PREDICTED BY IDOCK:   -6.93 KCAL/MOL
REMARK 923 INTER-LIGAND FREE ENERGY PREDICTED BY IDOCK:   -6.93 KCAL/MOL
REMARK 924 INTRA-LIGAND FREE ENERGY PREDICTED BY IDOCK:    0.01 KCAL/MOL
REMARK 927      BINDING AFFINITY PREDICTED BY RF-SCORE:    0.00 PKD
ROOT
HETATM    1  C   UNL     1      -8.861  10.332  67.015  1.00  0.00    -0.143 C  
HETATM    2  C   UNL     1      -8.812  10.425  65.282  1.00  0.00    -0.203 C  
HETATM    3  C   UNL     1      -9.742   9.087  66.927  1.00  0.00    -0.260 C  
HETATM    4  C   UNL     1      -7.651  10.901  64.417  1.00  0.00     0.467 C  
HETATM    5  C   UNL     1      -8.629   8.027  66.905  1.00  0.00    -0.130 C  
HETATM    6  C   UNL     1     -10.203  10.748  64.539  1.00  0.00    -0.428 C  
HETATM    7  C   UNL     1      -6.294  10.126  67.668  1.00  0.00    -0.058 C  
HETATM    8  C   UNL     1      -8.107   8.178  68.289  1.00  0.00    -0.128 C  
HETATM    9  C   UNL     1      -9.316   7.880  69.318  1.00  0.00    -0.148 C  
HETATM   10  H   UNL     1      -5.937  11.062  69.712  1.00  0.00     0.000 HD 
HETATM   11  O   UNL     1      -6.580  10.860  70.382  1.00  0.00    -0.273 OA 
HETATM   12  C   UNL     1      -7.674   9.715  68.241  1.00  0.00    -0.082 C  
HETATM   13  C   UNL     1     -10.083   6.577  69.028  1.00  0.00    -0.165 C  
HETATM   14  C   UNL     1      -7.394   9.790  69.884  1.00  0.00    -0.134 C  
HETATM   15  C   UNL     1     -11.428   6.701  69.684  1.00  0.00    -0.358 C  
HETATM   16  O   UNL     1     -10.435   6.297  67.682  1.00  0.00    -0.170 OA 
HETATM   17  C   UNL     1      -8.446   9.460  70.979  1.00  0.00    -0.036 C  
HETATM   18  C   UNL     1     -11.307   6.650  71.185  1.00  0.00    -0.355 C  
HETATM   19  C   UNL     1      -9.092   8.069  70.832  1.00  0.00    -0.161 C  
HETATM   20  H   UNL     1     -10.908   5.493  67.503  1.00  0.00     0.000 HD 
HETATM   21  C   UNL     1      -9.957   7.420  73.177  1.00  0.00    -0.318 C  
HETATM   22  C   UNL     1     -12.742   6.450  71.706  1.00  0.00    -0.052 C  
HETATM   23  C   UNL     1     -10.455   7.829  71.761  1.00  0.00    -0.259 C  
HETATM   24  C   UNL     1     -13.581   7.673  72.029  1.00  0.00    -0.161 C  
HETATM   25  C   UNL     1     -11.389   9.078  71.946  1.00  0.00    -0.438 C  
HETATM   26  H   UNL     1     -14.916   8.842  71.126  1.00  0.00     0.000 HD 
HETATM   27  O   UNL     1     -14.390   8.076  70.924  1.00  0.00    -0.109 OA 
HETATM   28  C   UNL     1     -12.781   8.833  72.591  1.00  0.00    -0.286 C  
ENDROOT
BRANCH   6  29
HETATM   29  C   UNL     1     -10.985  12.010  64.861  1.00  0.00    -0.356 C  
BRANCH  29  30
HETATM   30  C   UNL     1     -10.916  12.393  66.311  1.00  0.00    -0.286 C  
HETATM   31  O   UNL     1     -11.608  11.841  67.158  1.00  0.00    -0.478 OA 
HETATM   32  N   UNL     1     -10.044  13.428  66.598  1.00  0.00    -0.269 N  
HETATM   33  H   UNL     1      -9.465  13.817  65.853  1.00  0.00     0.000 HD 
BRANCH  32  34
HETATM   34  C   UNL     1      -9.939  13.967  67.934  1.00  0.00    -0.242 C  
BRANCH  34  35
HETATM   35  C   UNL     1      -8.519  14.448  68.234  1.00  0.00    -0.165 C  
HETATM   36  S   UNL     1      -8.410  16.206  68.012  1.00  0.00    -0.166 S  
HETATM   37  O   UNL     1      -6.829  16.376  68.293  1.00  0.00    -0.127 OA 
HETATM   38  O   UNL     1      -9.127  16.894  69.058  1.00  0.00    -0.254 OA 
HETATM   39  O   UNL     1      -8.597  16.518  66.611  1.00  0.00    -0.203 OA 
ENDBRANCH  34  35
ENDBRANCH  32  34
ENDBRANCH  29  30
ENDBRANCH   6  29
TORSDOF 4
ENDMDL
MODEL       91
REMARK 921   NORMALIZED FREE ENERGY PREDICTED BY IDOCK:   -4.89 KCAL/MOL
REMARK 922        TOTAL FREE ENERGY PREDICTED BY IDOCK:   -6.85 KCAL/MOL
REMARK 923 INTER-LIGAND FREE ENERGY PREDICTED BY IDOCK:   -6.20 KCAL/MOL
REMARK 924 INTRA-LIGAND FREE ENERGY PREDICTED BY IDOCK:   -0.66 KCAL/MOL
REMARK 927      BINDING AFFINITY PREDICTED BY RF-SCORE:    0.00 PKD
ROOT
HETATM    1  C   UNL     1      -7.720   9.716  68.641  1.00  0.00    -0.080 C  
HETATM    2  C   UNL     1      -6.468   8.823  69.448  1.00  0.00    -0.045 C  
HETATM    3  C   UNL     1      -7.207  11.011  69.269  1.00  0.00    -0.124 C  
HETATM    4  C   UNL     1      -5.731   7.595  68.928  1.00  0.00    -0.023 C  
HETATM    5  C   UNL     1      -6.213  11.415  68.168  1.00  0.00    -0.045 C  
HETATM    6  C   UNL     1      -6.549   8.762  71.054  1.00  0.00    -0.060 C  
HETATM    7  C   UNL     1      -7.263   9.186  66.077  1.00  0.00    -0.094 C  
HETATM    8  C   UNL     1      -7.165  11.730  67.070  1.00  0.00    -0.134 C  
HETATM    9  C   UNL     1      -8.144  12.912  67.576  1.00  0.00    -0.181 C  
HETATM   10  H   UNL     1      -9.219   9.244  64.914  1.00  0.00     0.000 HD 
HETATM   11  O   UNL     1      -9.805   9.963  65.118  1.00  0.00    -0.306 OA 
HETATM   12  C   UNL     1      -7.891  10.314  66.936  1.00  0.00    -0.112 C  
HETATM   13  C   UNL     1      -7.410  14.115  68.195  1.00  0.00    -0.130 C  
HETATM   14  C   UNL     1      -9.069  10.903  65.912  1.00  0.00    -0.193 C  
HETATM   15  C   UNL     1      -8.402  14.840  69.059  1.00  0.00    -0.144 C  
HETATM   16  O   UNL     1      -6.356  13.854  69.111  1.00  0.00    -0.095 OA 
HETATM   17  C   UNL     1     -10.027  12.079  66.246  1.00  0.00    -0.249 C  
HETATM   18  C   UNL     1      -9.451  15.526  68.223  1.00  0.00    -0.200 C  
HETATM   19  C   UNL     1      -9.310  13.372  66.679  1.00  0.00    -0.248 C  
HETATM   20  H   UNL     1      -5.903  14.597  69.492  1.00  0.00     0.000 HD 
HETATM   21  C   UNL     1     -10.952  15.307  66.204  1.00  0.00    -0.307 C  
HETATM   22  C   UNL     1     -10.181  16.483  69.183  1.00  0.00    -0.298 C  
HETATM   23  C   UNL     1     -10.297  14.521  67.375  1.00  0.00    -0.252 C  
HETATM   24  C   UNL     1     -11.406  15.981  69.926  1.00  0.00    -0.340 C  
HETATM   25  C   UNL     1     -11.466  13.971  68.269  1.00  0.00    -0.337 C  
HETATM   26  H   UNL     1     -11.846  15.149  71.680  1.00  0.00     0.000 HD 
HETATM   27  O   UNL     1     -11.079  15.463  71.215  1.00  0.00    -0.360 OA 
HETATM   28  C   UNL     1     -12.248  15.004  69.126  1.00  0.00    -0.186 C  
ENDROOT
BRANCH   6  29
HETATM   29  C   UNL     1      -7.778   8.208  71.752  1.00  0.00    -0.121 C  
BRANCH  29  30
HETATM   30  C   UNL     1      -7.950   6.728  71.561  1.00  0.00    -0.102 C  
HETATM   31  O   UNL     1      -7.432   5.916  72.318  1.00  0.00    -0.096 OA 
HETATM   32  N   UNL     1      -8.702   6.369  70.457  1.00  0.00    -0.142 N  
HETATM   33  H   UNL     1      -9.142   7.095  69.891  1.00  0.00     0.000 HD 
BRANCH  32  34
HETATM   34  C   UNL     1      -8.876   4.982  70.093  1.00  0.00    -0.110 C  
BRANCH  34  35
HETATM   35  C   UNL     1      -9.335   4.837  68.642  1.00  0.00    -0.137 C  
HETATM   36  S   UNL     1     -10.264   6.266  68.149  1.00  0.00    -0.191 S  
HETATM   37  O   UNL     1     -10.673   5.776  66.665  1.00  0.00    -0.291 OA 
HETATM   38  O   UNL     1      -9.399   7.413  68.018  1.00  0.00    -0.135 OA 
HETATM   39  O   UNL     1     -11.499   6.311  68.903  1.00  0.00    -0.331 OA 
ENDBRANCH  34  35
ENDBRANCH  32  34
ENDBRANCH  29  30
ENDBRANCH   6  29
TORSDOF 4
ENDMDL
MODEL       92
REMARK 921   NORMALIZED FREE ENERGY PREDICTED BY IDOCK:   -4.87 KCAL/MOL
REMARK 922        TOTAL FREE ENERGY PREDICTED BY IDOCK:   -6.83 KCAL/MOL
REMARK 923 INTER-LIGAND FREE ENERGY PREDICTED BY IDOCK:   -6.10 KCAL/MOL
REMARK 924 INTRA-LIGAND FREE ENERGY PREDICTED BY IDOCK:   -0.73 KCAL/MOL
REMARK 927      BINDING AFFINITY PREDICTED BY RF-SCORE:    0.00 PKD
ROOT
HETATM    1  C   UNL     1      -8.687  11.846  66.589  1.00  0.00    -0.185 C  
HETATM    2  C   UNL     1      -9.973  10.844  65.990  1.00  0.00    -0.290 C  
HETATM    3  C   UNL     1      -9.682  12.976  66.845  1.00  0.00    -0.238 C  
HETATM    4  C   UNL     1     -10.107   9.333  66.134  1.00  0.00    -0.304 C  
HETATM    5  C   UNL     1     -10.067  12.613  68.289  1.00  0.00    -0.233 C  
HETATM    6  C   UNL     1     -10.678  11.319  64.623  1.00  0.00    -0.371 C  
HETATM    7  C   UNL     1      -7.719  10.417  68.610  1.00  0.00    -0.101 C  
HETATM    8  C   UNL     1      -8.782  12.907  68.976  1.00  0.00     0.492 C  
HETATM    9  C   UNL     1      -8.427  14.465  68.733  1.00  0.00    -0.120 C  
HETATM   10  H   UNL     1      -5.498  10.845  68.867  1.00  0.00     0.000 HD 
HETATM   11  O   UNL     1      -5.239  11.757  68.808  1.00  0.00    -0.050 OA 
HETATM   12  C   UNL     1      -7.824  11.904  68.185  1.00  0.00    -0.134 C  
HETATM   13  C   UNL     1      -9.587  15.430  69.037  1.00  0.00    -0.236 C  
HETATM   14  C   UNL     1      -6.436  12.546  68.852  1.00  0.00    -0.091 C  
HETATM   15  C   UNL     1      -9.307  16.704  68.294  1.00  0.00    -0.224 C  
HETATM   16  O   UNL     1     -10.880  15.088  68.560  1.00  0.00    -0.237 OA 
HETATM   17  C   UNL     1      -6.012  14.037  68.755  1.00  0.00    -0.085 C  
HETATM   18  C   UNL     1      -8.139  17.441  68.898  1.00  0.00    -0.183 C  
HETATM   19  C   UNL     1      -7.085  15.029  69.244  1.00  0.00    -0.170 C  
HETATM   20  H   UNL     1     -11.596  15.684  68.748  1.00  0.00     0.000 HD 
HETATM   21  C   UNL     1      -5.832  17.191  69.896  1.00  0.00    -0.236 C  
HETATM   22  C   UNL     1      -8.173  18.848  68.276  1.00  0.00    -0.362 C  
HETATM   23  C   UNL     1      -6.809  16.620  68.829  1.00  0.00    -0.180 C  
HETATM   24  C   UNL     1      -7.397  19.103  66.996  1.00  0.00    -0.213 C  
HETATM   25  C   UNL     1      -6.146  16.858  67.425  1.00  0.00    -0.180 C  
HETATM   26  H   UNL     1      -7.720  19.086  65.032  1.00  0.00     0.000 HD 
HETATM   27  O   UNL     1      -8.205  18.927  65.833  1.00  0.00    -0.477 OA 
HETATM   28  C   UNL     1      -6.100  18.320  66.902  1.00  0.00    -0.180 C  
ENDROOT
BRANCH   6  29
HETATM   29  C   UNL     1      -9.866  11.515  63.355  1.00  0.00    -0.422 C  
BRANCH  29  30
HETATM   30  C   UNL     1      -8.948  10.365  63.056  1.00  0.00    -0.244 C  
HETATM   31  O   UNL     1      -9.339   9.364  62.466  1.00  0.00    -0.170 OA 
HETATM   32  N   UNL     1      -7.656  10.515  63.526  1.00  0.00    -0.335 N  
HETATM   33  H   UNL     1      -7.382  11.391  63.972  1.00  0.00     0.000 HD 
BRANCH  32  34
HETATM   34  C   UNL     1      -6.686   9.452  63.394  1.00  0.00    -0.094 C  
BRANCH  34  35
HETATM   35  C   UNL     1      -6.482   8.713  64.716  1.00  0.00    -0.065 C  
HETATM   36  S   UNL     1      -6.771   6.976  64.496  1.00  0.00    -0.047 S  
HETATM   37  O   UNL     1      -6.584   6.514  66.033  1.00  0.00    -0.045 OA 
HETATM   38  O   UNL     1      -5.712   6.380  63.719  1.00  0.00    -0.022 OA 
HETATM   39  O   UNL     1      -8.170   6.764  64.190  1.00  0.00    -0.071 OA 
ENDBRANCH  34  35
ENDBRANCH  32  34
ENDBRANCH  29  30
ENDBRANCH   6  29
TORSDOF 4
ENDMDL
MODEL       93
REMARK 921   NORMALIZED FREE ENERGY PREDICTED BY IDOCK:   -4.86 KCAL/MOL
REMARK 922        TOTAL FREE ENERGY PREDICTED BY IDOCK:   -6.82 KCAL/MOL
REMARK 923 INTER-LIGAND FREE ENERGY PREDICTED BY IDOCK:   -6.26 KCAL/MOL
REMARK 924 INTRA-LIGAND FREE ENERGY PREDICTED BY IDOCK:   -0.56 KCAL/MOL
REMARK 927      BINDING AFFINITY PREDICTED BY RF-SCORE:    0.00 PKD
ROOT
HETATM    1  C   UNL     1     -12.272  10.287  70.656  1.00  0.00    -0.422 C  
HETATM    2  C   UNL     1     -12.303  11.941  71.184  1.00  0.00    -0.303 C  
HETATM    3  C   UNL     1     -10.747  10.287  70.732  1.00  0.00    -0.013 C  
HETATM    4  C   UNL     1     -13.354  12.609  72.061  1.00  0.00    -0.555 C  
HETATM    5  C   UNL     1     -10.595   9.821  72.189  1.00  0.00     1.547 C  
HETATM    6  C   UNL     1     -11.671  13.029  70.180  1.00  0.00    -0.244 C  
HETATM    7  C   UNL     1     -13.716   9.048  72.512  1.00  0.00    -0.499 C  
HETATM    8  C   UNL     1     -11.093   8.427  72.062  1.00  0.00    -0.397 C  
HETATM    9  C   UNL     1     -10.158   7.653  70.995  1.00  0.00    -0.196 C  
HETATM   10  H   UNL     1     -14.758   7.241  71.602  1.00  0.00     0.000 HD 
HETATM   11  O   UNL     1     -14.232   6.704  71.022  1.00  0.00     0.251 OA 
HETATM   12  C   UNL     1     -12.568   8.721  71.523  1.00  0.00    -0.372 C  
HETATM   13  C   UNL     1      -8.649   7.806  71.254  1.00  0.00    -0.120 C  
HETATM   14  C   UNL     1     -12.868   7.117  71.176  1.00  0.00    -0.288 C  
HETATM   15  C   UNL     1      -7.947   7.512  69.959  1.00  0.00    -0.112 C  
HETATM   16  O   UNL     1      -8.155   9.099  71.570  1.00  0.00    -0.337 OA 
HETATM   17  C   UNL     1     -12.008   6.238  70.225  1.00  0.00     0.015 C  
HETATM   18  C   UNL     1      -8.044   6.049  69.608  1.00  0.00    -0.107 C  
HETATM   19  C   UNL     1     -10.509   6.209  70.581  1.00  0.00    -0.292 C  
HETATM   20  H   UNL     1      -7.223   9.193  71.731  1.00  0.00     0.000 HD 
HETATM   21  C   UNL     1      -9.564   4.033  69.563  1.00  0.00    -0.265 C  
HETATM   22  C   UNL     1      -7.026   5.830  68.474  1.00  0.00    -0.068 C  
HETATM   23  C   UNL     1      -9.520   5.578  69.396  1.00  0.00    -0.176 C  
HETATM   24  C   UNL     1      -7.487   5.987  67.037  1.00  0.00    -0.084 C  
HETATM   25  C   UNL     1      -9.938   5.892  67.915  1.00  0.00    -0.157 C  
HETATM   26  H   UNL     1      -7.549   7.404  65.640  1.00  0.00     0.000 HD 
HETATM   27  O   UNL     1      -7.261   7.306  66.540  1.00  0.00    -0.075 OA 
HETATM   28  C   UNL     1      -8.917   5.536  66.800  1.00  0.00    -0.114 C  
ENDROOT
BRANCH   6  29
HETATM   29  C   UNL     1     -12.197  13.181  68.763  1.00  0.00    -0.090 C  
BRANCH  29  30
HETATM   30  C   UNL     1     -11.259  12.640  67.723  1.00  0.00    -0.274 C  
HETATM   31  O   UNL     1     -10.121  13.076  67.591  1.00  0.00    -0.211 OA 
HETATM   32  N   UNL     1     -11.792  11.648  66.919  1.00  0.00    -0.061 N  
HETATM   33  H   UNL     1     -12.732  11.300  67.108  1.00  0.00     0.000 HD 
BRANCH  32  34
HETATM   34  C   UNL     1     -11.039  11.097  65.816  1.00  0.00    -0.014 C  
BRANCH  34  35
HETATM   35  C   UNL     1     -11.636  11.508  64.470  1.00  0.00    -0.073 C  
HETATM   36  S   UNL     1     -11.908  13.261  64.432  1.00  0.00    -0.422 S  
HETATM   37  O   UNL     1     -12.610  13.355  62.980  1.00  0.00    -0.669 OA 
HETATM   38  O   UNL     1     -10.652  13.968  64.367  1.00  0.00    -0.382 OA 
HETATM   39  O   UNL     1     -12.939  13.601  65.390  1.00  0.00    -0.683 OA 
ENDBRANCH  34  35
ENDBRANCH  32  34
ENDBRANCH  29  30
ENDBRANCH   6  29
TORSDOF 4
ENDMDL
MODEL       94
REMARK 921   NORMALIZED FREE ENERGY PREDICTED BY IDOCK:   -4.85 KCAL/MOL
REMARK 922        TOTAL FREE ENERGY PREDICTED BY IDOCK:   -6.80 KCAL/MOL
REMARK 923 INTER-LIGAND FREE ENERGY PREDICTED BY IDOCK:   -5.34 KCAL/MOL
REMARK 924 INTRA-LIGAND FREE ENERGY PREDICTED BY IDOCK:   -1.46 KCAL/MOL
REMARK 927      BINDING AFFINITY PREDICTED BY RF-SCORE:    0.00 PKD
ROOT
HETATM    1  C   UNL     1      -9.145   8.025  69.479  1.00  0.00    -0.152 C  
HETATM    2  C   UNL     1      -8.419   6.511  69.035  1.00  0.00    -0.125 C  
HETATM    3  C   UNL     1      -8.957   8.538  68.053  1.00  0.00    -0.141 C  
HETATM    4  C   UNL     1      -8.772   5.128  69.569  1.00  0.00    -0.113 C  
HETATM    5  C   UNL     1     -10.300   8.070  67.468  1.00  0.00    -0.330 C  
HETATM    6  C   UNL     1      -6.861   6.551  68.631  1.00  0.00    -0.070 C  
HETATM    7  C   UNL     1     -11.549   7.295  70.346  1.00  0.00    -0.253 C  
HETATM    8  C   UNL     1     -11.225   8.967  68.209  1.00  0.00     0.336 C  
HETATM    9  C   UNL     1     -10.826  10.495  67.868  1.00  0.00    -0.333 C  
HETATM   10  H   UNL     1     -12.272   8.752  71.938  1.00  0.00     0.000 HD 
HETATM   11  O   UNL     1     -12.130   9.674  71.757  1.00  0.00    -0.378 OA 
HETATM   12  C   UNL     1     -10.872   8.534  69.705  1.00  0.00    -0.177 C  
HETATM   13  C   UNL     1     -10.670  10.785  66.364  1.00  0.00    -0.163 C  
HETATM   14  C   UNL     1     -11.747   9.784  70.380  1.00  0.00    -0.231 C  
HETATM   15  C   UNL     1      -9.820  12.016  66.238  1.00  0.00    -0.250 C  
HETATM   16  O   UNL     1      -9.951   9.848  65.577  1.00  0.00    -0.304 OA 
HETATM   17  C   UNL     1     -11.514  11.291  70.083  1.00  0.00    -0.336 C  
HETATM   18  C   UNL     1     -10.565  13.241  66.703  1.00  0.00    -0.283 C  
HETATM   19  C   UNL     1     -11.552  11.651  68.585  1.00  0.00    -0.373 C  
HETATM   20  H   UNL     1      -9.855  10.026  64.648  1.00  0.00     0.000 HD 
HETATM   21  C   UNL     1     -12.130  14.165  68.457  1.00  0.00    -0.312 C  
HETATM   22  C   UNL     1      -9.731  14.440  66.216  1.00  0.00    -0.330 C  
HETATM   23  C   UNL     1     -10.963  13.166  68.214  1.00  0.00    -0.278 C  
HETATM   24  C   UNL     1      -8.659  15.006  67.129  1.00  0.00    -0.223 C  
HETATM   25  C   UNL     1      -9.747  13.660  69.077  1.00  0.00     0.176 C  
HETATM   26  H   UNL     1      -6.706  14.786  67.448  1.00  0.00     0.000 HD 
HETATM   27  O   UNL     1      -7.377  14.431  66.876  1.00  0.00     0.065 OA 
HETATM   28  C   UNL     1      -9.018  14.947  68.603  1.00  0.00    -0.184 C  
ENDROOT
BRANCH   6  29
HETATM   29  C   UNL     1      -5.819   7.084  69.598  1.00  0.00    -0.023 C  
BRANCH  29  30
HETATM   30  C   UNL     1      -5.504   8.537  69.386  1.00  0.00    -0.031 C  
HETATM   31  O   UNL     1      -5.216   9.277  70.320  1.00  0.00    -0.027 OA 
HETATM   32  N   UNL     1      -5.598   8.966  68.075  1.00  0.00    -0.035 N  
HETATM   33  H   UNL     1      -5.800   8.290  67.338  1.00  0.00     0.000 HD 
BRANCH  32  34
HETATM   34  C   UNL     1      -5.413  10.357  67.731  1.00  0.00    -0.040 C  
BRANCH  34  35
HETATM   35  C   UNL     1      -6.359  10.787  66.610  1.00  0.00    -0.103 C  
HETATM   36  S   UNL     1      -6.443   9.526  65.364  1.00  0.00    -0.076 S  
HETATM   37  O   UNL     1      -7.402  10.298  64.318  1.00  0.00    -0.134 OA 
HETATM   38  O   UNL     1      -7.159   8.374  65.858  1.00  0.00    -0.070 OA 
HETATM   39  O   UNL     1      -5.156   9.417  64.712  1.00  0.00    -0.043 OA 
ENDBRANCH  34  35
ENDBRANCH  32  34
ENDBRANCH  29  30
ENDBRANCH   6  29
TORSDOF 4
ENDMDL
MODEL       95
REMARK 921   NORMALIZED FREE ENERGY PREDICTED BY IDOCK:   -4.84 KCAL/MOL
REMARK 922        TOTAL FREE ENERGY PREDICTED BY IDOCK:   -6.80 KCAL/MOL
REMARK 923 INTER-LIGAND FREE ENERGY PREDICTED BY IDOCK:   -6.07 KCAL/MOL
REMARK 924 INTRA-LIGAND FREE ENERGY PREDICTED BY IDOCK:   -0.73 KCAL/MOL
REMARK 927      BINDING AFFINITY PREDICTED BY RF-SCORE:    0.00 PKD
ROOT
HETATM    1  C   UNL     1      -8.755   8.729  69.035  1.00  0.00    -0.133 C  
HETATM    2  C   UNL     1      -7.881   7.318  68.525  1.00  0.00    -0.122 C  
HETATM    3  C   UNL     1      -8.589   9.339  67.645  1.00  0.00    -0.116 C  
HETATM    4  C   UNL     1      -8.112   5.880  68.973  1.00  0.00    -0.103 C  
HETATM    5  C   UNL     1      -9.869   8.783  67.001  1.00  0.00    -0.279 C  
HETATM    6  C   UNL     1      -6.326   7.525  68.164  1.00  0.00    -0.048 C  
HETATM    7  C   UNL     1     -11.096   7.730  69.799  1.00  0.00    -0.095 C  
HETATM    8  C   UNL     1     -10.890   9.545  67.767  1.00  0.00    -0.258 C  
HETATM    9  C   UNL     1     -10.629  11.121  67.523  1.00  0.00    -0.258 C  
HETATM   10  H   UNL     1     -11.985   9.018  71.452  1.00  0.00     0.000 HD 
HETATM   11  O   UNL     1     -11.927   9.958  71.325  1.00  0.00    -0.344 OA 
HETATM   12  C   UNL     1     -10.527   9.061  69.246  1.00  0.00    -0.238 C  
HETATM   13  C   UNL     1     -10.472  11.510  66.042  1.00  0.00    -0.252 C  
HETATM   14  C   UNL     1     -11.529  10.183  69.967  1.00  0.00    -0.277 C  
HETATM   15  C   UNL     1      -9.740  12.821  66.005  1.00  0.00    -0.226 C  
HETATM   16  O   UNL     1      -9.652  10.692  65.221  1.00  0.00    -0.205 OA 
HETATM   17  C   UNL     1     -11.433  11.720  69.760  1.00  0.00    -0.320 C  
HETATM   18  C   UNL     1     -10.606  13.942  66.519  1.00  0.00    -0.279 C  
HETATM   19  C   UNL     1     -11.476  12.161  68.284  1.00  0.00    -0.360 C  
HETATM   20  H   UNL     1      -9.556  10.931  64.307  1.00  0.00     0.000 HD 
HETATM   21  C   UNL     1     -12.285  14.613  68.282  1.00  0.00    -0.112 C  
HETATM   22  C   UNL     1      -9.879  15.239  66.120  1.00  0.00    -0.333 C  
HETATM   23  C   UNL     1     -11.025  13.743  68.013  1.00  0.00    -0.268 C  
HETATM   24  C   UNL     1      -8.884  15.849  67.091  1.00  0.00    -0.207 C  
HETATM   25  C   UNL     1      -9.879  14.297  68.932  1.00  0.00    -0.140 C  
HETATM   26  H   UNL     1      -6.926  15.794  67.445  1.00  0.00     0.000 HD 
HETATM   27  O   UNL     1      -7.549  15.412  66.838  1.00  0.00    -0.196 OA 
HETATM   28  C   UNL     1      -9.265  15.672  68.549  1.00  0.00    -0.197 C  
ENDROOT
BRANCH   6  29
HETATM   29  C   UNL     1      -5.358   8.096  69.185  1.00  0.00    -0.030 C  
BRANCH  29  30
HETATM   30  C   UNL     1      -5.731   7.768  70.602  1.00  0.00    -0.030 C  
HETATM   31  O   UNL     1      -6.198   8.612  71.357  1.00  0.00    -0.042 OA 
HETATM   32  N   UNL     1      -5.476   6.463  70.983  1.00  0.00    -0.022 N  
HETATM   33  H   UNL     1      -5.126   5.798  70.293  1.00  0.00     0.000 HD 
BRANCH  32  34
HETATM   34  C   UNL     1      -5.698   6.026  72.342  1.00  0.00    -0.036 C  
BRANCH  34  35
HETATM   35  C   UNL     1      -6.813   4.983  72.419  1.00  0.00    -0.069 C  
HETATM   36  S   UNL     1      -8.256   5.686  73.177  1.00  0.00    -0.118 S  
HETATM   37  O   UNL     1      -9.174   4.357  73.202  1.00  0.00    -0.117 OA 
HETATM   38  O   UNL     1      -8.878   6.642  72.293  1.00  0.00    -0.133 OA 
HETATM   39  O   UNL     1      -7.963   5.988  74.562  1.00  0.00    -0.102 OA 
ENDBRANCH  34  35
ENDBRANCH  32  34
ENDBRANCH  29  30
ENDBRANCH   6  29
TORSDOF 4
ENDMDL
MODEL       96
REMARK 921   NORMALIZED FREE ENERGY PREDICTED BY IDOCK:   -4.77 KCAL/MOL
REMARK 922        TOTAL FREE ENERGY PREDICTED BY IDOCK:   -6.71 KCAL/MOL
REMARK 923 INTER-LIGAND FREE ENERGY PREDICTED BY IDOCK:   -5.96 KCAL/MOL
REMARK 924 INTRA-LIGAND FREE ENERGY PREDICTED BY IDOCK:   -0.74 KCAL/MOL
REMARK 927      BINDING AFFINITY PREDICTED BY RF-SCORE:    0.00 PKD
ROOT
HETATM    1  C   UNL     1     -10.444  10.219  67.055  1.00  0.00    -0.304 C  
HETATM    2  C   UNL     1      -9.474   8.780  67.117  1.00  0.00    -0.208 C  
HETATM    3  C   UNL     1      -9.469  10.922  67.996  1.00  0.00    -0.167 C  
HETATM    4  C   UNL     1      -9.243   7.775  65.995  1.00  0.00    -0.139 C  
HETATM    5  C   UNL     1      -8.525  11.517  66.938  1.00  0.00    -0.165 C  
HETATM    6  C   UNL     1      -9.393   8.028  68.538  1.00  0.00    -0.142 C  
HETATM    7  C   UNL     1     -10.473  10.800  64.462  1.00  0.00    -0.351 C  
HETATM    8  C   UNL     1      -9.436  12.515  66.319  1.00  0.00    -0.210 C  
HETATM    9  C   UNL     1      -9.910  13.546  67.469  1.00  0.00    -0.227 C  
HETATM   10  H   UNL     1     -12.418  11.855  63.926  1.00  0.00     0.000 HD 
HETATM   11  O   UNL     1     -12.708  12.527  64.532  1.00  0.00    -0.637 OA 
HETATM   12  C   UNL     1     -10.597  11.539  65.818  1.00  0.00    -0.315 C  
HETATM   13  C   UNL     1      -8.758  14.120  68.313  1.00  0.00    -0.181 C  
HETATM   14  C   UNL     1     -11.621  12.796  65.427  1.00  0.00    -0.358 C  
HETATM   15  C   UNL     1      -9.355  14.602  69.605  1.00  0.00     0.298 C  
HETATM   16  O   UNL     1      -7.755  13.225  68.768  1.00  0.00    -0.244 OA 
HETATM   17  C   UNL     1     -12.098  13.895  66.417  1.00  0.00    -0.489 C  
HETATM   18  C   UNL     1     -10.207  15.826  69.387  1.00  0.00    -0.262 C  
HETATM   19  C   UNL     1     -10.952  14.633  67.136  1.00  0.00    -0.316 C  
HETATM   20  H   UNL     1      -7.044  13.579  69.289  1.00  0.00     0.000 HD 
HETATM   21  C   UNL     1     -11.910  16.915  67.873  1.00  0.00     0.941 C  
HETATM   22  C   UNL     1     -10.471  16.398  70.792  1.00  0.00     0.738 C  
HETATM   23  C   UNL     1     -11.424  15.553  68.444  1.00  0.00    -0.370 C  
HETATM   24  C   UNL     1     -11.703  15.938  71.549  1.00  0.00    -0.475 C  
HETATM   25  C   UNL     1     -12.602  14.969  69.304  1.00  0.00     0.101 C  
HETATM   26  H   UNL     1     -12.195  14.546  72.885  1.00  0.00     0.000 HD 
HETATM   27  O   UNL     1     -11.424  14.834  72.410  1.00  0.00    -0.171 OA 
HETATM   28  C   UNL     1     -12.903  15.666  70.660  1.00  0.00    -0.400 C  
ENDROOT
BRANCH   6  29
HETATM   29  C   UNL     1     -10.651   7.544  69.236  1.00  0.00    -0.215 C  
BRANCH  29  30
HETATM   30  C   UNL     1     -10.525   6.151  69.783  1.00  0.00    -0.239 C  
HETATM   31  O   UNL     1     -10.913   5.862  70.909  1.00  0.00    -0.277 OA 
HETATM   32  N   UNL     1      -9.915   5.246  68.933  1.00  0.00    -0.168 N  
HETATM   33  H   UNL     1      -9.653   5.539  67.991  1.00  0.00     0.000 HD 
BRANCH  32  34
HETATM   34  C   UNL     1      -9.642   3.892  69.356  1.00  0.00    -0.169 C  
BRANCH  34  35
HETATM   35  C   UNL     1      -9.481   2.953  68.161  1.00  0.00    -0.161 C  
HETATM   36  S   UNL     1      -9.190   3.891  66.682  1.00  0.00    -0.181 S  
HETATM   37  O   UNL     1      -9.168   2.664  65.631  1.00  0.00    -0.146 OA 
HETATM   38  O   UNL     1      -7.873   4.480  66.708  1.00  0.00    -0.097 OA 
HETATM   39  O   UNL     1     -10.375   4.659  66.367  1.00  0.00    -0.262 OA 
ENDBRANCH  34  35
ENDBRANCH  32  34
ENDBRANCH  29  30
ENDBRANCH   6  29
TORSDOF 4
ENDMDL
MODEL       97
REMARK 921   NORMALIZED FREE ENERGY PREDICTED BY IDOCK:   -4.66 KCAL/MOL
REMARK 922        TOTAL FREE ENERGY PREDICTED BY IDOCK:   -6.57 KCAL/MOL
REMARK 923 INTER-LIGAND FREE ENERGY PREDICTED BY IDOCK:   -5.71 KCAL/MOL
REMARK 924 INTRA-LIGAND FREE ENERGY PREDICTED BY IDOCK:   -0.86 KCAL/MOL
REMARK 927      BINDING AFFINITY PREDICTED BY RF-SCORE:    0.00 PKD
ROOT
HETATM    1  C   UNL     1      -9.678   4.329  70.452  1.00  0.00    -0.280 C  
HETATM    2  C   UNL     1      -9.936   4.279  72.169  1.00  0.00    -0.246 C  
HETATM    3  C   UNL     1      -8.641   5.435  70.636  1.00  0.00    -0.130 C  
HETATM    4  C   UNL     1     -10.264   3.056  73.016  1.00  0.00    -0.229 C  
HETATM    5  C   UNL     1      -7.394   4.550  70.794  1.00  0.00    -0.052 C  
HETATM    6  C   UNL     1     -10.594   5.588  72.836  1.00  0.00    -0.268 C  
HETATM    7  C   UNL     1      -8.917   1.844  69.897  1.00  0.00    -0.141 C  
HETATM    8  C   UNL     1      -7.301   3.995  69.418  1.00  0.00    -0.053 C  
HETATM    9  C   UNL     1      -7.138   5.229  68.388  1.00  0.00    -0.062 C  
HETATM   10  H   UNL     1      -9.555   1.293  67.782  1.00  0.00     0.000 HD 
HETATM   11  O   UNL     1      -9.413   1.957  67.117  1.00  0.00    -0.033 OA 
HETATM   12  C   UNL     1      -8.723   3.273  69.327  1.00  0.00    -0.135 C  
HETATM   13  C   UNL     1      -6.043   6.237  68.782  1.00  0.00    -0.028 C  
HETATM   14  C   UNL     1      -8.576   2.968  67.693  1.00  0.00    -0.098 C  
HETATM   15  C   UNL     1      -6.356   7.526  68.078  1.00  0.00    -0.049 C  
HETATM   16  O   UNL     1      -5.974   6.650  70.138  1.00  0.00    -0.022 OA 
HETATM   17  C   UNL     1      -8.344   4.054  66.606  1.00  0.00    -0.104 C  
HETATM   18  C   UNL     1      -6.130   7.404  66.593  1.00  0.00    -0.043 C  
HETATM   19  C   UNL     1      -7.126   4.959  66.870  1.00  0.00    -0.072 C  
HETATM   20  H   UNL     1      -5.298   7.271  70.381  1.00  0.00     0.000 HD 
HETATM   21  C   UNL     1      -6.420   5.912  64.576  1.00  0.00    -0.034 C  
HETATM   22  C   UNL     1      -6.158   8.845  66.053  1.00  0.00    -0.052 C  
HETATM   23  C   UNL     1      -7.058   6.334  65.930  1.00  0.00    -0.066 C  
HETATM   24  C   UNL     1      -7.479   9.428  65.588  1.00  0.00    -0.095 C  
HETATM   25  C   UNL     1      -8.438   7.006  65.596  1.00  0.00    -0.144 C  
HETATM   26  H   UNL     1      -8.969  10.519  66.333  1.00  0.00     0.000 HD 
HETATM   27  O   UNL     1      -8.141  10.154  66.624  1.00  0.00    -0.117 OA 
HETATM   28  C   UNL     1      -8.402   8.412  64.938  1.00  0.00    -0.159 C  
ENDROOT
BRANCH   6  29
HETATM   29  C   UNL     1     -11.942   6.107  72.369  1.00  0.00    -0.240 C  
BRANCH  29  30
HETATM   30  C   UNL     1     -11.850   6.977  71.148  1.00  0.00    -0.338 C  
HETATM   31  O   UNL     1     -12.276   6.608  70.060  1.00  0.00    -0.193 OA 
HETATM   32  N   UNL     1     -11.225   8.195  71.348  1.00  0.00    -0.248 N  
HETATM   33  H   UNL     1     -10.931   8.460  72.289  1.00  0.00     0.000 HD 
BRANCH  32  34
HETATM   34  C   UNL     1     -10.982   9.098  70.247  1.00  0.00    -0.245 C  
BRANCH  34  35
HETATM   35  C   UNL     1     -11.505  10.502  70.550  1.00  0.00    -0.345 C  
HETATM   36  S   UNL     1     -11.338  11.538  69.118  1.00  0.00    -0.314 S  
HETATM   37  O   UNL     1     -11.861  12.920  69.771  1.00  0.00    -0.312 OA 
HETATM   38  O   UNL     1     -12.276  11.144  68.095  1.00  0.00    -0.612 OA 
HETATM   39  O   UNL     1      -9.932  11.741  68.843  1.00  0.00    -0.151 OA 
ENDBRANCH  34  35
ENDBRANCH  32  34
ENDBRANCH  29  30
ENDBRANCH   6  29
TORSDOF 4
ENDMDL
MODEL       98
REMARK 921   NORMALIZED FREE ENERGY PREDICTED BY IDOCK:   -4.60 KCAL/MOL
REMARK 922        TOTAL FREE ENERGY PREDICTED BY IDOCK:   -6.50 KCAL/MOL
REMARK 923 INTER-LIGAND FREE ENERGY PREDICTED BY IDOCK:   -5.98 KCAL/MOL
REMARK 924 INTRA-LIGAND FREE ENERGY PREDICTED BY IDOCK:   -0.52 KCAL/MOL
REMARK 927      BINDING AFFINITY PREDICTED BY RF-SCORE:    0.00 PKD
ROOT
HETATM    1  C   UNL     1     -10.684   8.958  69.600  1.00  0.00    -0.222 C  
HETATM    2  C   UNL     1     -11.631   8.268  70.882  1.00  0.00    -0.282 C  
HETATM    3  C   UNL     1      -9.699   9.518  70.624  1.00  0.00    -0.311 C  
HETATM    4  C   UNL     1     -12.414   6.961  70.848  1.00  0.00    -0.314 C  
HETATM    5  C   UNL     1      -8.736   8.321  70.687  1.00  0.00    -0.144 C  
HETATM    6  C   UNL     1     -12.354   9.303  71.880  1.00  0.00    -0.454 C  
HETATM    7  C   UNL     1     -10.044   6.838  68.132  1.00  0.00    -0.182 C  
HETATM    8  C   UNL     1      -8.146   8.399  69.324  1.00  0.00    -0.115 C  
HETATM    9  C   UNL     1      -7.435   9.842  69.166  1.00  0.00    -0.082 C  
HETATM   10  H   UNL     1      -9.810   7.448  65.951  1.00  0.00     0.000 HD 
HETATM   11  O   UNL     1      -9.333   8.255  65.793  1.00  0.00    -0.145 OA 
HETATM   12  C   UNL     1      -9.474   8.243  68.452  1.00  0.00    -0.144 C  
HETATM   13  C   UNL     1      -6.495  10.212  70.327  1.00  0.00    -0.128 C  
HETATM   14  C   UNL     1      -8.701   8.628  67.024  1.00  0.00    -0.127 C  
HETATM   15  C   UNL     1      -6.344  11.705  70.314  1.00  0.00     0.020 C  
HETATM   16  O   UNL     1      -6.947   9.973  71.652  1.00  0.00     0.103 OA 
HETATM   17  C   UNL     1      -7.922   9.947  66.765  1.00  0.00    -0.116 C  
HETATM   18  C   UNL     1      -5.541  12.160  69.122  1.00  0.00    -0.066 C  
HETATM   19  C   UNL     1      -6.828  10.247  67.807  1.00  0.00    -0.075 C  
HETATM   20  H   UNL     1      -6.366  10.200  72.368  1.00  0.00     0.000 HD 
HETATM   21  C   UNL     1      -5.137  11.819  66.652  1.00  0.00    -0.041 C  
HETATM   22  C   UNL     1      -5.181  13.630  69.405  1.00  0.00    -0.082 C  
HETATM   23  C   UNL     1      -6.225  11.801  67.762  1.00  0.00    -0.061 C  
HETATM   24  C   UNL     1      -6.120  14.719  68.919  1.00  0.00    -0.082 C  
HETATM   25  C   UNL     1      -7.260  12.928  67.410  1.00  0.00    -0.130 C  
HETATM   26  H   UNL     1      -7.652  15.784  69.615  1.00  0.00     0.000 HD 
HETATM   27  O   UNL     1      -7.064  15.101  69.918  1.00  0.00    -0.183 OA 
HETATM   28  C   UNL     1      -6.798  14.399  67.599  1.00  0.00    -0.202 C  
ENDROOT
BRANCH   6  29
HETATM   29  C   UNL     1     -13.323  10.347  71.351  1.00  0.00    -0.373 C  
BRANCH  29  30
HETATM   30  C   UNL     1     -12.710  11.713  71.227  1.00  0.00    -0.340 C  
HETATM   31  O   UNL     1     -12.908  12.586  72.063  1.00  0.00    -0.264 OA 
HETATM   32  N   UNL     1     -11.946  11.905  70.091  1.00  0.00    -0.371 N  
HETATM   33  H   UNL     1     -11.786  11.124  69.455  1.00  0.00     0.000 HD 
BRANCH  32  34
HETATM   34  C   UNL     1     -11.369  13.195  69.790  1.00  0.00    -0.049 C  
BRANCH  34  35
HETATM   35  C   UNL     1     -11.869  13.733  68.449  1.00  0.00    -0.376 C  
HETATM   36  S   UNL     1     -11.124  15.307  68.105  1.00  0.00    -0.321 S  
HETATM   37  O   UNL     1     -11.905  15.637  66.730  1.00  0.00     0.213 OA 
HETATM   38  O   UNL     1      -9.724  15.147  67.796  1.00  0.00    -0.210 OA 
HETATM   39  O   UNL     1     -11.598  16.276  69.070  1.00  0.00    -0.323 OA 
ENDBRANCH  34  35
ENDBRANCH  32  34
ENDBRANCH  29  30
ENDBRANCH   6  29
TORSDOF 4
ENDMDL
MODEL       99
REMARK 921   NORMALIZED FREE ENERGY PREDICTED BY IDOCK:   -4.56 KCAL/MOL
REMARK 922        TOTAL FREE ENERGY PREDICTED BY IDOCK:   -6.45 KCAL/MOL
REMARK 923 INTER-LIGAND FREE ENERGY PREDICTED BY IDOCK:   -4.85 KCAL/MOL
REMARK 924 INTRA-LIGAND FREE ENERGY PREDICTED BY IDOCK:   -1.61 KCAL/MOL
REMARK 927      BINDING AFFINITY PREDICTED BY RF-SCORE:    0.00 PKD
ROOT
HETATM    1  C   UNL     1      -7.326  14.505  69.186  1.00  0.00    -0.133 C  
HETATM    2  C   UNL     1      -7.590  16.035  68.409  1.00  0.00    -0.145 C  
HETATM    3  C   UNL     1      -7.099  13.849  67.826  1.00  0.00    -0.181 C  
HETATM    4  C   UNL     1      -7.213  17.414  68.937  1.00  0.00    -0.250 C  
HETATM    5  C   UNL     1      -5.579  14.057  67.727  1.00  0.00    -0.052 C  
HETATM    6  C   UNL     1      -8.900  16.154  67.481  1.00  0.00    -0.198 C  
HETATM    7  C   UNL     1      -5.275  15.009  70.800  1.00  0.00    -0.133 C  
HETATM    8  C   UNL     1      -5.127  13.143  68.809  1.00  0.00    -0.066 C  
HETATM    9  C   UNL     1      -5.638  11.652  68.455  1.00  0.00    -0.045 C  
HETATM   10  H   UNL     1      -5.395  13.677  72.642  1.00  0.00     0.000 HD 
HETATM   11  O   UNL     1      -5.619  12.768  72.486  1.00  0.00    -0.155 OA 
HETATM   12  C   UNL     1      -5.891  13.802  70.047  1.00  0.00    -0.137 C  
HETATM   13  C   UNL     1      -5.318  11.202  67.018  1.00  0.00    -0.068 C  
HETATM   14  C   UNL     1      -5.523  12.539  71.074  1.00  0.00    -0.132 C  
HETATM   15  C   UNL     1      -6.269  10.089  66.682  1.00  0.00    -0.069 C  
HETATM   16  O   UNL     1      -5.557  12.121  65.963  1.00  0.00    -0.250 OA 
HETATM   17  C   UNL     1      -5.891  11.052  70.818  1.00  0.00    -0.065 C  
HETATM   18  C   UNL     1      -5.945   8.843  67.466  1.00  0.00    -0.047 C  
HETATM   19  C   UNL     1      -5.406  10.507  69.461  1.00  0.00    -0.038 C  
HETATM   20  H   UNL     1      -5.359  11.844  65.076  1.00  0.00     0.000 HD 
HETATM   21  C   UNL     1      -5.252   7.943  69.722  1.00  0.00    -0.023 C  
HETATM   22  C   UNL     1      -6.753   7.715  66.797  1.00  0.00    -0.066 C  
HETATM   23  C   UNL     1      -6.079   9.051  69.010  1.00  0.00    -0.043 C  
HETATM   24  C   UNL     1      -8.150   7.415  67.306  1.00  0.00    -0.112 C  
HETATM   25  C   UNL     1      -7.581   8.834  69.415  1.00  0.00    -0.088 C  
HETATM   26  H   UNL     1     -10.028   7.931  66.892  1.00  0.00     0.000 HD 
HETATM   27  O   UNL     1      -9.153   8.119  66.574  1.00  0.00    -0.155 OA 
HETATM   28  C   UNL     1      -8.311   7.607  68.803  1.00  0.00    -0.129 C  
ENDROOT
BRANCH   6  29
HETATM   29  C   UNL     1     -10.284  15.889  68.048  1.00  0.00    -0.238 C  
BRANCH  29  30
HETATM   30  C   UNL     1     -11.086  14.926  67.221  1.00  0.00    -0.336 C  
HETATM   31  O   UNL     1     -11.686  15.285  66.214  1.00  0.00    -0.104 OA 
HETATM   32  N   UNL     1     -11.117  13.631  67.705  1.00  0.00    -0.266 N  
HETATM   33  H   UNL     1     -10.561  13.388  68.525  1.00  0.00     0.000 HD 
BRANCH  32  34
HETATM   34  C   UNL     1     -11.923  12.615  67.067  1.00  0.00    -0.260 C  
BRANCH  34  35
HETATM   35  C   UNL     1     -11.900  11.306  67.855  1.00  0.00    -0.133 C  
HETATM   36  S   UNL     1     -10.914  11.490  69.318  1.00  0.00    -0.173 S  
HETATM   37  O   UNL     1     -11.004   9.968  69.851  1.00  0.00    -0.253 OA 
HETATM   38  O   UNL     1     -11.581  12.339  70.276  1.00  0.00    -0.196 OA 
HETATM   39  O   UNL     1      -9.532  11.692  68.936  1.00  0.00    -0.110 OA 
ENDBRANCH  34  35
ENDBRANCH  32  34
ENDBRANCH  29  30
ENDBRANCH   6  29
TORSDOF 4
ENDMDL
MODEL      100
REMARK 921   NORMALIZED FREE ENERGY PREDICTED BY IDOCK:   -4.55 KCAL/MOL
REMARK 922        TOTAL FREE ENERGY PREDICTED BY IDOCK:   -6.44 KCAL/MOL
REMARK 923 INTER-LIGAND FREE ENERGY PREDICTED BY IDOCK:   -5.30 KCAL/MOL
REMARK 924 INTRA-LIGAND FREE ENERGY PREDICTED BY IDOCK:   -1.14 KCAL/MOL
REMARK 927      BINDING AFFINITY PREDICTED BY RF-SCORE:    0.00 PKD
ROOT
HETATM    1  C   UNL     1      -7.720   7.598  67.380  1.00  0.00    -0.117 C  
HETATM    2  C   UNL     1      -6.823   6.562  68.446  1.00  0.00    -0.071 C  
HETATM    3  C   UNL     1      -7.499   8.774  68.329  1.00  0.00    -0.092 C  
HETATM    4  C   UNL     1      -5.919   5.399  68.057  1.00  0.00    -0.018 C  
HETATM    5  C   UNL     1      -6.185   9.301  67.730  1.00  0.00    -0.054 C  
HETATM    6  C   UNL     1      -7.476   6.276  69.889  1.00  0.00    -0.084 C  
HETATM    7  C   UNL     1      -6.357   7.425  65.105  1.00  0.00    -0.038 C  
HETATM    8  C   UNL     1      -6.684   9.797  66.421  1.00  0.00    -0.080 C  
HETATM    9  C   UNL     1      -7.808  10.923  66.704  1.00  0.00    -0.145 C  
HETATM   10  H   UNL     1      -7.764   7.705  63.337  1.00  0.00     0.000 HD 
HETATM   11  O   UNL     1      -8.401   8.405  63.417  1.00  0.00    -0.153 OA 
HETATM   12  C   UNL     1      -7.279   8.437  65.832  1.00  0.00    -0.072 C  
HETATM   13  C   UNL     1      -7.376  12.004  67.712  1.00  0.00    -0.113 C  
HETATM   14  C   UNL     1      -8.023   9.201  64.548  1.00  0.00    -0.127 C  
HETATM   15  C   UNL     1      -8.629  12.628  68.255  1.00  0.00    -0.167 C  
HETATM   16  O   UNL     1      -6.717  11.585  68.897  1.00  0.00    -0.071 OA 
HETATM   17  C   UNL     1      -9.065  10.345  64.680  1.00  0.00    -0.255 C  
HETATM   18  C   UNL     1      -9.323  13.457  67.205  1.00  0.00    -0.240 C  
HETATM   19  C   UNL     1      -8.583  11.541  65.523  1.00  0.00     0.181 C  
HETATM   20  H   UNL     1      -6.450  12.252  69.519  1.00  0.00     0.000 HD 
HETATM   21  C   UNL     1      -9.989  13.573  64.771  1.00  0.00    -0.156 C  
HETATM   22  C   UNL     1     -10.373  14.288  67.965  1.00  0.00    -0.229 C  
HETATM   23  C   UNL     1      -9.782  12.609  65.974  1.00  0.00    -0.232 C  
HETATM   24  C   UNL     1     -11.770  13.723  68.136  1.00  0.00    -0.357 C  
HETATM   25  C   UNL     1     -11.181  11.972  66.299  1.00  0.00    -0.394 C  
HETATM   26  H   UNL     1     -12.793  12.663  69.475  1.00  0.00     0.000 HD 
HETATM   27  O   UNL     1     -11.918  13.017  69.368  1.00  0.00    -0.306 OA 
HETATM   28  C   UNL     1     -12.244  12.894  66.955  1.00  0.00    -0.155 C  
ENDROOT
BRANCH   6  29
HETATM   29  C   UNL     1      -8.861   5.664  70.011  1.00  0.00    -0.136 C  
BRANCH  29  30
HETATM   30  C   UNL     1      -9.421   5.740  71.402  1.00  0.00    -0.150 C  
HETATM   31  O   UNL     1     -10.522   5.279  71.679  1.00  0.00    -0.217 OA 
HETATM   32  N   UNL     1      -8.616   6.392  72.318  1.00  0.00    -0.118 N  
HETATM   33  H   UNL     1      -7.691   6.716  72.033  1.00  0.00     0.000 HD 
BRANCH  32  34
HETATM   34  C   UNL     1      -9.062   6.623  73.672  1.00  0.00    -0.136 C  
BRANCH  34  35
HETATM   35  C   UNL     1      -8.274   7.751  74.337  1.00  0.00    -0.232 C  
HETATM   36  S   UNL     1      -7.010   8.343  73.240  1.00  0.00    -0.029 S  
HETATM   37  O   UNL     1      -6.321   9.412  74.236  1.00  0.00    -0.343 OA 
HETATM   38  O   UNL     1      -7.595   9.071  72.140  1.00  0.00    -0.344 OA 
HETATM   39  O   UNL     1      -6.028   7.299  73.042  1.00  0.00    -0.051 OA 
ENDBRANCH  34  35
ENDBRANCH  32  34
ENDBRANCH  29  30
ENDBRANCH   6  29
TORSDOF 4
ENDMDL
MODEL      101
REMARK 921   NORMALIZED FREE ENERGY PREDICTED BY IDOCK:   -4.53 KCAL/MOL
REMARK 922        TOTAL FREE ENERGY PREDICTED BY IDOCK:   -6.41 KCAL/MOL
REMARK 923 INTER-LIGAND FREE ENERGY PREDICTED BY IDOCK:   -5.56 KCAL/MOL
REMARK 924 INTRA-LIGAND FREE ENERGY PREDICTED BY IDOCK:   -0.85 KCAL/MOL
REMARK 927      BINDING AFFINITY PREDICTED BY RF-SCORE:    0.00 PKD
ROOT
HETATM    1  C   UNL     1      -8.197  15.363  67.791  1.00  0.00    -0.159 C  
HETATM    2  C   UNL     1      -7.125  16.671  68.183  1.00  0.00    -0.157 C  
HETATM    3  C   UNL     1      -7.000  14.481  67.442  1.00  0.00    -0.106 C  
HETATM    4  C   UNL     1      -7.316  17.726  69.266  1.00  0.00    -0.027 C  
HETATM    5  C   UNL     1      -6.762  13.865  68.830  1.00  0.00    -0.106 C  
HETATM    6  C   UNL     1      -6.277  17.297  66.966  1.00  0.00    -0.203 C  
HETATM    7  C   UNL     1      -9.530  14.992  70.060  1.00  0.00     0.258 C  
HETATM    8  C   UNL     1      -7.986  13.030  68.950  1.00  0.00     0.169 C  
HETATM    9  C   UNL     1      -7.997  11.975  67.726  1.00  0.00    -0.147 C  
HETATM   10  H   UNL     1     -11.621  14.213  69.611  1.00  0.00     0.000 HD 
HETATM   11  O   UNL     1     -11.681  13.534  68.949  1.00  0.00    -0.293 OA 
HETATM   12  C   UNL     1      -9.098  14.169  68.820  1.00  0.00    -0.071 C  
HETATM   13  C   UNL     1      -6.675  11.207  67.545  1.00  0.00    -0.075 C  
HETATM   14  C   UNL     1     -10.348  13.073  68.688  1.00  0.00    -0.191 C  
HETATM   15  C   UNL     1      -6.650  10.700  66.132  1.00  0.00    -0.130 C  
HETATM   16  O   UNL     1      -5.463  11.943  67.615  1.00  0.00    -0.055 OA 
HETATM   17  C   UNL     1     -10.446  11.963  67.605  1.00  0.00    -0.232 C  
HETATM   18  C   UNL     1      -7.663   9.602  65.930  1.00  0.00    -0.102 C  
HETATM   19  C   UNL     1      -9.211  11.045  67.532  1.00  0.00    -0.149 C  
HETATM   20  H   UNL     1      -4.646  11.470  67.504  1.00  0.00     0.000 HD 
HETATM   21  C   UNL     1     -10.012   8.838  66.456  1.00  0.00    -0.360 C  
HETATM   22  C   UNL     1      -7.307   8.958  64.578  1.00  0.00    -0.102 C  
HETATM   23  C   UNL     1      -9.130  10.087  66.170  1.00  0.00    -0.188 C  
HETATM   24  C   UNL     1      -7.957   9.497  63.317  1.00  0.00    -0.143 C  
HETATM   25  C   UNL     1      -9.667  10.734  64.844  1.00  0.00    -0.330 C  
HETATM   26  H   UNL     1      -7.560  10.828  61.891  1.00  0.00     0.000 HD 
HETATM   27  O   UNL     1      -7.154  10.491  62.681  1.00  0.00    -0.142 OA 
HETATM   28  C   UNL     1      -9.383   9.974  63.519  1.00  0.00    -0.301 C  
ENDROOT
BRANCH   6  29
HETATM   29  C   UNL     1      -6.974  17.867  65.743  1.00  0.00    -0.234 C  
BRANCH  29  30
HETATM   30  C   UNL     1      -8.432  18.146  65.970  1.00  0.00    -0.007 C  
HETATM   31  O   UNL     1      -8.813  19.150  66.561  1.00  0.00    -0.311 OA 
HETATM   32  N   UNL     1      -9.291  17.172  65.493  1.00  0.00     0.339 N  
HETATM   33  H   UNL     1      -8.913  16.380  64.972  1.00  0.00     0.000 HD 
BRANCH  32  34
HETATM   34  C   UNL     1     -10.715  17.258  65.719  1.00  0.00    -0.131 C  
BRANCH  34  35
HETATM   35  C   UNL     1     -11.501  16.542  64.620  1.00  0.00     0.021 C  
HETATM   36  S   UNL     1     -11.533  14.795  64.931  1.00  0.00    -0.412 S  
HETATM   37  O   UNL     1     -12.316  14.337  63.594  1.00  0.00    -0.741 OA 
HETATM   38  O   UNL     1     -12.375  14.498  66.065  1.00  0.00    -0.332 OA 
HETATM   39  O   UNL     1     -10.192  14.267  64.803  1.00  0.00    -0.412 OA 
ENDBRANCH  34  35
ENDBRANCH  32  34
ENDBRANCH  29  30
ENDBRANCH   6  29
TORSDOF 4
ENDMDL
MODEL      102
REMARK 921   NORMALIZED FREE ENERGY PREDICTED BY IDOCK:   -4.51 KCAL/MOL
REMARK 922        TOTAL FREE ENERGY PREDICTED BY IDOCK:   -6.40 KCAL/MOL
REMARK 923 INTER-LIGAND FREE ENERGY PREDICTED BY IDOCK:   -5.43 KCAL/MOL
REMARK 924 INTRA-LIGAND FREE ENERGY PREDICTED BY IDOCK:   -0.96 KCAL/MOL
REMARK 927      BINDING AFFINITY PREDICTED BY RF-SCORE:    0.00 PKD
ROOT
HETATM    1  C   UNL     1      -8.461   5.961  70.990  1.00  0.00    -0.124 C  
HETATM    2  C   UNL     1      -8.745   6.195  72.687  1.00  0.00    -0.124 C  
HETATM    3  C   UNL     1      -7.987   7.407  70.866  1.00  0.00    -0.097 C  
HETATM    4  C   UNL     1      -8.570   5.170  73.801  1.00  0.00    -0.110 C  
HETATM    5  C   UNL     1      -6.492   7.178  71.145  1.00  0.00    -0.044 C  
HETATM    6  C   UNL     1      -9.915   7.227  73.085  1.00  0.00    -0.295 C  
HETATM    7  C   UNL     1      -6.713   3.959  70.955  1.00  0.00    -0.031 C  
HETATM    8  C   UNL     1      -6.120   6.418  69.922  1.00  0.00    -0.030 C  
HETATM    9  C   UNL     1      -6.443   7.344  68.637  1.00  0.00    -0.044 C  
HETATM   10  H   UNL     1      -6.976   2.735  69.054  1.00  0.00     0.000 HD 
HETATM   11  O   UNL     1      -7.096   3.230  68.252  1.00  0.00    -0.049 OA 
HETATM   12  C   UNL     1      -7.108   5.172  70.074  1.00  0.00    -0.058 C  
HETATM   13  C   UNL     1      -5.883   8.775  68.736  1.00  0.00    -0.041 C  
HETATM   14  C   UNL     1      -6.780   4.598  68.542  1.00  0.00    -0.050 C  
HETATM   15  C   UNL     1      -6.675   9.624  67.784  1.00  0.00    -0.066 C  
HETATM   16  O   UNL     1      -6.049   9.472  69.961  1.00  0.00    -0.041 OA 
HETATM   17  C   UNL     1      -6.976   5.407  67.230  1.00  0.00    -0.065 C  
HETATM   18  C   UNL     1      -6.358   9.277  66.352  1.00  0.00    -0.066 C  
HETATM   19  C   UNL     1      -6.257   6.770  67.218  1.00  0.00    -0.036 C  
HETATM   20  H   UNL     1      -5.703  10.354  70.022  1.00  0.00     0.000 HD 
HETATM   21  C   UNL     1      -5.916   7.388  64.734  1.00  0.00    -0.038 C  
HETATM   22  C   UNL     1      -6.960  10.416  65.509  1.00  0.00    -0.134 C  
HETATM   23  C   UNL     1      -6.728   7.800  65.995  1.00  0.00    -0.049 C  
HETATM   24  C   UNL     1      -8.384  10.278  65.003  1.00  0.00    -0.168 C  
HETATM   25  C   UNL     1      -8.248   7.746  65.601  1.00  0.00    -0.135 C  
HETATM   26  H   UNL     1     -10.221  10.791  65.572  1.00  0.00     0.000 HD 
HETATM   27  O   UNL     1      -9.330  10.877  65.889  1.00  0.00    -0.185 OA 
HETATM   28  C   UNL     1      -8.772   8.855  64.647  1.00  0.00    -0.138 C  
ENDROOT
BRANCH   6  29
HETATM   29  C   UNL     1     -11.337   7.022  72.592  1.00  0.00    -0.290 C  
BRANCH  29  30
HETATM   30  C   UNL     1     -11.686   7.888  71.417  1.00  0.00    -0.281 C  
HETATM   31  O   UNL     1     -11.527   7.506  70.264  1.00  0.00    -0.248 OA 
HETATM   32  N   UNL     1     -12.163   9.146  71.743  1.00  0.00    -0.348 N  
HETATM   33  H   UNL     1     -12.313   9.387  72.723  1.00  0.00     0.000 HD 
BRANCH  32  34
HETATM   34  C   UNL     1     -12.454  10.122  70.718  1.00  0.00    -0.326 C  
BRANCH  34  35
HETATM   35  C   UNL     1     -11.177  10.780  70.194  1.00  0.00    -0.267 C  
HETATM   36  S   UNL     1     -11.580  12.036  69.007  1.00  0.00    -0.334 S  
HETATM   37  O   UNL     1     -10.076  12.449  68.588  1.00  0.00    -0.210 OA 
HETATM   38  O   UNL     1     -12.190  13.171  69.658  1.00  0.00    -0.270 OA 
HETATM   39  O   UNL     1     -12.159  11.412  67.836  1.00  0.00    -0.646 OA 
ENDBRANCH  34  35
ENDBRANCH  32  34
ENDBRANCH  29  30
ENDBRANCH   6  29
TORSDOF 4
ENDMDL
MODEL      103
REMARK 921   NORMALIZED FREE ENERGY PREDICTED BY IDOCK:   -4.51 KCAL/MOL
REMARK 922        TOTAL FREE ENERGY PREDICTED BY IDOCK:   -6.39 KCAL/MOL
REMARK 923 INTER-LIGAND FREE ENERGY PREDICTED BY IDOCK:   -5.91 KCAL/MOL
REMARK 924 INTRA-LIGAND FREE ENERGY PREDICTED BY IDOCK:   -0.48 KCAL/MOL
REMARK 927      BINDING AFFINITY PREDICTED BY RF-SCORE:    0.00 PKD
ROOT
HETATM    1  C   UNL     1      -9.534   6.713  70.401  1.00  0.00    -0.170 C  
HETATM    2  C   UNL     1      -9.394   8.257  71.184  1.00  0.00    -0.205 C  
HETATM    3  C   UNL     1      -8.471   7.127  69.385  1.00  0.00    -0.134 C  
HETATM    4  C   UNL     1      -9.533   8.551  72.672  1.00  0.00    -0.295 C  
HETATM    5  C   UNL     1      -7.230   6.627  70.143  1.00  0.00    -0.080 C  
HETATM    6  C   UNL     1      -9.869   9.539  70.335  1.00  0.00    -0.329 C  
HETATM    7  C   UNL     1      -8.944   5.007  72.352  1.00  0.00    -0.139 C  
HETATM    8  C   UNL     1      -7.459   5.160  70.064  1.00  0.00    -0.063 C  
HETATM    9  C   UNL     1      -7.522   4.744  68.504  1.00  0.00    -0.066 C  
HETATM   10  H   UNL     1     -10.053   3.046  72.026  1.00  0.00     0.000 HD 
HETATM   11  O   UNL     1     -10.060   2.712  71.137  1.00  0.00     0.004 OA 
HETATM   12  C   UNL     1      -8.871   5.072  70.805  1.00  0.00    -0.156 C  
HETATM   13  C   UNL     1      -6.356   5.288  67.659  1.00  0.00    -0.040 C  
HETATM   14  C   UNL     1      -9.103   3.473  70.387  1.00  0.00    -0.127 C  
HETATM   15  C   UNL     1      -6.809   5.283  66.227  1.00  0.00    -0.059 C  
HETATM   16  O   UNL     1      -5.976   6.644  67.843  1.00  0.00    -0.021 OA 
HETATM   17  C   UNL     1      -9.115   2.929  68.932  1.00  0.00    -0.207 C  
HETATM   18  C   UNL     1      -6.929   3.877  65.700  1.00  0.00    -0.062 C  
HETATM   19  C   UNL     1      -7.859   3.290  68.115  1.00  0.00    -0.063 C  
HETATM   20  H   UNL     1      -5.256   6.980  67.323  1.00  0.00     0.000 HD 
HETATM   21  C   UNL     1      -7.685   1.527  66.236  1.00  0.00    -0.065 C  
HETATM   22  C   UNL     1      -7.064   4.020  64.173  1.00  0.00    -0.050 C  
HETATM   23  C   UNL     1      -7.994   3.033  66.474  1.00  0.00    -0.077 C  
HETATM   24  C   UNL     1      -8.451   4.137  63.569  1.00  0.00    -0.100 C  
HETATM   25  C   UNL     1      -9.407   3.316  65.849  1.00  0.00    -0.123 C  
HETATM   26  H   UNL     1      -9.721   5.571  63.023  1.00  0.00     0.000 HD 
HETATM   27  O   UNL     1      -8.852   5.497  63.401  1.00  0.00     0.048 OA 
HETATM   28  C   UNL     1      -9.507   3.327  64.299  1.00  0.00    -0.142 C  
ENDROOT
BRANCH   6  29
HETATM   29  C   UNL     1     -11.283   9.633  69.789  1.00  0.00    -0.208 C  
BRANCH  29  30
HETATM   30  C   UNL     1     -11.504  10.839  68.923  1.00  0.00    -0.293 C  
HETATM   31  O   UNL     1     -11.837  10.737  67.748  1.00  0.00    -0.538 OA 
HETATM   32  N   UNL     1     -11.272  12.052  69.546  1.00  0.00    -0.440 N  
HETATM   33  H   UNL     1     -11.038  12.070  70.539  1.00  0.00     0.000 HD 
BRANCH  32  34
HETATM   34  C   UNL     1     -11.355  13.295  68.814  1.00  0.00    -0.290 C  
BRANCH  34  35
HETATM   35  C   UNL     1     -12.516  14.158  69.307  1.00  0.00    -0.023 C  
HETATM   36  S   UNL     1     -11.962  15.256  70.586  1.00  0.00    -0.380 S  
HETATM   37  O   UNL     1     -13.386  15.928  70.948  1.00  0.00    -0.498 OA 
HETATM   38  O   UNL     1     -11.110  16.284  70.038  1.00  0.00    -0.341 OA 
HETATM   39  O   UNL     1     -11.587  14.478  71.748  1.00  0.00    -0.181 OA 
ENDBRANCH  34  35
ENDBRANCH  32  34
ENDBRANCH  29  30
ENDBRANCH   6  29
TORSDOF 4
ENDMDL
MODEL      104
REMARK 921   NORMALIZED FREE ENERGY PREDICTED BY IDOCK:   -4.45 KCAL/MOL
REMARK 922        TOTAL FREE ENERGY PREDICTED BY IDOCK:   -6.32 KCAL/MOL
REMARK 923 INTER-LIGAND FREE ENERGY PREDICTED BY IDOCK:   -5.52 KCAL/MOL
REMARK 924 INTRA-LIGAND FREE ENERGY PREDICTED BY IDOCK:   -0.81 KCAL/MOL
REMARK 927      BINDING AFFINITY PREDICTED BY RF-SCORE:    0.00 PKD
ROOT
HETATM    1  C   UNL     1      -8.911   6.811  70.889  1.00  0.00    -0.146 C  
HETATM    2  C   UNL     1     -10.077   5.702  71.542  1.00  0.00    -0.253 C  
HETATM    3  C   UNL     1      -9.919   7.255  69.832  1.00  0.00    -0.183 C  
HETATM    4  C   UNL     1     -10.257   5.309  73.003  1.00  0.00    -0.213 C  
HETATM    5  C   UNL     1     -10.571   8.407  70.614  1.00  0.00    -0.234 C  
HETATM    6  C   UNL     1     -10.509   4.473  70.597  1.00  0.00     0.117 C  
HETATM    7  C   UNL     1      -8.354   8.373  72.965  1.00  0.00    -0.199 C  
HETATM    8  C   UNL     1      -9.431   9.361  70.656  1.00  0.00    -0.325 C  
HETATM    9  C   UNL     1      -9.015   9.715  69.136  1.00  0.00    -0.154 C  
HETATM   10  H   UNL     1      -6.213   9.131  72.811  1.00  0.00     0.000 HD 
HETATM   11  O   UNL     1      -5.935   9.425  71.951  1.00  0.00    -0.179 OA 
HETATM   12  C   UNL     1      -8.357   8.456  71.417  1.00  0.00    -0.182 C  
HETATM   13  C   UNL     1     -10.198  10.121  68.238  1.00  0.00    -0.166 C  
HETATM   14  C   UNL     1      -7.108   9.525  71.133  1.00  0.00     0.074 C  
HETATM   15  C   UNL     1      -9.766   9.904  66.816  1.00  0.00    -0.244 C  
HETATM   16  O   UNL     1     -11.384   9.345  68.308  1.00  0.00    -0.495 OA 
HETATM   17  C   UNL     1      -6.653  10.004  69.727  1.00  0.00    -0.074 C  
HETATM   18  C   UNL     1      -8.721  10.909  66.406  1.00  0.00    -0.174 C  
HETATM   19  C   UNL     1      -7.784  10.605  68.870  1.00  0.00    -0.121 C  
HETATM   20  H   UNL     1     -12.114   9.596  67.754  1.00  0.00     0.000 HD 
HETATM   21  C   UNL     1      -6.643  12.144  67.139  1.00  0.00    -0.127 C  
HETATM   22  C   UNL     1      -8.619  10.795  64.874  1.00  0.00    -0.097 C  
HETATM   23  C   UNL     1      -7.413  10.798  67.257  1.00  0.00    -0.101 C  
HETATM   24  C   UNL     1      -7.616   9.825  64.276  1.00  0.00    -0.135 C  
HETATM   25  C   UNL     1      -6.498   9.688  66.625  1.00  0.00    -0.067 C  
HETATM   26  H   UNL     1      -7.569   7.943  63.629  1.00  0.00     0.000 HD 
HETATM   27  O   UNL     1      -8.197   8.550  64.004  1.00  0.00    -0.159 OA 
HETATM   28  C   UNL     1      -6.335   9.698  65.081  1.00  0.00    -0.083 C  
ENDROOT
BRANCH   6  29
HETATM   29  C   UNL     1      -9.474   3.500  70.061  1.00  0.00    -0.253 C  
BRANCH  29  30
HETATM   30  C   UNL     1      -9.146   3.724  68.612  1.00  0.00    -0.142 C  
HETATM   31  O   UNL     1      -8.234   3.123  68.057  1.00  0.00    -0.076 OA 
HETATM   32  N   UNL     1      -9.929   4.673  67.980  1.00  0.00    -0.106 N  
HETATM   33  H   UNL     1     -10.701   5.106  68.487  1.00  0.00     0.000 HD 
BRANCH  32  34
HETATM   34  C   UNL     1      -9.671   5.061  66.612  1.00  0.00    -0.177 C  
BRANCH  34  35
HETATM   35  C   UNL     1     -10.727   4.496  65.662  1.00  0.00    -0.118 C  
HETATM   36  S   UNL     1      -9.947   3.587  64.352  1.00  0.00    -0.175 S  
HETATM   37  O   UNL     1     -11.272   3.224  63.502  1.00  0.00    -0.264 OA 
HETATM   38  O   UNL     1      -9.388   2.355  64.854  1.00  0.00    -0.140 OA 
HETATM   39  O   UNL     1      -9.188   4.503  63.527  1.00  0.00    -0.145 OA 
ENDBRANCH  34  35
ENDBRANCH  32  34
ENDBRANCH  29  30
ENDBRANCH   6  29
TORSDOF 4
ENDMDL
MODEL      105
REMARK 921   NORMALIZED FREE ENERGY PREDICTED BY IDOCK:   -4.44 KCAL/MOL
REMARK 922        TOTAL FREE ENERGY PREDICTED BY IDOCK:   -6.30 KCAL/MOL
REMARK 923 INTER-LIGAND FREE ENERGY PREDICTED BY IDOCK:   -4.59 KCAL/MOL
REMARK 924 INTRA-LIGAND FREE ENERGY PREDICTED BY IDOCK:   -1.72 KCAL/MOL
REMARK 927      BINDING AFFINITY PREDICTED BY RF-SCORE:    0.00 PKD
ROOT
HETATM    1  C   UNL     1      -8.745   4.750  67.834  1.00  0.00    -0.109 C  
HETATM    2  C   UNL     1      -9.622   5.150  66.389  1.00  0.00    -0.171 C  
HETATM    3  C   UNL     1      -9.394   5.928  68.558  1.00  0.00    -0.127 C  
HETATM    4  C   UNL     1     -10.171   4.183  65.347  1.00  0.00    -0.190 C  
HETATM    5  C   UNL     1     -10.629   5.199  69.110  1.00  0.00    -0.069 C  
HETATM    6  C   UNL     1      -9.245   6.546  65.682  1.00  0.00     0.134 C  
HETATM    7  C   UNL     1      -9.532   2.261  68.331  1.00  0.00    -0.226 C  
HETATM    8  C   UNL     1      -9.974   4.300  70.096  1.00  0.00    -0.206 C  
HETATM    9  C   UNL     1      -9.185   5.217  71.167  1.00  0.00    -0.183 C  
HETATM   10  H   UNL     1      -7.869   1.119  69.385  1.00  0.00     0.000 HD 
HETATM   11  O   UNL     1      -7.417   1.585  70.079  1.00  0.00    -0.036 OA 
HETATM   12  C   UNL     1      -9.007   3.491  69.114  1.00  0.00    -0.179 C  
HETATM   13  C   UNL     1     -10.029   6.361  71.758  1.00  0.00    -0.177 C  
HETATM   14  C   UNL     1      -8.178   2.766  70.367  1.00  0.00    -0.045 C  
HETATM   15  C   UNL     1      -9.070   7.389  72.286  1.00  0.00    -0.160 C  
HETATM   16  O   UNL     1     -10.825   7.129  70.869  1.00  0.00    -0.235 OA 
HETATM   17  C   UNL     1      -7.438   3.529  71.501  1.00  0.00    -0.047 C  
HETATM   18  C   UNL     1      -8.350   6.884  73.510  1.00  0.00    -0.134 C  
HETATM   19  C   UNL     1      -8.317   4.547  72.251  1.00  0.00    -0.110 C  
HETATM   20  H   UNL     1     -11.347   7.835  71.234  1.00  0.00     0.000 HD 
HETATM   21  C   UNL     1      -7.221   4.886  74.564  1.00  0.00    -0.077 C  
HETATM   22  C   UNL     1      -7.674   8.121  74.129  1.00  0.00    -0.270 C  
HETATM   23  C   UNL     1      -7.480   5.618  73.217  1.00  0.00    -0.096 C  
HETATM   24  C   UNL     1      -6.260   8.471  73.704  1.00  0.00    -0.116 C  
HETATM   25  C   UNL     1      -6.083   6.085  72.672  1.00  0.00    -0.038 C  
HETATM   26  H   UNL     1      -5.352   9.626  72.360  1.00  0.00     0.000 HD 
HETATM   27  O   UNL     1      -6.238   9.406  72.626  1.00  0.00    -0.300 OA 
HETATM   28  C   UNL     1      -5.390   7.261  73.414  1.00  0.00    -0.042 C  
ENDROOT
BRANCH   6  29
HETATM   29  C   UNL     1      -7.823   6.833  65.231  1.00  0.00    -0.121 C  
BRANCH  29  30
HETATM   30  C   UNL     1      -7.196   7.990  65.954  1.00  0.00    -0.065 C  
HETATM   31  O   UNL     1      -5.991   8.208  65.899  1.00  0.00    -0.037 OA 
HETATM   32  N   UNL     1      -8.074   8.753  66.702  1.00  0.00    -0.103 N  
HETATM   33  H   UNL     1      -9.072   8.544  66.672  1.00  0.00     0.000 HD 
BRANCH  32  34
HETATM   34  C   UNL     1      -7.601   9.843  67.524  1.00  0.00    -0.091 C  
BRANCH  34  35
HETATM   35  C   UNL     1      -8.206   9.789  68.927  1.00  0.00    -0.117 C  
HETATM   36  S   UNL     1      -9.971   9.962  68.839  1.00  0.00    -0.192 S  
HETATM   37  O   UNL     1     -10.282   9.967  70.424  1.00  0.00    -0.266 OA 
HETATM   38  O   UNL     1     -10.568   8.777  68.271  1.00  0.00    -0.210 OA 
HETATM   39  O   UNL     1     -10.293  11.293  68.369  1.00  0.00    -0.178 OA 
ENDBRANCH  34  35
ENDBRANCH  32  34
ENDBRANCH  29  30
ENDBRANCH   6  29
TORSDOF 4
ENDMDL
MODEL      106
REMARK 921   NORMALIZED FREE ENERGY PREDICTED BY IDOCK:   -4.42 KCAL/MOL
REMARK 922        TOTAL FREE ENERGY PREDICTED BY IDOCK:   -6.28 KCAL/MOL
REMARK 923 INTER-LIGAND FREE ENERGY PREDICTED BY IDOCK:   -4.90 KCAL/MOL
REMARK 924 INTRA-LIGAND FREE ENERGY PREDICTED BY IDOCK:   -1.38 KCAL/MOL
REMARK 927      BINDING AFFINITY PREDICTED BY RF-SCORE:    0.00 PKD
ROOT
HETATM    1  C   UNL     1      -8.536   6.833  71.640  1.00  0.00    -0.125 C  
HETATM    2  C   UNL     1      -7.634   6.882  73.123  1.00  0.00    -0.087 C  
HETATM    3  C   UNL     1      -7.523   5.855  71.050  1.00  0.00    -0.094 C  
HETATM    4  C   UNL     1      -8.189   7.029  74.534  1.00  0.00    -0.189 C  
HETATM    5  C   UNL     1      -8.191   4.544  71.496  1.00  0.00    -0.101 C  
HETATM    6  C   UNL     1      -6.166   7.539  73.051  1.00  0.00    -0.059 C  
HETATM    7  C   UNL     1     -10.927   5.985  72.431  1.00  0.00    -0.303 C  
HETATM    8  C   UNL     1      -9.410   4.579  70.646  1.00  0.00    -0.223 C  
HETATM    9  C   UNL     1      -8.944   4.619  69.100  1.00  0.00    -0.139 C  
HETATM   10  H   UNL     1     -12.540   6.832  71.067  1.00  0.00     0.000 HD 
HETATM   11  O   UNL     1     -12.352   6.813  70.136  1.00  0.00    -0.158 OA 
HETATM   12  C   UNL     1     -10.048   5.952  71.156  1.00  0.00    -0.249 C  
HETATM   13  C   UNL     1      -7.899   3.551  68.730  1.00  0.00    -0.055 C  
HETATM   14  C   UNL     1     -11.200   5.980  69.949  1.00  0.00    -0.368 C  
HETATM   15  C   UNL     1      -7.203   4.028  67.487  1.00  0.00    -0.067 C  
HETATM   16  O   UNL     1      -6.810   3.349  69.618  1.00  0.00    -0.036 OA 
HETATM   17  C   UNL     1     -10.891   5.949  68.427  1.00  0.00    -0.322 C  
HETATM   18  C   UNL     1      -8.122   3.972  66.294  1.00  0.00    -0.098 C  
HETATM   19  C   UNL     1     -10.003   4.769  67.988  1.00  0.00    -0.154 C  
HETATM   20  H   UNL     1      -6.165   2.690  69.390  1.00  0.00     0.000 HD 
HETATM   21  C   UNL     1     -10.473   4.402  65.476  1.00  0.00    -0.228 C  
HETATM   22  C   UNL     1      -7.213   4.156  65.065  1.00  0.00    -0.071 C  
HETATM   23  C   UNL     1      -9.370   4.902  66.452  1.00  0.00    -0.145 C  
HETATM   24  C   UNL     1      -6.965   5.558  64.541  1.00  0.00    -0.049 C  
HETATM   25  C   UNL     1      -8.975   6.352  65.996  1.00  0.00    -0.143 C  
HETATM   26  H   UNL     1      -5.627   7.016  64.763  1.00  0.00     0.000 HD 
HETATM   27  O   UNL     1      -5.783   6.138  65.092  1.00  0.00    -0.020 OA 
HETATM   28  C   UNL     1      -8.160   6.484  64.680  1.00  0.00    -0.092 C  
ENDROOT
BRANCH   6  29
HETATM   29  C   UNL     1      -5.973   8.964  72.562  1.00  0.00    -0.053 C  
BRANCH  29  30
HETATM   30  C   UNL     1      -5.968   9.080  71.065  1.00  0.00    -0.050 C  
HETATM   31  O   UNL     1      -5.160   8.470  70.374  1.00  0.00    -0.022 OA 
HETATM   32  N   UNL     1      -6.915   9.945  70.546  1.00  0.00    -0.132 N  
HETATM   33  H   UNL     1      -7.585  10.390  71.173  1.00  0.00     0.000 HD 
BRANCH  32  34
HETATM   34  C   UNL     1      -6.969  10.228  69.130  1.00  0.00    -0.066 C  
BRANCH  34  35
HETATM   35  C   UNL     1      -8.168   9.548  68.469  1.00  0.00    -0.113 C  
HETATM   36  S   UNL     1      -9.681  10.181  69.148  1.00  0.00    -0.226 S  
HETATM   37  O   UNL     1     -10.710   9.226  68.348  1.00  0.00    -0.211 OA 
HETATM   38  O   UNL     1      -9.902  11.539  68.714  1.00  0.00    -0.201 OA 
HETATM   39  O   UNL     1      -9.777   9.787  70.537  1.00  0.00    -0.249 OA 
ENDBRANCH  34  35
ENDBRANCH  32  34
ENDBRANCH  29  30
ENDBRANCH   6  29
TORSDOF 4
ENDMDL
MODEL      107
REMARK 921   NORMALIZED FREE ENERGY PREDICTED BY IDOCK:   -4.36 KCAL/MOL
REMARK 922        TOTAL FREE ENERGY PREDICTED BY IDOCK:   -6.21 KCAL/MOL
REMARK 923 INTER-LIGAND FREE ENERGY PREDICTED BY IDOCK:   -5.06 KCAL/MOL
REMARK 924 INTRA-LIGAND FREE ENERGY PREDICTED BY IDOCK:   -1.15 KCAL/MOL
REMARK 927      BINDING AFFINITY PREDICTED BY RF-SCORE:    0.00 PKD
ROOT
HETATM    1  C   UNL     1     -10.573  10.142  70.269  1.00  0.00    -0.324 C  
HETATM    2  C   UNL     1     -11.964   9.729  71.223  1.00  0.00    -0.471 C  
HETATM    3  C   UNL     1     -10.835   8.942  69.362  1.00  0.00    -0.133 C  
HETATM    4  C   UNL     1     -12.918  10.688  71.924  1.00  0.00    -0.542 C  
HETATM    5  C   UNL     1     -11.743   9.633  68.331  1.00  0.00     0.802 C  
HETATM    6  C   UNL     1     -11.887   8.349  72.048  1.00  0.00    -0.417 C  
HETATM    7  C   UNL     1     -11.134  12.605  69.444  1.00  0.00    -0.130 C  
HETATM    8  C   UNL     1     -10.755  10.542  67.693  1.00  0.00    -0.324 C  
HETATM    9  C   UNL     1      -9.572   9.639  67.065  1.00  0.00    -0.221 C  
HETATM   10  H   UNL     1      -9.207  13.784  69.159  1.00  0.00     0.000 HD 
HETATM   11  O   UNL     1      -8.497  13.325  68.726  1.00  0.00    -0.035 OA 
HETATM   12  C   UNL     1     -10.304  11.384  68.973  1.00  0.00    -0.166 C  
HETATM   13  C   UNL     1     -10.067   8.468  66.196  1.00  0.00     0.017 C  
HETATM   14  C   UNL     1      -9.043  12.122  68.168  1.00  0.00    -0.196 C  
HETATM   15  C   UNL     1      -8.953   7.463  66.135  1.00  0.00    -0.182 C  
HETATM   16  O   UNL     1     -11.145   7.685  66.686  1.00  0.00    -0.307 OA 
HETATM   17  C   UNL     1      -7.881  11.371  67.460  1.00  0.00    -0.126 C  
HETATM   18  C   UNL     1      -7.800   7.978  65.314  1.00  0.00    -0.113 C  
HETATM   19  C   UNL     1      -8.345  10.324  66.429  1.00  0.00    -0.132 C  
HETATM   20  H   UNL     1     -11.451   6.963  66.149  1.00  0.00     0.000 HD 
HETATM   21  C   UNL     1      -6.376   9.998  64.791  1.00  0.00    -0.127 C  
HETATM   22  C   UNL     1      -6.900   6.756  65.055  1.00  0.00    -0.050 C  
HETATM   23  C   UNL     1      -7.158   9.269  65.920  1.00  0.00    -0.090 C  
HETATM   24  C   UNL     1      -5.785   6.447  66.038  1.00  0.00    -0.021 C  
HETATM   25  C   UNL     1      -6.107   8.843  67.006  1.00  0.00    -0.058 C  
HETATM   26  H   UNL     1      -5.497   5.326  67.658  1.00  0.00     0.000 HD 
HETATM   27  O   UNL     1      -6.195   5.520  67.043  1.00  0.00    -0.032 OA 
HETATM   28  C   UNL     1      -5.142   7.682  66.642  1.00  0.00    -0.024 C  
ENDROOT
BRANCH   6  29
HETATM   29  C   UNL     1     -10.777   8.104  73.056  1.00  0.00    -0.208 C  
BRANCH  29  30
HETATM   30  C   UNL     1     -10.540   6.647  73.331  1.00  0.00    -0.309 C  
HETATM   31  O   UNL     1     -10.028   6.263  74.376  1.00  0.00    -0.264 OA 
HETATM   32  N   UNL     1     -10.913   5.793  72.308  1.00  0.00    -0.250 N  
HETATM   33  H   UNL     1     -11.373   6.173  71.481  1.00  0.00     0.000 HD 
BRANCH  32  34
HETATM   34  C   UNL     1     -10.661   4.373  72.393  1.00  0.00    -0.045 C  
BRANCH  34  35
HETATM   35  C   UNL     1      -9.401   3.981  71.621  1.00  0.00    -0.135 C  
HETATM   36  S   UNL     1      -9.255   4.965  70.151  1.00  0.00    -0.140 S  
HETATM   37  O   UNL     1      -7.936   4.264  69.534  1.00  0.00    -0.057 OA 
HETATM   38  O   UNL     1      -8.921   6.329  70.484  1.00  0.00    -0.148 OA 
HETATM   39  O   UNL     1     -10.336   4.631  69.248  1.00  0.00    -0.102 OA 
ENDBRANCH  34  35
ENDBRANCH  32  34
ENDBRANCH  29  30
ENDBRANCH   6  29
TORSDOF 4
ENDMDL
MODEL      108
REMARK 921   NORMALIZED FREE ENERGY PREDICTED BY IDOCK:   -4.30 KCAL/MOL
REMARK 922        TOTAL FREE ENERGY PREDICTED BY IDOCK:   -6.14 KCAL/MOL
REMARK 923 INTER-LIGAND FREE ENERGY PREDICTED BY IDOCK:   -5.11 KCAL/MOL
REMARK 924 INTRA-LIGAND FREE ENERGY PREDICTED BY IDOCK:   -1.03 KCAL/MOL
REMARK 927      BINDING AFFINITY PREDICTED BY RF-SCORE:    0.00 PKD
ROOT
HETATM    1  C   UNL     1      -9.372   3.953  69.032  1.00  0.00    -0.237 C  
HETATM    2  C   UNL     1      -9.023   2.997  70.439  1.00  0.00    -0.167 C  
HETATM    3  C   UNL     1      -8.371   5.009  69.497  1.00  0.00    -0.088 C  
HETATM    4  C   UNL     1      -9.001   1.477  70.538  1.00  0.00    -0.129 C  
HETATM    5  C   UNL     1      -7.118   4.451  68.803  1.00  0.00    -0.052 C  
HETATM    6  C   UNL     1      -9.454   3.622  71.859  1.00  0.00    -0.203 C  
HETATM    7  C   UNL     1      -8.767   2.307  67.036  1.00  0.00    -0.138 C  
HETATM    8  C   UNL     1      -7.485   4.695  67.383  1.00  0.00    -0.078 C  
HETATM    9  C   UNL     1      -7.726   6.281  67.190  1.00  0.00    -0.097 C  
HETATM   10  H   UNL     1     -10.074   2.768  65.230  1.00  0.00     0.000 HD 
HETATM   11  O   UNL     1     -10.191   3.688  65.023  1.00  0.00    -0.117 OA 
HETATM   12  C   UNL     1      -8.827   3.832  67.306  1.00  0.00    -0.137 C  
HETATM   13  C   UNL     1      -6.595   7.162  67.752  1.00  0.00    -0.053 C  
HETATM   14  C   UNL     1      -9.240   4.426  65.802  1.00  0.00    -0.142 C  
HETATM   15  C   UNL     1      -7.173   8.529  67.978  1.00  0.00    -0.087 C  
HETATM   16  O   UNL     1      -6.079   6.844  69.036  1.00  0.00    -0.025 OA 
HETATM   17  C   UNL     1      -9.432   5.930  65.464  1.00  0.00     0.199 C  
HETATM   18  C   UNL     1      -7.467   9.218  66.670  1.00  0.00    -0.093 C  
HETATM   19  C   UNL     1      -8.227   6.817  65.834  1.00  0.00    -0.132 C  
HETATM   20  H   UNL     1      -5.381   7.387  69.382  1.00  0.00     0.000 HD 
HETATM   21  C   UNL     1      -8.382   8.914  64.336  1.00  0.00    -0.176 C  
HETATM   22  C   UNL     1      -7.725  10.692  67.030  1.00  0.00    -0.117 C  
HETATM   23  C   UNL     1      -8.531   8.455  65.814  1.00  0.00    -0.169 C  
HETATM   24  C   UNL     1      -9.144  11.134  67.337  1.00  0.00    -0.142 C  
HETATM   25  C   UNL     1      -9.963   8.893  66.289  1.00  0.00    -0.337 C  
HETATM   26  H   UNL     1     -10.322  11.360  68.926  1.00  0.00     0.000 HD 
HETATM   27  O   UNL     1      -9.433  11.084  68.734  1.00  0.00    -0.189 OA 
HETATM   28  C   UNL     1     -10.200  10.411  66.520  1.00  0.00    -0.289 C  
ENDROOT
BRANCH   6  29
HETATM   29  C   UNL     1     -10.897   4.005  72.136  1.00  0.00     0.228 C  
BRANCH  29  30
HETATM   30  C   UNL     1     -11.080   5.473  72.393  1.00  0.00    -0.256 C  
HETATM   31  O   UNL     1     -11.822   6.161  71.702  1.00  0.00    -0.286 OA 
HETATM   32  N   UNL     1     -10.326   5.979  73.437  1.00  0.00    -0.218 N  
HETATM   33  H   UNL     1      -9.760   5.344  74.001  1.00  0.00     0.000 HD 
BRANCH  32  34
HETATM   34  C   UNL     1     -10.329   7.391  73.743  1.00  0.00    -0.248 C  
BRANCH  34  35
HETATM   35  C   UNL     1      -8.911   7.961  73.764  1.00  0.00    -0.271 C  
HETATM   36  S   UNL     1      -8.336   8.230  72.106  1.00  0.00    -0.176 S  
HETATM   37  O   UNL     1      -6.837   8.718  72.457  1.00  0.00    -0.259 OA 
HETATM   38  O   UNL     1      -9.035   9.338  71.501  1.00  0.00    -0.316 OA 
HETATM   39  O   UNL     1      -8.189   6.952  71.443  1.00  0.00    -0.109 OA 
ENDBRANCH  34  35
ENDBRANCH  32  34
ENDBRANCH  29  30
ENDBRANCH   6  29
TORSDOF 4
ENDMDL
MODEL      109
REMARK 921   NORMALIZED FREE ENERGY PREDICTED BY IDOCK:   -4.29 KCAL/MOL
REMARK 922        TOTAL FREE ENERGY PREDICTED BY IDOCK:   -6.11 KCAL/MOL
REMARK 923 INTER-LIGAND FREE ENERGY PREDICTED BY IDOCK:   -5.49 KCAL/MOL
REMARK 924 INTRA-LIGAND FREE ENERGY PREDICTED BY IDOCK:   -0.62 KCAL/MOL
REMARK 927      BINDING AFFINITY PREDICTED BY RF-SCORE:    0.00 PKD
ROOT
HETATM    1  C   UNL     1      -9.420   5.847  71.442  1.00  0.00    -0.168 C  
HETATM    2  C   UNL     1      -9.456   7.021  72.721  1.00  0.00    -0.170 C  
HETATM    3  C   UNL     1      -8.196   6.534  70.840  1.00  0.00    -0.125 C  
HETATM    4  C   UNL     1      -9.873   6.794  74.169  1.00  0.00    -0.352 C  
HETATM    5  C   UNL     1      -7.107   5.748  71.588  1.00  0.00    -0.081 C  
HETATM    6  C   UNL     1      -9.791   8.537  72.296  1.00  0.00    -0.383 C  
HETATM    7  C   UNL     1      -9.168   3.551  72.756  1.00  0.00    -0.131 C  
HETATM    8  C   UNL     1      -7.289   4.410  70.968  1.00  0.00    -0.045 C  
HETATM    9  C   UNL     1      -7.055   4.557  69.376  1.00  0.00    -0.051 C  
HETATM   10  H   UNL     1     -10.159   1.873  71.580  1.00  0.00     0.000 HD 
HETATM   11  O   UNL     1      -9.995   1.865  70.645  1.00  0.00     0.002 OA 
HETATM   12  C   UNL     1      -8.812   4.138  71.367  1.00  0.00    -0.147 C  
HETATM   13  C   UNL     1      -5.764   5.303  68.996  1.00  0.00    -0.015 C  
HETATM   14  C   UNL     1      -8.932   2.792  70.389  1.00  0.00    -0.096 C  
HETATM   15  C   UNL     1      -5.944   5.810  67.594  1.00  0.00    -0.021 C  
HETATM   16  O   UNL     1      -5.451   6.495  69.702  1.00  0.00    -0.013 OA 
HETATM   17  C   UNL     1      -8.664   2.780  68.858  1.00  0.00    -0.133 C  
HETATM   18  C   UNL     1      -5.938   4.676  66.601  1.00  0.00    -0.027 C  
HETATM   19  C   UNL     1      -7.287   3.341  68.456  1.00  0.00    -0.050 C  
HETATM   20  H   UNL     1      -4.653   6.955  69.467  1.00  0.00     0.000 HD 
HETATM   21  C   UNL     1      -6.735   2.323  66.148  1.00  0.00    -0.039 C  
HETATM   22  C   UNL     1      -5.792   5.340  65.219  1.00  0.00    -0.017 C  
HETATM   23  C   UNL     1      -7.111   3.668  66.831  1.00  0.00    -0.063 C  
HETATM   24  C   UNL     1      -7.045   5.721  64.454  1.00  0.00    -0.053 C  
HETATM   25  C   UNL     1      -8.390   4.213  66.099  1.00  0.00    -0.109 C  
HETATM   26  H   UNL     1      -8.220   7.311  64.217  1.00  0.00     0.000 HD 
HETATM   27  O   UNL     1      -7.435   7.072  64.697  1.00  0.00    -0.083 OA 
HETATM   28  C   UNL     1      -8.202   4.759  64.657  1.00  0.00    -0.113 C  
ENDROOT
BRANCH   6  29
HETATM   29  C   UNL     1     -11.082   8.877  71.572  1.00  0.00    -0.397 C  
BRANCH  29  30
HETATM   30  C   UNL     1     -10.864   9.337  70.159  1.00  0.00    -0.242 C  
HETATM   31  O   UNL     1     -10.820   8.548  69.223  1.00  0.00    -0.175 OA 
HETATM   32  N   UNL     1     -10.687  10.702  70.014  1.00  0.00    -0.448 N  
HETATM   33  H   UNL     1     -10.778  11.309  70.828  1.00  0.00     0.000 HD 
BRANCH  32  34
HETATM   34  C   UNL     1     -10.376  11.280  68.727  1.00  0.00    -0.205 C  
BRANCH  34  35
HETATM   35  C   UNL     1     -11.595  11.973  68.116  1.00  0.00    -0.340 C  
HETATM   36  S   UNL     1     -11.168  12.690  66.550  1.00  0.00    -0.313 S  
HETATM   37  O   UNL     1     -12.582  13.403  66.229  1.00  0.00    -0.333 OA 
HETATM   38  O   UNL     1     -10.954  11.660  65.562  1.00  0.00    -0.297 OA 
HETATM   39  O   UNL     1     -10.224  13.767  66.763  1.00  0.00    -0.260 OA 
ENDBRANCH  34  35
ENDBRANCH  32  34
ENDBRANCH  29  30
ENDBRANCH   6  29
TORSDOF 4
ENDMDL
MODEL      110
REMARK 921   NORMALIZED FREE ENERGY PREDICTED BY IDOCK:   -4.26 KCAL/MOL
REMARK 922        TOTAL FREE ENERGY PREDICTED BY IDOCK:   -6.08 KCAL/MOL
REMARK 923 INTER-LIGAND FREE ENERGY PREDICTED BY IDOCK:   -5.94 KCAL/MOL
REMARK 924 INTRA-LIGAND FREE ENERGY PREDICTED BY IDOCK:   -0.13 KCAL/MOL
REMARK 927      BINDING AFFINITY PREDICTED BY RF-SCORE:    0.00 PKD
ROOT
HETATM    1  C   UNL     1      -7.926   9.268  69.499  1.00  0.00    -0.098 C  
HETATM    2  C   UNL     1      -6.541   8.569  70.280  1.00  0.00    -0.039 C  
HETATM    3  C   UNL     1      -7.378  10.667  69.773  1.00  0.00    -0.115 C  
HETATM    4  C   UNL     1      -5.839   7.266  69.917  1.00  0.00    -0.024 C  
HETATM    5  C   UNL     1      -6.564  10.846  68.481  1.00  0.00    -0.055 C  
HETATM    6  C   UNL     1      -6.394   8.837  71.860  1.00  0.00    -0.072 C  
HETATM    7  C   UNL     1      -7.814   8.229  67.056  1.00  0.00    -0.096 C  
HETATM    8  C   UNL     1      -7.672  10.922  67.492  1.00  0.00    -0.109 C  
HETATM    9  C   UNL     1      -8.613  12.175  67.886  1.00  0.00    -0.167 C  
HETATM   10  H   UNL     1      -9.915   8.032  66.201  1.00  0.00     0.000 HD 
HETATM   11  O   UNL     1     -10.492   8.773  66.339  1.00  0.00    -0.216 OA 
HETATM   12  C   UNL     1      -8.357   9.503  67.752  1.00  0.00    -0.118 C  
HETATM   13  C   UNL     1      -7.845  13.485  68.137  1.00  0.00    -0.144 C  
HETATM   14  C   UNL     1      -9.687   9.862  66.812  1.00  0.00    -0.192 C  
HETATM   15  C   UNL     1      -8.732  14.364  68.972  1.00  0.00     0.014 C  
HETATM   16  O   UNL     1      -6.665  13.425  68.924  1.00  0.00    -0.100 OA 
HETATM   17  C   UNL     1     -10.633  11.074  67.037  1.00  0.00    -0.303 C  
HETATM   18  C   UNL     1      -9.913  14.857  68.176  1.00  0.00    -0.222 C  
HETATM   19  C   UNL     1      -9.910  12.433  67.093  1.00  0.00    -0.206 C  
HETATM   20  H   UNL     1      -6.190  14.234  69.079  1.00  0.00     0.000 HD 
HETATM   21  C   UNL     1     -11.673  14.218  66.481  1.00  0.00    -0.409 C  
HETATM   22  C   UNL     1     -10.536  15.984  69.019  1.00  0.00    -0.246 C  
HETATM   23  C   UNL     1     -10.832  13.693  67.679  1.00  0.00    -0.268 C  
HETATM   24  C   UNL     1     -11.625  15.635  70.017  1.00  0.00    -0.350 C  
HETATM   25  C   UNL     1     -11.842  13.329  68.825  1.00  0.00    -0.371 C  
HETATM   26  H   UNL     1     -11.784  15.176  71.948  1.00  0.00     0.000 HD 
HETATM   27  O   UNL     1     -11.102  15.394  71.323  1.00  0.00    -0.360 OA 
HETATM   28  C   UNL     1     -12.535  14.508  69.561  1.00  0.00    -0.162 C  
ENDROOT
BRANCH   6  29
HETATM   29  C   UNL     1      -7.493   8.427  72.826  1.00  0.00    -0.115 C  
BRANCH  29  30
HETATM   30  C   UNL     1      -8.723   7.912  72.137  1.00  0.00    -0.142 C  
HETATM   31  O   UNL     1      -9.720   8.609  71.991  1.00  0.00    -0.276 OA 
HETATM   32  N   UNL     1      -8.648   6.595  71.720  1.00  0.00    -0.126 N  
HETATM   33  H   UNL     1      -7.773   6.082  71.834  1.00  0.00     0.000 HD 
BRANCH  32  34
HETATM   34  C   UNL     1      -9.786   5.935  71.125  1.00  0.00    -0.181 C  
BRANCH  34  35
HETATM   35  C   UNL     1     -10.093   4.610  71.823  1.00  0.00    -0.191 C  
HETATM   36  S   UNL     1      -9.298   4.556  73.409  1.00  0.00    -0.115 S  
HETATM   37  O   UNL     1      -9.716   3.053  73.826  1.00  0.00    -0.096 OA 
HETATM   38  O   UNL     1      -9.937   5.469  74.327  1.00  0.00    -0.187 OA 
HETATM   39  O   UNL     1      -7.864   4.528  73.219  1.00  0.00    -0.089 OA 
ENDBRANCH  34  35
ENDBRANCH  32  34
ENDBRANCH  29  30
ENDBRANCH   6  29
TORSDOF 4
ENDMDL
MODEL      111
REMARK 921   NORMALIZED FREE ENERGY PREDICTED BY IDOCK:   -4.19 KCAL/MOL
REMARK 922        TOTAL FREE ENERGY PREDICTED BY IDOCK:   -5.99 KCAL/MOL
REMARK 923 INTER-LIGAND FREE ENERGY PREDICTED BY IDOCK:   -4.55 KCAL/MOL
REMARK 924 INTRA-LIGAND FREE ENERGY PREDICTED BY IDOCK:   -1.44 KCAL/MOL
REMARK 927      BINDING AFFINITY PREDICTED BY RF-SCORE:    0.00 PKD
ROOT
HETATM    1  C   UNL     1      -9.950   7.547  69.662  1.00  0.00    -0.184 C  
HETATM    2  C   UNL     1     -10.172   8.346  71.188  1.00  0.00    -0.254 C  
HETATM    3  C   UNL     1      -8.657   8.327  69.438  1.00  0.00    -0.134 C  
HETATM    4  C   UNL     1     -10.789   7.763  72.453  1.00  0.00    -0.359 C  
HETATM    5  C   UNL     1      -7.681   7.337  70.094  1.00  0.00    -0.091 C  
HETATM    6  C   UNL     1     -10.450   9.931  71.136  1.00  0.00     0.028 C  
HETATM    7  C   UNL     1      -9.878   4.980  70.347  1.00  0.00    -0.301 C  
HETATM    8  C   UNL     1      -7.768   6.214  69.124  1.00  0.00    -0.100 C  
HETATM    9  C   UNL     1      -7.312   6.764  67.675  1.00  0.00    -0.096 C  
HETATM   10  H   UNL     1     -10.686   3.702  68.645  1.00  0.00     0.000 HD 
HETATM   11  O   UNL     1     -10.391   3.934  67.773  1.00  0.00     0.344 OA 
HETATM   12  C   UNL     1      -9.331   5.898  69.224  1.00  0.00    -0.147 C  
HETATM   13  C   UNL     1      -5.983   7.541  67.686  1.00  0.00    -0.039 C  
HETATM   14  C   UNL     1      -9.306   4.859  67.919  1.00  0.00    -0.128 C  
HETATM   15  C   UNL     1      -5.965   8.402  66.456  1.00  0.00    -0.049 C  
HETATM   16  O   UNL     1      -5.778   8.495  68.718  1.00  0.00    -0.039 OA 
HETATM   17  C   UNL     1      -8.825   5.239  66.491  1.00  0.00    -0.116 C  
HETATM   18  C   UNL     1      -5.814   7.568  65.210  1.00  0.00    -0.038 C  
HETATM   19  C   UNL     1      -7.406   5.840  66.444  1.00  0.00    -0.078 C  
HETATM   20  H   UNL     1      -4.957   8.973  68.725  1.00  0.00     0.000 HD 
HETATM   21  C   UNL     1      -6.530   5.442  64.048  1.00  0.00    -0.029 C  
HETATM   22  C   UNL     1      -5.477   8.564  64.086  1.00  0.00    -0.059 C  
HETATM   23  C   UNL     1      -7.004   6.574  65.003  1.00  0.00    -0.051 C  
HETATM   24  C   UNL     1      -6.611   9.174  63.284  1.00  0.00    -0.090 C  
HETATM   25  C   UNL     1      -8.169   7.334  64.272  1.00  0.00     0.025 C  
HETATM   26  H   UNL     1      -7.747  10.809  63.316  1.00  0.00     0.000 HD 
HETATM   27  O   UNL     1      -7.037  10.427  63.818  1.00  0.00    -0.092 OA 
HETATM   28  C   UNL     1      -7.781   8.232  63.065  1.00  0.00    -0.134 C  
ENDROOT
BRANCH   6  29
HETATM   29  C   UNL     1     -11.627  10.491  70.357  1.00  0.00    -0.430 C  
BRANCH  29  30
HETATM   30  C   UNL     1     -11.214  11.276  69.145  1.00  0.00    -0.273 C  
HETATM   31  O   UNL     1     -11.819  11.190  68.083  1.00  0.00    -0.559 OA 
HETATM   32  N   UNL     1     -10.091  12.066  69.319  1.00  0.00    -0.368 N  
HETATM   33  H   UNL     1      -9.658  12.126  70.241  1.00  0.00     0.000 HD 
BRANCH  32  34
HETATM   34  C   UNL     1      -9.522  12.806  68.217  1.00  0.00    -0.203 C  
BRANCH  34  35
HETATM   35  C   UNL     1      -8.471  11.983  67.473  1.00  0.00    -0.165 C  
HETATM   36  S   UNL     1      -6.904  12.103  68.300  1.00  0.00    -0.077 S  
HETATM   37  O   UNL     1      -6.024  11.244  67.252  1.00  0.00    -0.055 OA 
HETATM   38  O   UNL     1      -6.936  11.384  69.551  1.00  0.00    -0.117 OA 
HETATM   39  O   UNL     1      -6.419  13.463  68.200  1.00  0.00    -0.091 OA 
ENDBRANCH  34  35
ENDBRANCH  32  34
ENDBRANCH  29  30
ENDBRANCH   6  29
TORSDOF 4
ENDMDL
MODEL      112
REMARK 921   NORMALIZED FREE ENERGY PREDICTED BY IDOCK:   -4.11 KCAL/MOL
REMARK 922        TOTAL FREE ENERGY PREDICTED BY IDOCK:   -5.89 KCAL/MOL
REMARK 923 INTER-LIGAND FREE ENERGY PREDICTED BY IDOCK:   -5.33 KCAL/MOL
REMARK 924 INTRA-LIGAND FREE ENERGY PREDICTED BY IDOCK:   -0.56 KCAL/MOL
REMARK 927      BINDING AFFINITY PREDICTED BY RF-SCORE:    0.00 PKD
ROOT
HETATM    1  C   UNL     1      -9.851  13.603  67.779  1.00  0.00    -0.232 C  
HETATM    2  C   UNL     1     -10.986  14.913  67.686  1.00  0.00    -0.300 C  
HETATM    3  C   UNL     1     -10.884  12.753  68.515  1.00  0.00    -0.279 C  
HETATM    4  C   UNL     1     -11.135  15.926  66.558  1.00  0.00    -0.028 C  
HETATM    5  C   UNL     1     -11.543  12.092  67.293  1.00  0.00    -0.404 C  
HETATM    6  C   UNL     1     -11.413  15.595  69.081  1.00  0.00    -0.365 C  
HETATM    7  C   UNL     1      -9.287  13.130  65.225  1.00  0.00     0.466 C  
HETATM    8  C   UNL     1     -10.420  11.234  66.833  1.00  0.00    -0.286 C  
HETATM    9  C   UNL     1     -10.035  10.223  68.034  1.00  0.00    -0.177 C  
HETATM   10  H   UNL     1      -7.163  12.334  65.036  1.00  0.00     0.000 HD 
HETATM   11  O   UNL     1      -6.904  11.679  65.673  1.00  0.00     0.614 OA 
HETATM   12  C   UNL     1      -9.317  12.359  66.569  1.00  0.00    -0.233 C  
HETATM   13  C   UNL     1     -11.239   9.484  68.645  1.00  0.00     0.112 C  
HETATM   14  C   UNL     1      -8.092  11.248  66.350  1.00  0.00    -0.138 C  
HETATM   15  C   UNL     1     -10.828   9.027  70.015  1.00  0.00    -0.247 C  
HETATM   16  O   UNL     1     -12.411  10.236  68.924  1.00  0.00    -0.567 OA 
HETATM   17  C   UNL     1      -7.669  10.177  67.393  1.00  0.00    -0.095 C  
HETATM   18  C   UNL     1      -9.807   7.922  69.936  1.00  0.00    -0.182 C  
HETATM   19  C   UNL     1      -8.824   9.281  67.879  1.00  0.00    -0.124 C  
HETATM   20  H   UNL     1     -13.154   9.779  69.300  1.00  0.00     0.000 HD 
HETATM   21  C   UNL     1      -7.739   7.101  68.740  1.00  0.00    -0.116 C  
HETATM   22  C   UNL     1      -9.729   7.331  71.356  1.00  0.00    -0.170 C  
HETATM   23  C   UNL     1      -8.483   8.374  69.235  1.00  0.00    -0.125 C  
HETATM   24  C   UNL     1      -8.719   7.905  72.333  1.00  0.00    -0.152 C  
HETATM   25  C   UNL     1      -7.560   9.059  70.305  1.00  0.00    -0.087 C  
HETATM   26  H   UNL     1      -8.650   9.293  73.759  1.00  0.00     0.000 HD 
HETATM   27  O   UNL     1      -9.282   8.934  73.147  1.00  0.00    -0.083 OA 
HETATM   28  C   UNL     1      -7.423   8.351  71.681  1.00  0.00    -0.118 C  
ENDROOT
BRANCH   6  29
HETATM   29  C   UNL     1     -10.369  16.198  70.005  1.00  0.00    -0.147 C  
BRANCH  29  30
HETATM   30  C   UNL     1      -9.709  17.419  69.434  1.00  0.00     0.104 C  
HETATM   31  O   UNL     1     -10.352  18.414  69.120  1.00  0.00    -0.257 OA 
HETATM   32  N   UNL     1      -8.340  17.314  69.264  1.00  0.00     0.051 N  
HETATM   33  H   UNL     1      -7.857  16.474  69.585  1.00  0.00     0.000 HD 
BRANCH  32  34
HETATM   34  C   UNL     1      -7.582  18.374  68.640  1.00  0.00    -0.302 C  
BRANCH  34  35
HETATM   35  C   UNL     1      -6.972  17.920  67.314  1.00  0.00    -0.186 C  
HETATM   36  S   UNL     1      -7.133  19.202  66.097  1.00  0.00    -0.263 S  
HETATM   37  O   UNL     1      -6.511  18.404  64.837  1.00  0.00    -0.419 OA 
HETATM   38  O   UNL     1      -6.255  20.305  66.404  1.00  0.00    -0.181 OA 
HETATM   39  O   UNL     1      -8.535  19.390  65.791  1.00  0.00    -0.419 OA 
ENDBRANCH  34  35
ENDBRANCH  32  34
ENDBRANCH  29  30
ENDBRANCH   6  29
TORSDOF 4
ENDMDL
MODEL      113
REMARK 921   NORMALIZED FREE ENERGY PREDICTED BY IDOCK:   -4.07 KCAL/MOL
REMARK 922        TOTAL FREE ENERGY PREDICTED BY IDOCK:   -5.85 KCAL/MOL
REMARK 923 INTER-LIGAND FREE ENERGY PREDICTED BY IDOCK:   -5.36 KCAL/MOL
REMARK 924 INTRA-LIGAND FREE ENERGY PREDICTED BY IDOCK:   -0.49 KCAL/MOL
REMARK 927      BINDING AFFINITY PREDICTED BY RF-SCORE:    0.00 PKD
ROOT
HETATM    1  C   UNL     1      -8.205   4.788  69.689  1.00  0.00    -0.072 C  
HETATM    2  C   UNL     1      -7.748   3.213  69.119  1.00  0.00    -0.048 C  
HETATM    3  C   UNL     1      -8.620   5.184  68.274  1.00  0.00    -0.098 C  
HETATM    4  C   UNL     1      -7.863   1.892  69.870  1.00  0.00    -0.049 C  
HETATM    5  C   UNL     1     -10.090   4.738  68.339  1.00  0.00    -0.111 C  
HETATM    6  C   UNL     1      -6.498   3.148  68.106  1.00  0.00    -0.036 C  
HETATM    7  C   UNL     1     -10.040   4.239  71.531  1.00  0.00    -0.205 C  
HETATM    8  C   UNL     1     -10.614   5.730  69.314  1.00  0.00    -0.376 C  
HETATM    9  C   UNL     1     -10.373   7.208  68.706  1.00  0.00    -0.200 C  
HETATM   10  H   UNL     1     -10.019   5.844  73.146  1.00  0.00     0.000 HD 
HETATM   11  O   UNL     1      -9.954   6.741  72.842  1.00  0.00    -0.165 OA 
HETATM   12  C   UNL     1      -9.676   5.393  70.562  1.00  0.00    -0.246 C  
HETATM   13  C   UNL     1     -10.853   7.377  67.253  1.00  0.00    -0.256 C  
HETATM   14  C   UNL     1     -10.176   6.731  71.426  1.00  0.00    -0.198 C  
HETATM   15  C   UNL     1     -10.117   8.553  66.680  1.00  0.00    -0.364 C  
HETATM   16  O   UNL     1     -10.537   6.350  66.324  1.00  0.00    -0.467 OA 
HETATM   17  C   UNL     1     -10.070   8.199  70.928  1.00  0.00    -0.215 C  
HETATM   18  C   UNL     1     -10.587   9.843  67.302  1.00  0.00    -0.316 C  
HETATM   19  C   UNL     1     -10.722   8.447  69.555  1.00  0.00    -0.181 C  
HETATM   20  H   UNL     1     -10.834   6.454  65.428  1.00  0.00     0.000 HD 
HETATM   21  C   UNL     1     -11.270  10.968  69.457  1.00  0.00    -0.343 C  
HETATM   22  C   UNL     1     -10.016  10.962  66.411  1.00  0.00    -0.266 C  
HETATM   23  C   UNL     1     -10.322   9.900  68.842  1.00  0.00    -0.221 C  
HETATM   24  C   UNL     1      -8.655  11.543  66.747  1.00  0.00    -0.170 C  
HETATM   25  C   UNL     1      -8.852  10.399  69.080  1.00  0.00    -0.176 C  
HETATM   26  H   UNL     1      -6.749  11.255  66.249  1.00  0.00     0.000 HD 
HETATM   27  O   UNL     1      -7.601  10.891  66.039  1.00  0.00    -0.148 OA 
HETATM   28  C   UNL     1      -8.370  11.612  68.237  1.00  0.00    -0.159 C  
ENDROOT
BRANCH   6  29
HETATM   29  C   UNL     1      -5.141   3.702  68.506  1.00  0.00    -0.007 C  
BRANCH  29  30
HETATM   30  C   UNL     1      -5.232   4.985  69.281  1.00  0.00     0.000 C  
HETATM   31  O   UNL     1      -5.303   6.073  68.720  1.00  0.00    -0.006 OA 
HETATM   32  N   UNL     1      -5.195   4.838  70.656  1.00  0.00    -0.003 N  
HETATM   33  H   UNL     1      -5.178   3.902  71.060  1.00  0.00     0.000 HD 
BRANCH  32  34
HETATM   34  C   UNL     1      -5.180   5.990  71.528  1.00  0.00    -0.017 C  
BRANCH  34  35
HETATM   35  C   UNL     1      -6.412   6.021  72.433  1.00  0.00    -0.058 C  
HETATM   36  S   UNL     1      -6.410   4.616  73.517  1.00  0.00    -0.048 S  
HETATM   37  O   UNL     1      -7.832   4.879  74.239  1.00  0.00    -0.095 OA 
HETATM   38  O   UNL     1      -5.374   4.745  74.513  1.00  0.00    -0.012 OA 
HETATM   39  O   UNL     1      -6.584   3.412  72.732  1.00  0.00    -0.026 OA 
ENDBRANCH  34  35
ENDBRANCH  32  34
ENDBRANCH  29  30
ENDBRANCH   6  29
TORSDOF 4
ENDMDL
MODEL      114
REMARK 921   NORMALIZED FREE ENERGY PREDICTED BY IDOCK:   -4.04 KCAL/MOL
REMARK 922        TOTAL FREE ENERGY PREDICTED BY IDOCK:   -5.81 KCAL/MOL
REMARK 923 INTER-LIGAND FREE ENERGY PREDICTED BY IDOCK:   -5.43 KCAL/MOL
REMARK 924 INTRA-LIGAND FREE ENERGY PREDICTED BY IDOCK:   -0.37 KCAL/MOL
REMARK 927      BINDING AFFINITY PREDICTED BY RF-SCORE:    0.00 PKD
ROOT
HETATM    1  C   UNL     1      -9.051   5.077  67.863  1.00  0.00    -0.126 C  
HETATM    2  C   UNL     1     -10.153   5.518  66.595  1.00  0.00    -0.245 C  
HETATM    3  C   UNL     1      -9.683   6.121  68.780  1.00  0.00    -0.148 C  
HETATM    4  C   UNL     1     -10.764   4.600  65.544  1.00  0.00    -0.176 C  
HETATM    5  C   UNL     1     -10.765   5.235  69.417  1.00  0.00    -0.106 C  
HETATM    6  C   UNL     1      -9.993   7.000  65.986  1.00  0.00     0.356 C  
HETATM    7  C   UNL     1      -9.557   2.492  68.210  1.00  0.00    -0.108 C  
HETATM    8  C   UNL     1      -9.907   4.318  70.212  1.00  0.00    -0.263 C  
HETATM    9  C   UNL     1      -9.051   5.208  71.254  1.00  0.00    -0.173 C  
HETATM   10  H   UNL     1      -7.674   1.422  68.915  1.00  0.00     0.000 HD 
HETATM   11  O   UNL     1      -7.168   1.867  69.584  1.00  0.00    -0.036 OA 
HETATM   12  C   UNL     1      -9.027   3.692  69.035  1.00  0.00    -0.179 C  
HETATM   13  C   UNL     1      -9.891   6.212  72.064  1.00  0.00    -0.155 C  
HETATM   14  C   UNL     1      -7.973   2.941  70.088  1.00  0.00    -0.042 C  
HETATM   15  C   UNL     1      -8.953   7.275  72.558  1.00  0.00    -0.152 C  
HETATM   16  O   UNL     1     -10.865   6.977  71.370  1.00  0.00    -0.227 OA 
HETATM   17  C   UNL     1      -7.144   3.668  71.183  1.00  0.00    -0.033 C  
HETATM   18  C   UNL     1      -8.030   6.734  73.619  1.00  0.00    -0.107 C  
HETATM   19  C   UNL     1      -7.987   4.530  72.142  1.00  0.00    -0.100 C  
HETATM   20  H   UNL     1     -11.385   7.596  71.869  1.00  0.00     0.000 HD 
HETATM   21  C   UNL     1      -6.605   4.766  74.310  1.00  0.00    -0.065 C  
HETATM   22  C   UNL     1      -7.374   7.970  74.262  1.00  0.00    -0.213 C  
HETATM   23  C   UNL     1      -7.111   5.585  73.088  1.00  0.00    -0.082 C  
HETATM   24  C   UNL     1      -6.067   8.487  73.690  1.00  0.00    -0.119 C  
HETATM   25  C   UNL     1      -5.847   6.228  72.411  1.00  0.00    -0.038 C  
HETATM   26  H   UNL     1      -5.455   9.835  72.359  1.00  0.00     0.000 HD 
HETATM   27  O   UNL     1      -6.273   9.511  72.717  1.00  0.00    -0.287 OA 
HETATM   28  C   UNL     1      -5.153   7.393  73.167  1.00  0.00    -0.037 C  
ENDROOT
BRANCH   6  29
HETATM   29  C   UNL     1      -8.677   7.457  65.380  1.00  0.00     0.004 C  
BRANCH  29  30
HETATM   30  C   UNL     1      -8.475   8.943  65.458  1.00  0.00    -0.159 C  
HETATM   31  O   UNL     1      -7.434   9.430  65.884  1.00  0.00    -0.096 OA 
HETATM   32  N   UNL     1      -9.558   9.699  65.047  1.00  0.00    -0.405 N  
HETATM   33  H   UNL     1     -10.379   9.232  64.663  1.00  0.00     0.000 HD 
BRANCH  32  34
HETATM   34  C   UNL     1      -9.543  11.140  65.151  1.00  0.00    -0.234 C  
BRANCH  34  35
HETATM   35  C   UNL     1     -10.817  11.666  65.813  1.00  0.00    -0.281 C  
HETATM   36  S   UNL     1     -11.093  13.357  65.351  1.00  0.00    -0.293 S  
HETATM   37  O   UNL     1     -12.400  13.634  66.259  1.00  0.00    -0.432 OA 
HETATM   38  O   UNL     1     -11.484  13.446  63.965  1.00  0.00    -0.382 OA 
HETATM   39  O   UNL     1     -10.042  14.178  65.913  1.00  0.00    -0.297 OA 
ENDBRANCH  34  35
ENDBRANCH  32  34
ENDBRANCH  29  30
ENDBRANCH   6  29
TORSDOF 4
ENDMDL
MODEL      115
REMARK 921   NORMALIZED FREE ENERGY PREDICTED BY IDOCK:   -4.00 KCAL/MOL
REMARK 922        TOTAL FREE ENERGY PREDICTED BY IDOCK:   -5.76 KCAL/MOL
REMARK 923 INTER-LIGAND FREE ENERGY PREDICTED BY IDOCK:   -5.30 KCAL/MOL
REMARK 924 INTRA-LIGAND FREE ENERGY PREDICTED BY IDOCK:   -0.46 KCAL/MOL
REMARK 927      BINDING AFFINITY PREDICTED BY RF-SCORE:    0.00 PKD
ROOT
HETATM    1  C   UNL     1      -7.771   8.466  68.690  1.00  0.00    -0.107 C  
HETATM    2  C   UNL     1      -6.665   9.789  68.901  1.00  0.00    -0.050 C  
HETATM    3  C   UNL     1      -6.596   7.504  68.529  1.00  0.00    -0.049 C  
HETATM    4  C   UNL     1      -6.850  11.012  69.790  1.00  0.00    -0.116 C  
HETATM    5  C   UNL     1      -6.419   7.117  70.006  1.00  0.00    -0.036 C  
HETATM    6  C   UNL     1      -5.762  10.182  67.627  1.00  0.00    -0.045 C  
HETATM    7  C   UNL     1      -9.179   8.510  70.943  1.00  0.00    -0.213 C  
HETATM    8  C   UNL     1      -7.674   6.349  70.218  1.00  0.00    -0.098 C  
HETATM    9  C   UNL     1      -7.686   5.109  69.182  1.00  0.00    -0.080 C  
HETATM   10  H   UNL     1     -11.283   7.731  70.556  1.00  0.00     0.000 HD 
HETATM   11  O   UNL     1     -11.347   6.955  70.011  1.00  0.00    -0.298 OA 
HETATM   12  C   UNL     1      -8.741   7.484  69.868  1.00  0.00    -0.140 C  
HETATM   13  C   UNL     1      -6.387   4.283  69.172  1.00  0.00    -0.032 C  
HETATM   14  C   UNL     1     -10.025   6.418  69.874  1.00  0.00    -0.168 C  
HETATM   15  C   UNL     1      -6.339   3.551  67.862  1.00  0.00    -0.036 C  
HETATM   16  O   UNL     1      -5.152   4.984  69.163  1.00  0.00     0.000 OA 
HETATM   17  C   UNL     1     -10.130   5.150  68.982  1.00  0.00    -0.257 C  
HETATM   18  C   UNL     1      -7.384   2.466  67.807  1.00  0.00    -0.056 C  
HETATM   19  C   UNL     1      -8.926   4.196  69.101  1.00  0.00    -0.164 C  
HETATM   20  H   UNL     1      -4.351   4.475  69.158  1.00  0.00     0.000 HD 
HETATM   21  C   UNL     1      -9.772   1.868  68.371  1.00  0.00    -0.007 C  
HETATM   22  C   UNL     1      -7.013   1.599  66.590  1.00  0.00    -0.042 C  
HETATM   23  C   UNL     1      -8.840   3.026  67.916  1.00  0.00    -0.163 C  
HETATM   24  C   UNL     1      -7.607   1.944  65.237  1.00  0.00    -0.070 C  
HETATM   25  C   UNL     1      -9.316   3.464  66.485  1.00  0.00    -0.173 C  
HETATM   26  H   UNL     1      -7.124   3.013  63.628  1.00  0.00     0.000 HD 
HETATM   27  O   UNL     1      -6.752   2.797  64.476  1.00  0.00    -0.037 OA 
HETATM   28  C   UNL     1      -9.022   2.490  65.311  1.00  0.00    -0.134 C  
ENDROOT
BRANCH   6  29
HETATM   29  C   UNL     1      -6.404  10.566  66.305  1.00  0.00    -0.106 C  
BRANCH  29  30
HETATM   30  C   UNL     1      -7.213  11.828  66.386  1.00  0.00     0.216 C  
HETATM   31  O   UNL     1      -6.770  12.846  66.904  1.00  0.00    -0.020 OA 
HETATM   32  N   UNL     1      -8.491  11.734  65.863  1.00  0.00    -0.385 N  
HETATM   33  H   UNL     1      -8.784  10.870  65.407  1.00  0.00     0.000 HD 
BRANCH  32  34
HETATM   34  C   UNL     1      -9.416  12.840  65.952  1.00  0.00    -0.066 C  
BRANCH  34  35
HETATM   35  C   UNL     1     -10.582  12.673  64.979  1.00  0.00    -0.303 C  
HETATM   36  S   UNL     1     -12.125  12.859  65.836  1.00  0.00    -0.406 S  
HETATM   37  O   UNL     1     -13.116  12.538  64.601  1.00  0.00    -0.845 OA 
HETATM   38  O   UNL     1     -12.327  14.234  66.224  1.00  0.00    -0.443 OA 
HETATM   39  O   UNL     1     -12.286  11.761  66.765  1.00  0.00    -0.376 OA 
ENDBRANCH  34  35
ENDBRANCH  32  34
ENDBRANCH  29  30
ENDBRANCH   6  29
TORSDOF 4
ENDMDL
MODEL      116
REMARK 921   NORMALIZED FREE ENERGY PREDICTED BY IDOCK:   -4.00 KCAL/MOL
REMARK 922        TOTAL FREE ENERGY PREDICTED BY IDOCK:   -5.76 KCAL/MOL
REMARK 923 INTER-LIGAND FREE ENERGY PREDICTED BY IDOCK:   -5.33 KCAL/MOL
REMARK 924 INTRA-LIGAND FREE ENERGY PREDICTED BY IDOCK:   -0.43 KCAL/MOL
REMARK 927      BINDING AFFINITY PREDICTED BY RF-SCORE:    0.00 PKD
ROOT
HETATM    1  C   UNL     1      -8.173   9.678  68.350  1.00  0.00    -0.106 C  
HETATM    2  C   UNL     1      -7.033   8.616  69.117  1.00  0.00    -0.063 C  
HETATM    3  C   UNL     1      -7.545  10.874  69.063  1.00  0.00    -0.135 C  
HETATM    4  C   UNL     1      -6.412   7.353  68.533  1.00  0.00    -0.041 C  
HETATM    5  C   UNL     1      -6.495  11.241  68.002  1.00  0.00    -0.057 C  
HETATM    6  C   UNL     1      -7.150   8.468  70.716  1.00  0.00    -0.055 C  
HETATM    7  C   UNL     1      -7.723   9.258  65.765  1.00  0.00    -0.098 C  
HETATM    8  C   UNL     1      -7.389  11.715  66.913  1.00  0.00    -0.125 C  
HETATM    9  C   UNL     1      -8.254  12.957  67.478  1.00  0.00    -0.184 C  
HETATM   10  H   UNL     1      -9.641   9.582  64.582  1.00  0.00     0.000 HD 
HETATM   11  O   UNL     1     -10.155  10.344  64.822  1.00  0.00    -0.339 OA 
HETATM   12  C   UNL     1      -8.251  10.390  66.683  1.00  0.00    -0.128 C  
HETATM   13  C   UNL     1      -7.416  14.042  68.179  1.00  0.00    -0.131 C  
HETATM   14  C   UNL     1      -9.344  11.156  65.681  1.00  0.00    -0.219 C  
HETATM   15  C   UNL     1      -8.346  14.810  69.072  1.00  0.00    -0.144 C  
HETATM   16  O   UNL     1      -6.411  13.621  69.090  1.00  0.00    -0.097 OA 
HETATM   17  C   UNL     1     -10.186  12.401  66.074  1.00  0.00    -0.267 C  
HETATM   18  C   UNL     1      -9.305  15.648  68.266  1.00  0.00    -0.192 C  
HETATM   19  C   UNL     1      -9.351  13.586  66.595  1.00  0.00    -0.254 C  
HETATM   20  H   UNL     1      -5.893  14.290  69.522  1.00  0.00     0.000 HD 
HETATM   21  C   UNL     1     -10.782  15.703  66.218  1.00  0.00    -0.295 C  
HETATM   22  C   UNL     1      -9.954  16.614  69.274  1.00  0.00    -0.222 C  
HETATM   23  C   UNL     1     -10.231  14.786  67.347  1.00  0.00    -0.236 C  
HETATM   24  C   UNL     1     -11.237  16.196  69.968  1.00  0.00    -0.357 C  
HETATM   25  C   UNL     1     -11.466  14.305  68.191  1.00  0.00    -0.336 C  
HETATM   26  H   UNL     1     -11.792  15.309  71.662  1.00  0.00     0.000 HD 
HETATM   27  O   UNL     1     -10.988  15.571  71.227  1.00  0.00    -0.332 OA 
HETATM   28  C   UNL     1     -12.157  15.358  69.099  1.00  0.00    -0.270 C  
ENDROOT
BRANCH   6  29
HETATM   29  C   UNL     1      -8.442   8.000  71.362  1.00  0.00    -0.142 C  
BRANCH  29  30
HETATM   30  C   UNL     1      -8.393   6.569  71.814  1.00  0.00    -0.116 C  
HETATM   31  O   UNL     1      -9.327   6.049  72.413  1.00  0.00    -0.147 OA 
HETATM   32  N   UNL     1      -7.209   5.911  71.531  1.00  0.00    -0.081 N  
HETATM   33  H   UNL     1      -6.486   6.388  70.993  1.00  0.00     0.000 HD 
BRANCH  32  34
HETATM   34  C   UNL     1      -6.981   4.559  71.986  1.00  0.00    -0.055 C  
BRANCH  34  35
HETATM   35  C   UNL     1      -7.404   3.535  70.932  1.00  0.00    -0.037 C  
HETATM   36  S   UNL     1      -5.972   2.834  70.152  1.00  0.00    -0.023 S  
HETATM   37  O   UNL     1      -6.730   1.909  69.066  1.00  0.00    -0.029 OA 
HETATM   38  O   UNL     1      -5.271   1.966  71.067  1.00  0.00    -0.003 OA 
HETATM   39  O   UNL     1      -5.296   3.863  69.390  1.00  0.00    -0.010 OA 
ENDBRANCH  34  35
ENDBRANCH  32  34
ENDBRANCH  29  30
ENDBRANCH   6  29
TORSDOF 4
ENDMDL
MODEL      117
REMARK 921   NORMALIZED FREE ENERGY PREDICTED BY IDOCK:   -3.89 KCAL/MOL
REMARK 922        TOTAL FREE ENERGY PREDICTED BY IDOCK:   -5.62 KCAL/MOL
REMARK 923 INTER-LIGAND FREE ENERGY PREDICTED BY IDOCK:   -5.38 KCAL/MOL
REMARK 924 INTRA-LIGAND FREE ENERGY PREDICTED BY IDOCK:   -0.24 KCAL/MOL
REMARK 927      BINDING AFFINITY PREDICTED BY RF-SCORE:    0.00 PKD
ROOT
HETATM    1  C   UNL     1      -7.085   9.274  67.550  1.00  0.00    -0.079 C  
HETATM    2  C   UNL     1      -6.929   9.405  65.826  1.00  0.00    -0.090 C  
HETATM    3  C   UNL     1      -6.790   7.778  67.467  1.00  0.00    -0.069 C  
HETATM    4  C   UNL     1      -6.375  10.585  65.037  1.00  0.00    -0.048 C  
HETATM    5  C   UNL     1      -5.261   7.842  67.613  1.00  0.00    -0.031 C  
HETATM    6  C   UNL     1      -8.038   8.642  64.943  1.00  0.00    -0.146 C  
HETATM    7  C   UNL     1      -5.238  10.966  68.439  1.00  0.00    -0.040 C  
HETATM    8  C   UNL     1      -5.160   8.298  69.024  1.00  0.00    -0.027 C  
HETATM    9  C   UNL     1      -5.892   7.203  69.961  1.00  0.00    -0.024 C  
HETATM   10  H   UNL     1      -5.885  11.837  70.440  1.00  0.00     0.000 HD 
HETATM   11  O   UNL     1      -6.256  11.222  71.063  1.00  0.00    -0.319 OA 
HETATM   12  C   UNL     1      -5.958   9.678  68.914  1.00  0.00    -0.042 C  
HETATM   13  C   UNL     1      -5.455   5.752  69.691  1.00  0.00    -0.005 C  
HETATM   14  C   UNL     1      -5.997   9.902  70.567  1.00  0.00    -0.078 C  
HETATM   15  C   UNL     1      -6.543   4.859  70.216  1.00  0.00    -0.036 C  
HETATM   16  O   UNL     1      -5.352   5.328  68.340  1.00  0.00    -0.006 OA 
HETATM   17  C   UNL     1      -6.605   8.897  71.584  1.00  0.00    -0.070 C  
HETATM   18  C   UNL     1      -6.586   4.884  71.722  1.00  0.00    -0.032 C  
HETATM   19  C   UNL     1      -6.038   7.469  71.473  1.00  0.00    -0.036 C  
HETATM   20  H   UNL     1      -5.082   4.432  68.174  1.00  0.00     0.000 HD 
HETATM   21  C   UNL     1      -6.423   6.354  73.770  1.00  0.00    -0.070 C  
HETATM   22  C   UNL     1      -7.489   3.704  72.127  1.00  0.00    -0.057 C  
HETATM   23  C   UNL     1      -6.906   6.305  72.292  1.00  0.00    -0.073 C  
HETATM   24  C   UNL     1      -8.978   3.944  72.293  1.00  0.00    -0.109 C  
HETATM   25  C   UNL     1      -8.464   6.498  72.311  1.00  0.00    -0.112 C  
HETATM   26  H   UNL     1     -10.637   3.812  71.201  1.00  0.00     0.000 HD 
HETATM   27  O   UNL     1      -9.705   3.662  71.097  1.00  0.00    -0.175 OA 
HETATM   28  C   UNL     1      -9.319   5.316  72.846  1.00  0.00    -0.147 C  
ENDROOT
BRANCH   6  29
HETATM   29  C   UNL     1      -9.516   8.950  65.112  1.00  0.00     0.098 C  
BRANCH  29  30
HETATM   30  C   UNL     1      -9.812  10.422  65.157  1.00  0.00    -0.313 C  
HETATM   31  O   UNL     1      -9.784  11.053  66.207  1.00  0.00    -0.195 OA 
HETATM   32  N   UNL     1     -10.145  10.986  63.939  1.00  0.00    -0.326 N  
HETATM   33  H   UNL     1     -10.108  10.414  63.094  1.00  0.00     0.000 HD 
BRANCH  32  34
HETATM   34  C   UNL     1     -10.543  12.371  63.842  1.00  0.00    -0.437 C  
BRANCH  34  35
HETATM   35  C   UNL     1     -11.937  12.595  64.429  1.00  0.00    -0.400 C  
HETATM   36  S   UNL     1     -12.170  14.312  64.812  1.00  0.00    -0.428 S  
HETATM   37  O   UNL     1     -13.637  14.203  65.480  1.00  0.00    -0.568 OA 
HETATM   38  O   UNL     1     -12.288  15.090  63.602  1.00  0.00    -0.568 OA 
HETATM   39  O   UNL     1     -11.274  14.683  65.886  1.00  0.00    -0.328 OA 
ENDBRANCH  34  35
ENDBRANCH  32  34
ENDBRANCH  29  30
ENDBRANCH   6  29
TORSDOF 4
ENDMDL
MODEL      118
REMARK 921   NORMALIZED FREE ENERGY PREDICTED BY IDOCK:   -3.80 KCAL/MOL
REMARK 922        TOTAL FREE ENERGY PREDICTED BY IDOCK:   -5.52 KCAL/MOL
REMARK 923 INTER-LIGAND FREE ENERGY PREDICTED BY IDOCK:   -4.86 KCAL/MOL
REMARK 924 INTRA-LIGAND FREE ENERGY PREDICTED BY IDOCK:   -0.66 KCAL/MOL
REMARK 927      BINDING AFFINITY PREDICTED BY RF-SCORE:    0.00 PKD
ROOT
HETATM    1  C   UNL     1     -10.314   7.605  69.732  1.00  0.00    -0.223 C  
HETATM    2  C   UNL     1     -10.778   8.716  70.984  1.00  0.00    -0.284 C  
HETATM    3  C   UNL     1      -9.066   8.437  69.450  1.00  0.00    -0.154 C  
HETATM    4  C   UNL     1     -11.497   8.388  72.287  1.00  0.00    -0.454 C  
HETATM    5  C   UNL     1      -8.104   7.737  70.424  1.00  0.00    -0.115 C  
HETATM    6  C   UNL     1     -11.166  10.206  70.516  1.00  0.00    -0.411 C  
HETATM    7  C   UNL     1     -10.131   5.294  71.033  1.00  0.00    -0.289 C  
HETATM    8  C   UNL     1      -7.989   6.413  69.758  1.00  0.00    -0.119 C  
HETATM    9  C   UNL     1      -7.405   6.648  68.269  1.00  0.00    -0.090 C  
HETATM   10  H   UNL     1     -10.629   3.574  69.628  1.00  0.00     0.000 HD 
HETATM   11  O   UNL     1     -10.250   3.621  68.758  1.00  0.00     0.418 OA 
HETATM   12  C   UNL     1      -9.524   5.972  69.778  1.00  0.00    -0.173 C  
HETATM   13  C   UNL     1      -6.149   7.537  68.219  1.00  0.00    -0.036 C  
HETATM   14  C   UNL     1      -9.263   4.661  68.778  1.00  0.00    -0.129 C  
HETATM   15  C   UNL     1      -6.048   8.080  66.823  1.00  0.00    -0.053 C  
HETATM   16  O   UNL     1      -6.142   8.724  68.998  1.00  0.00    -0.042 OA 
HETATM   17  C   UNL     1      -8.644   4.740  67.355  1.00  0.00    -0.104 C  
HETATM   18  C   UNL     1      -5.686   6.994  65.842  1.00  0.00    -0.031 C  
HETATM   19  C   UNL     1      -7.280   5.454  67.302  1.00  0.00    -0.075 C  
HETATM   20  H   UNL     1      -5.367   9.273  68.968  1.00  0.00     0.000 HD 
HETATM   21  C   UNL     1      -6.093   4.593  65.176  1.00  0.00    -0.030 C  
HETATM   22  C   UNL     1      -5.292   7.726  64.546  1.00  0.00    -0.029 C  
HETATM   23  C   UNL     1      -6.764   5.864  65.771  1.00  0.00    -0.048 C  
HETATM   24  C   UNL     1      -6.364   8.008  63.510  1.00  0.00    -0.071 C  
HETATM   25  C   UNL     1      -7.886   6.305  64.764  1.00  0.00    -0.110 C  
HETATM   26  H   UNL     1      -7.615   9.479  63.026  1.00  0.00     0.000 HD 
HETATM   27  O   UNL     1      -6.944   9.302  63.674  1.00  0.00    -0.090 OA 
HETATM   28  C   UNL     1      -7.425   6.926  63.417  1.00  0.00    -0.088 C  
ENDROOT
BRANCH   6  29
HETATM   29  C   UNL     1     -12.280  10.442  69.510  1.00  0.00    -0.068 C  
BRANCH  29  30
HETATM   30  C   UNL     1     -11.833  11.217  68.304  1.00  0.00    -0.229 C  
HETATM   31  O   UNL     1     -11.037  10.753  67.497  1.00  0.00    -0.290 OA 
HETATM   32  N   UNL     1     -12.363  12.492  68.204  1.00  0.00     0.198 N  
HETATM   33  H   UNL     1     -13.054  12.803  68.887  1.00  0.00     0.000 HD 
BRANCH  32  34
HETATM   34  C   UNL     1     -11.954  13.388  67.147  1.00  0.00    -0.366 C  
BRANCH  34  35
HETATM   35  C   UNL     1     -11.357  14.679  67.708  1.00  0.00    -0.322 C  
HETATM   36  S   UNL     1      -9.750  14.963  67.010  1.00  0.00    -0.242 S  
HETATM   37  O   UNL     1      -9.366  16.290  67.848  1.00  0.00    -0.207 OA 
HETATM   38  O   UNL     1      -9.859  15.330  65.619  1.00  0.00    -0.333 OA 
HETATM   39  O   UNL     1      -8.845  13.931  67.470  1.00  0.00    -0.175 OA 
ENDBRANCH  34  35
ENDBRANCH  32  34
ENDBRANCH  29  30
ENDBRANCH   6  29
TORSDOF 4
ENDMDL
MODEL      119
REMARK 921   NORMALIZED FREE ENERGY PREDICTED BY IDOCK:   -3.69 KCAL/MOL
REMARK 922        TOTAL FREE ENERGY PREDICTED BY IDOCK:   -5.37 KCAL/MOL
REMARK 923 INTER-LIGAND FREE ENERGY PREDICTED BY IDOCK:   -4.67 KCAL/MOL
REMARK 924 INTRA-LIGAND FREE ENERGY PREDICTED BY IDOCK:   -0.70 KCAL/MOL
REMARK 927      BINDING AFFINITY PREDICTED BY RF-SCORE:    0.00 PKD
ROOT
HETATM    1  C   UNL     1      -7.676   6.377  70.635  1.00  0.00    -0.105 C  
HETATM    2  C   UNL     1      -7.938   6.087  72.327  1.00  0.00    -0.102 C  
HETATM    3  C   UNL     1      -8.018   7.853  70.831  1.00  0.00    -0.093 C  
HETATM    4  C   UNL     1      -7.196   5.098  73.218  1.00  0.00    -0.086 C  
HETATM    5  C   UNL     1      -6.603   8.372  71.136  1.00  0.00    -0.050 C  
HETATM    6  C   UNL     1      -9.445   6.268  72.863  1.00  0.00    -0.147 C  
HETATM    7  C   UNL     1      -5.155   5.610  70.288  1.00  0.00    -0.005 C  
HETATM    8  C   UNL     1      -5.969   8.174  69.806  1.00  0.00    -0.029 C  
HETATM    9  C   UNL     1      -6.796   9.038  68.720  1.00  0.00    -0.061 C  
HETATM   10  H   UNL     1      -4.867   4.835  68.167  1.00  0.00     0.000 HD 
HETATM   11  O   UNL     1      -5.271   5.347  67.477  1.00  0.00    -0.004 OA 
HETATM   12  C   UNL     1      -6.167   6.597  69.651  1.00  0.00    -0.041 C  
HETATM   13  C   UNL     1      -7.044  10.500  69.135  1.00  0.00    -0.089 C  
HETATM   14  C   UNL     1      -5.684   6.593  68.054  1.00  0.00    -0.012 C  
HETATM   15  C   UNL     1      -8.214  10.994  68.335  1.00  0.00    -0.137 C  
HETATM   16  O   UNL     1      -7.469  10.751  70.466  1.00  0.00    -0.340 OA 
HETATM   17  C   UNL     1      -6.345   7.431  66.924  1.00  0.00    -0.048 C  
HETATM   18  C   UNL     1      -7.850  11.153  66.881  1.00  0.00    -0.152 C  
HETATM   19  C   UNL     1      -6.427   8.939  67.226  1.00  0.00    -0.061 C  
HETATM   20  H   UNL     1      -7.622  11.653  70.723  1.00  0.00     0.000 HD 
HETATM   21  C   UNL     1      -6.601  10.128  64.940  1.00  0.00    -0.127 C  
HETATM   22  C   UNL     1      -9.000  11.964  66.256  1.00  0.00    -0.157 C  
HETATM   23  C   UNL     1      -7.432   9.802  66.214  1.00  0.00    -0.100 C  
HETATM   24  C   UNL     1     -10.180  11.220  65.658  1.00  0.00    -0.253 C  
HETATM   25  C   UNL     1      -8.730   9.057  65.737  1.00  0.00    -0.197 C  
HETATM   26  H   UNL     1     -11.983  10.591  66.222  1.00  0.00     0.000 HD 
HETATM   27  O   UNL     1     -11.244  11.057  66.596  1.00  0.00    -0.237 OA 
HETATM   28  C   UNL     1      -9.804   9.904  65.002  1.00  0.00    -0.323 C  
ENDROOT
BRANCH   6  29
HETATM   29  C   UNL     1     -10.587   5.466  72.265  1.00  0.00    -0.280 C  
BRANCH  29  30
HETATM   30  C   UNL     1     -11.075   6.018  70.956  1.00  0.00    -0.282 C  
HETATM   31  O   UNL     1     -11.931   6.893  70.904  1.00  0.00    -0.352 OA 
HETATM   32  N   UNL     1     -10.508   5.439  69.834  1.00  0.00    -0.306 N  
HETATM   33  H   UNL     1      -9.770   4.745  69.947  1.00  0.00     0.000 HD 
BRANCH  32  34
HETATM   34  C   UNL     1     -10.946   5.803  68.506  1.00  0.00    -0.098 C  
BRANCH  34  35
HETATM   35  C   UNL     1      -9.792   5.756  67.505  1.00  0.00    -0.130 C  
HETATM   36  S   UNL     1      -9.012   4.162  67.546  1.00  0.00    -0.135 S  
HETATM   37  O   UNL     1      -7.822   4.460  66.495  1.00  0.00    -0.096 OA 
HETATM   38  O   UNL     1      -9.877   3.160  66.969  1.00  0.00     0.036 OA 
HETATM   39  O   UNL     1      -8.369   3.982  68.829  1.00  0.00    -0.077 OA 
ENDBRANCH  34  35
ENDBRANCH  32  34
ENDBRANCH  29  30
ENDBRANCH   6  29
TORSDOF 4
ENDMDL
MODEL      120
REMARK 921   NORMALIZED FREE ENERGY PREDICTED BY IDOCK:   -3.67 KCAL/MOL
REMARK 922        TOTAL FREE ENERGY PREDICTED BY IDOCK:   -5.35 KCAL/MOL
REMARK 923 INTER-LIGAND FREE ENERGY PREDICTED BY IDOCK:   -4.36 KCAL/MOL
REMARK 924 INTRA-LIGAND FREE ENERGY PREDICTED BY IDOCK:   -0.99 KCAL/MOL
REMARK 927      BINDING AFFINITY PREDICTED BY RF-SCORE:    0.00 PKD
ROOT
HETATM    1  C   UNL     1      -8.000   6.032  71.888  1.00  0.00    -0.107 C  
HETATM    2  C   UNL     1      -8.483   5.680  73.519  1.00  0.00    -0.115 C  
HETATM    3  C   UNL     1      -7.774   7.494  72.267  1.00  0.00    -0.099 C  
HETATM    4  C   UNL     1      -8.242   4.391  74.294  1.00  0.00    -0.091 C  
HETATM    5  C   UNL     1      -6.296   7.393  72.680  1.00  0.00    -0.055 C  
HETATM    6  C   UNL     1      -9.847   6.366  74.029  1.00  0.00    -0.275 C  
HETATM    7  C   UNL     1      -5.936   4.399  71.520  1.00  0.00    -0.017 C  
HETATM    8  C   UNL     1      -5.681   7.114  71.355  1.00  0.00    -0.036 C  
HETATM    9  C   UNL     1      -6.034   8.343  70.368  1.00  0.00    -0.028 C  
HETATM   10  H   UNL     1      -5.796   3.810  69.326  1.00  0.00     0.000 HD 
HETATM   11  O   UNL     1      -5.922   4.510  68.697  1.00  0.00    -0.024 OA 
HETATM   12  C   UNL     1      -6.447   5.761  70.988  1.00  0.00    -0.040 C  
HETATM   13  C   UNL     1      -5.743   9.733  70.964  1.00  0.00    -0.076 C  
HETATM   14  C   UNL     1      -5.878   5.748  69.420  1.00  0.00    -0.016 C  
HETATM   15  C   UNL     1      -6.574  10.723  70.200  1.00  0.00    -0.144 C  
HETATM   16  O   UNL     1      -6.146   9.981  72.303  1.00  0.00    -0.165 OA 
HETATM   17  C   UNL     1      -6.083   6.894  68.391  1.00  0.00    -0.029 C  
HETATM   18  C   UNL     1      -6.064  10.889  68.791  1.00  0.00    -0.039 C  
HETATM   19  C   UNL     1      -5.614   8.275  68.885  1.00  0.00    -0.039 C  
HETATM   20  H   UNL     1      -5.966  10.838  72.671  1.00  0.00     0.000 HD 
HETATM   21  C   UNL     1      -5.147   9.682  66.771  1.00  0.00    -0.040 C  
HETATM   22  C   UNL     1      -6.770  12.143  68.243  1.00  0.00    -0.063 C  
HETATM   23  C   UNL     1      -6.136   9.563  67.965  1.00  0.00    -0.052 C  
HETATM   24  C   UNL     1      -8.093  11.979  67.518  1.00  0.00    -0.159 C  
HETATM   25  C   UNL     1      -7.578   9.431  67.356  1.00  0.00    -0.095 C  
HETATM   26  H   UNL     1     -10.038  12.034  67.939  1.00  0.00     0.000 HD 
HETATM   27  O   UNL     1      -9.210  12.136  68.393  1.00  0.00    -0.192 OA 
HETATM   28  C   UNL     1      -8.192  10.701  66.705  1.00  0.00    -0.130 C  
ENDROOT
BRANCH   6  29
HETATM   29  C   UNL     1     -11.157   6.136  73.295  1.00  0.00    -0.160 C  
BRANCH  29  30
HETATM   30  C   UNL     1     -11.184   6.749  71.925  1.00  0.00    -0.260 C  
HETATM   31  O   UNL     1     -11.158   7.963  71.761  1.00  0.00    -0.240 OA 
HETATM   32  N   UNL     1     -11.272   5.841  70.884  1.00  0.00    -0.203 N  
HETATM   33  H   UNL     1     -11.246   4.842  71.086  1.00  0.00     0.000 HD 
BRANCH  32  34
HETATM   34  C   UNL     1     -11.398   6.287  69.516  1.00  0.00    -0.404 C  
BRANCH  34  35
HETATM   35  C   UNL     1     -10.060   6.222  68.780  1.00  0.00    -0.161 C  
HETATM   36  S   UNL     1     -10.315   6.373  67.030  1.00  0.00    -0.274 S  
HETATM   37  O   UNL     1      -8.785   6.172  66.555  1.00  0.00    -0.124 OA 
HETATM   38  O   UNL     1     -10.715   7.718  66.691  1.00  0.00    -0.231 OA 
HETATM   39  O   UNL     1     -11.032   5.210  66.555  1.00  0.00    -0.178 OA 
ENDBRANCH  34  35
ENDBRANCH  32  34
ENDBRANCH  29  30
ENDBRANCH   6  29
TORSDOF 4
ENDMDL
MODEL      121
REMARK 921   NORMALIZED FREE ENERGY PREDICTED BY IDOCK:   -3.64 KCAL/MOL
REMARK 922        TOTAL FREE ENERGY PREDICTED BY IDOCK:   -5.32 KCAL/MOL
REMARK 923 INTER-LIGAND FREE ENERGY PREDICTED BY IDOCK:   -4.78 KCAL/MOL
REMARK 924 INTRA-LIGAND FREE ENERGY PREDICTED BY IDOCK:   -0.54 KCAL/MOL
REMARK 927      BINDING AFFINITY PREDICTED BY RF-SCORE:    0.00 PKD
ROOT
HETATM    1  C   UNL     1      -8.096   8.318  69.333  1.00  0.00    -0.115 C  
HETATM    2  C   UNL     1      -7.653   8.241  71.011  1.00  0.00    -0.081 C  
HETATM    3  C   UNL     1      -8.175   9.840  69.420  1.00  0.00    -0.135 C  
HETATM    4  C   UNL     1      -6.709   7.243  71.669  1.00  0.00    -0.051 C  
HETATM    5  C   UNL     1      -6.719  10.162  69.046  1.00  0.00    -0.054 C  
HETATM    6  C   UNL     1      -8.770   8.706  72.072  1.00  0.00    -0.235 C  
HETATM    7  C   UNL     1      -6.044   7.139  68.126  1.00  0.00    -0.034 C  
HETATM    8  C   UNL     1      -6.723   9.737  67.621  1.00  0.00    -0.069 C  
HETATM    9  C   UNL     1      -7.838  10.606  66.840  1.00  0.00    -0.121 C  
HETATM   10  H   UNL     1      -6.750   6.121  66.216  1.00  0.00     0.000 HD 
HETATM   11  O   UNL     1      -7.352   6.618  65.676  1.00  0.00    -0.071 OA 
HETATM   12  C   UNL     1      -7.125   8.202  67.805  1.00  0.00    -0.087 C  
HETATM   13  C   UNL     1      -7.742  12.123  67.088  1.00  0.00    -0.151 C  
HETATM   14  C   UNL     1      -7.358   7.964  66.170  1.00  0.00    -0.074 C  
HETATM   15  C   UNL     1      -9.084  12.710  66.760  1.00  0.00    -0.214 C  
HETATM   16  O   UNL     1      -7.543  12.568  68.422  1.00  0.00    -0.118 OA 
HETATM   17  C   UNL     1      -8.345   8.778  65.287  1.00  0.00    -0.168 C  
HETATM   18  C   UNL     1      -9.349  12.666  65.277  1.00  0.00     0.320 C  
HETATM   19  C   UNL     1      -8.142  10.303  65.359  1.00  0.00    -0.147 C  
HETATM   20  H   UNL     1      -7.483  13.504  68.575  1.00  0.00     0.000 HD 
HETATM   21  C   UNL     1      -9.138  11.271  63.182  1.00  0.00    -0.209 C  
HETATM   22  C   UNL     1     -10.567  13.579  65.049  1.00  0.00    -0.382 C  
HETATM   23  C   UNL     1      -9.386  11.206  64.715  1.00  0.00    -0.209 C  
HETATM   24  C   UNL     1     -11.957  12.971  65.099  1.00  0.00    -0.402 C  
HETATM   25  C   UNL     1     -10.832  10.628  64.922  1.00  0.00     0.078 C  
HETATM   26  H   UNL     1     -13.411  12.688  66.429  1.00  0.00     0.000 HD 
HETATM   27  O   UNL     1     -12.541  13.069  66.398  1.00  0.00    -0.343 OA 
HETATM   28  C   UNL     1     -12.025  11.554  64.559  1.00  0.00     0.043 C  
ENDROOT
BRANCH   6  29
HETATM   29  C   UNL     1     -10.132   8.036  72.115  1.00  0.00    -0.298 C  
BRANCH  29  30
HETATM   30  C   UNL     1     -10.699   7.762  70.753  1.00  0.00    -0.226 C  
HETATM   31  O   UNL     1     -11.309   8.620  70.124  1.00  0.00    -0.202 OA 
HETATM   32  N   UNL     1     -10.508   6.472  70.291  1.00  0.00    -0.207 N  
HETATM   33  H   UNL     1      -9.955   5.818  70.845  1.00  0.00     0.000 HD 
BRANCH  32  34
HETATM   34  C   UNL     1     -11.078   6.037  69.037  1.00  0.00    -0.307 C  
BRANCH  34  35
HETATM   35  C   UNL     1      -9.996   5.567  68.064  1.00  0.00    -0.149 C  
HETATM   36  S   UNL     1      -9.019   4.286  68.809  1.00  0.00    -0.123 S  
HETATM   37  O   UNL     1      -7.949   4.088  67.615  1.00  0.00    -0.089 OA 
HETATM   38  O   UNL     1      -9.786   3.069  68.927  1.00  0.00    -0.076 OA 
HETATM   39  O   UNL     1      -8.274   4.842  69.918  1.00  0.00    -0.072 OA 
ENDBRANCH  34  35
ENDBRANCH  32  34
ENDBRANCH  29  30
ENDBRANCH   6  29
TORSDOF 4
ENDMDL
MODEL      122
REMARK 921   NORMALIZED FREE ENERGY PREDICTED BY IDOCK:   -3.58 KCAL/MOL
REMARK 922        TOTAL FREE ENERGY PREDICTED BY IDOCK:   -5.24 KCAL/MOL
REMARK 923 INTER-LIGAND FREE ENERGY PREDICTED BY IDOCK:   -5.87 KCAL/MOL
REMARK 924 INTRA-LIGAND FREE ENERGY PREDICTED BY IDOCK:    0.63 KCAL/MOL
REMARK 927      BINDING AFFINITY PREDICTED BY RF-SCORE:    0.00 PKD
ROOT
HETATM    1  C   UNL     1     -10.072  14.316  67.583  1.00  0.00    -0.229 C  
HETATM    2  C   UNL     1      -9.810  15.933  68.158  1.00  0.00    -0.214 C  
HETATM    3  C   UNL     1      -8.576  14.164  67.318  1.00  0.00    -0.231 C  
HETATM    4  C   UNL     1     -10.568  16.650  69.269  1.00  0.00    -0.343 C  
HETATM    5  C   UNL     1      -8.161  13.605  68.688  1.00  0.00    -0.071 C  
HETATM    6  C   UNL     1      -9.299  17.009  67.075  1.00  0.00    -0.249 C  
HETATM    7  C   UNL     1     -11.201  13.122  69.672  1.00  0.00    -0.088 C  
HETATM    8  C   UNL     1      -8.821  12.274  68.631  1.00  0.00     0.022 C  
HETATM    9  C   UNL     1      -8.230  11.474  67.358  1.00  0.00    -0.149 C  
HETATM   10  H   UNL     1     -12.604  11.478  68.959  1.00  0.00     0.000 HD 
HETATM   11  O   UNL     1     -12.278  10.925  68.258  1.00  0.00    -0.526 OA 
HETATM   12  C   UNL     1     -10.338  12.740  68.443  1.00  0.00    -0.248 C  
HETATM   13  C   UNL     1      -6.692  11.465  67.279  1.00  0.00    -0.111 C  
HETATM   14  C   UNL     1     -10.876  11.194  68.118  1.00  0.00    -0.219 C  
HETATM   15  C   UNL     1      -6.326  11.177  65.852  1.00  0.00     0.053 C  
HETATM   16  O   UNL     1      -6.006  12.684  67.519  1.00  0.00    -0.133 OA 
HETATM   17  C   UNL     1     -10.343  10.291  66.973  1.00  0.00    -0.299 C  
HETATM   18  C   UNL     1      -6.653   9.752  65.483  1.00  0.00    -0.085 C  
HETATM   19  C   UNL     1      -8.814  10.097  66.984  1.00  0.00    -0.144 C  
HETATM   20  H   UNL     1      -5.057  12.678  67.472  1.00  0.00     0.000 HD 
HETATM   21  C   UNL     1      -8.353   7.898  65.711  1.00  0.00    -0.139 C  
HETATM   22  C   UNL     1      -5.936   9.498  64.145  1.00  0.00    -0.082 C  
HETATM   23  C   UNL     1      -8.181   9.439  65.590  1.00  0.00    -0.121 C  
HETATM   24  C   UNL     1      -6.679   9.779  62.852  1.00  0.00    -0.110 C  
HETATM   25  C   UNL     1      -8.876   9.874  64.249  1.00  0.00    -0.252 C  
HETATM   26  H   UNL     1      -6.892  11.270  61.550  1.00  0.00     0.000 HD 
HETATM   27  O   UNL     1      -6.427  11.095  62.360  1.00  0.00    -0.026 OA 
HETATM   28  C   UNL     1      -8.166   9.483  62.924  1.00  0.00    -0.158 C  
ENDROOT
BRANCH   6  29
HETATM   29  C   UNL     1     -10.102  17.289  65.817  1.00  0.00    -0.159 C  
BRANCH  29  30
HETATM   30  C   UNL     1     -10.538  16.042  65.103  1.00  0.00    -0.370 C  
HETATM   31  O   UNL     1      -9.729  15.272  64.598  1.00  0.00     0.043 OA 
HETATM   32  N   UNL     1     -11.907  15.859  65.036  1.00  0.00     0.192 N  
HETATM   33  H   UNL     1     -12.525  16.515  65.514  1.00  0.00     0.000 HD 
BRANCH  32  34
HETATM   34  C   UNL     1     -12.477  14.753  64.302  1.00  0.00    -0.197 C  
BRANCH  34  35
HETATM   35  C   UNL     1     -12.165  13.416  64.974  1.00  0.00    -0.424 C  
HETATM   36  S   UNL     1     -11.991  12.142  63.750  1.00  0.00    -0.530 S  
HETATM   37  O   UNL     1     -11.777  10.890  64.748  1.00  0.00     0.532 OA 
HETATM   38  O   UNL     1     -10.773  12.326  62.998  1.00  0.00    -0.266 OA 
HETATM   39  O   UNL     1     -13.270  11.922  63.111  1.00  0.00    -0.539 OA 
ENDBRANCH  34  35
ENDBRANCH  32  34
ENDBRANCH  29  30
ENDBRANCH   6  29
TORSDOF 4
ENDMDL
MODEL      123
REMARK 921   NORMALIZED FREE ENERGY PREDICTED BY IDOCK:   -3.56 KCAL/MOL
REMARK 922        TOTAL FREE ENERGY PREDICTED BY IDOCK:   -5.22 KCAL/MOL
REMARK 923 INTER-LIGAND FREE ENERGY PREDICTED BY IDOCK:   -4.30 KCAL/MOL
REMARK 924 INTRA-LIGAND FREE ENERGY PREDICTED BY IDOCK:   -0.91 KCAL/MOL
REMARK 927      BINDING AFFINITY PREDICTED BY RF-SCORE:    0.00 PKD
ROOT
HETATM    1  C   UNL     1     -11.603  11.303  68.430  1.00  0.00    -0.378 C  
HETATM    2  C   UNL     1     -11.417  12.835  67.633  1.00  0.00    -0.387 C  
HETATM    3  C   UNL     1     -10.101  11.056  68.313  1.00  0.00    -0.191 C  
HETATM    4  C   UNL     1     -12.211  14.110  67.891  1.00  0.00    -0.190 C  
HETATM    5  C   UNL     1      -9.665  11.692  69.643  1.00  0.00     1.012 C  
HETATM    6  C   UNL     1     -10.953  12.793  66.092  1.00  0.00    -0.310 C  
HETATM    7  C   UNL     1     -12.682  11.979  70.763  1.00  0.00    -0.231 C  
HETATM    8  C   UNL     1     -10.263  10.720  70.597  1.00  0.00     1.333 C  
HETATM    9  C   UNL     1      -9.631   9.264  70.294  1.00  0.00    -0.276 C  
HETATM   10  H   UNL     1     -14.006  10.290  71.522  1.00  0.00     0.000 HD 
HETATM   11  O   UNL     1     -13.652   9.412  71.438  1.00  0.00    -0.373 OA 
HETATM   12  C   UNL     1     -11.799  10.849  70.176  1.00  0.00    -0.438 C  
HETATM   13  C   UNL     1      -8.095   9.252  70.199  1.00  0.00    -0.145 C  
HETATM   14  C   UNL     1     -12.264   9.541  71.101  1.00  0.00    -0.338 C  
HETATM   15  C   UNL     1      -7.711   8.025  69.424  1.00  0.00    -0.104 C  
HETATM   16  O   UNL     1      -7.466  10.282  69.450  1.00  0.00    -0.099 OA 
HETATM   17  C   UNL     1     -11.686   8.105  70.962  1.00  0.00    -0.295 C  
HETATM   18  C   UNL     1      -7.971   6.774  70.223  1.00  0.00    -0.115 C  
HETATM   19  C   UNL     1     -10.150   8.033  71.064  1.00  0.00    -0.213 C  
HETATM   20  H   UNL     1      -6.518  10.275  69.392  1.00  0.00     0.000 HD 
HETATM   21  C   UNL     1      -9.584   5.620  71.787  1.00  0.00    -0.184 C  
HETATM   22  C   UNL     1      -7.239   5.646  69.473  1.00  0.00    -0.066 C  
HETATM   23  C   UNL     1      -9.484   6.586  70.573  1.00  0.00    -0.173 C  
HETATM   24  C   UNL     1      -7.990   4.867  68.409  1.00  0.00    -0.085 C  
HETATM   25  C   UNL     1     -10.193   5.880  69.363  1.00  0.00    -0.284 C  
HETATM   26  H   UNL     1      -8.268   4.925  66.439  1.00  0.00     0.000 HD 
HETATM   27  O   UNL     1      -7.797   5.413  67.105  1.00  0.00    -0.099 OA 
HETATM   28  C   UNL     1      -9.462   4.668  68.722  1.00  0.00    -0.214 C  
ENDROOT
BRANCH   6  29
HETATM   29  C   UNL     1     -11.764  12.037  65.054  1.00  0.00    -0.316 C  
BRANCH  29  30
HETATM   30  C   UNL     1     -10.918  11.411  63.984  1.00  0.00    -0.355 C  
HETATM   31  O   UNL     1     -11.214  11.492  62.798  1.00  0.00     0.193 OA 
HETATM   32  N   UNL     1      -9.813  10.719  64.447  1.00  0.00    -0.287 N  
HETATM   33  H   UNL     1      -9.599  10.725  65.444  1.00  0.00     0.000 HD 
BRANCH  32  34
HETATM   34  C   UNL     1      -8.958   9.987  63.541  1.00  0.00    -0.256 C  
BRANCH  34  35
HETATM   35  C   UNL     1      -8.306   8.789  64.231  1.00  0.00    -0.151 C  
HETATM   36  S   UNL     1      -6.626   9.168  64.658  1.00  0.00    -0.076 S  
HETATM   37  O   UNL     1      -6.206   7.726  65.251  1.00  0.00    -0.038 OA 
HETATM   38  O   UNL     1      -6.580  10.125  65.737  1.00  0.00    -0.093 OA 
HETATM   39  O   UNL     1      -5.855   9.334  63.444  1.00  0.00    -0.085 OA 
ENDBRANCH  34  35
ENDBRANCH  32  34
ENDBRANCH  29  30
ENDBRANCH   6  29
TORSDOF 4
ENDMDL
MODEL      124
REMARK 921   NORMALIZED FREE ENERGY PREDICTED BY IDOCK:   -3.50 KCAL/MOL
REMARK 922        TOTAL FREE ENERGY PREDICTED BY IDOCK:   -5.14 KCAL/MOL
REMARK 923 INTER-LIGAND FREE ENERGY PREDICTED BY IDOCK:   -5.34 KCAL/MOL
REMARK 924 INTRA-LIGAND FREE ENERGY PREDICTED BY IDOCK:    0.20 KCAL/MOL
REMARK 927      BINDING AFFINITY PREDICTED BY RF-SCORE:    0.00 PKD
ROOT
HETATM    1  C   UNL     1     -11.070  13.524  68.333  1.00  0.00    -0.298 C  
HETATM    2  C   UNL     1     -12.028  14.212  69.608  1.00  0.00    -0.389 C  
HETATM    3  C   UNL     1     -10.817  12.284  69.188  1.00  0.00    -0.149 C  
HETATM    4  C   UNL     1     -13.258  15.099  69.460  1.00  0.00     0.908 C  
HETATM    5  C   UNL     1     -12.022  11.447  68.730  1.00  0.00    -0.353 C  
HETATM    6  C   UNL     1     -11.252  14.591  70.967  1.00  0.00     0.105 C  
HETATM    7  C   UNL     1     -12.775  13.435  66.297  1.00  0.00    -0.059 C  
HETATM    8  C   UNL     1     -11.624  11.179  67.322  1.00  0.00    -0.098 C  
HETATM    9  C   UNL     1     -10.212  10.395  67.339  1.00  0.00    -0.259 C  
HETATM   10  H   UNL     1     -11.646  13.651  64.332  1.00  0.00     0.000 HD 
HETATM   11  O   UNL     1     -10.841  13.151  64.256  1.00  0.00    -0.374 OA 
HETATM   12  C   UNL     1     -11.514  12.681  66.789  1.00  0.00    -0.410 C  
HETATM   13  C   UNL     1     -10.175   9.184  68.289  1.00  0.00    -0.206 C  
HETATM   14  C   UNL     1     -10.809  12.222  65.348  1.00  0.00    -0.286 C  
HETATM   15  C   UNL     1      -8.732   8.903  68.591  1.00  0.00    -0.134 C  
HETATM   16  O   UNL     1     -10.724   9.341  69.589  1.00  0.00    -0.226 OA 
HETATM   17  C   UNL     1      -9.493  11.405  65.223  1.00  0.00    -0.233 C  
HETATM   18  C   UNL     1      -8.020   8.356  67.380  1.00  0.00    -0.106 C  
HETATM   19  C   UNL     1      -9.499  10.079  66.008  1.00  0.00    -0.251 C  
HETATM   20  H   UNL     1     -10.702   8.593  70.175  1.00  0.00     0.000 HD 
HETATM   21  C   UNL     1      -7.744   8.560  64.878  1.00  0.00    -0.105 C  
HETATM   22  C   UNL     1      -6.680   7.808  67.904  1.00  0.00    -0.067 C  
HETATM   23  C   UNL     1      -8.005   9.363  66.184  1.00  0.00    -0.110 C  
HETATM   24  C   UNL     1      -5.473   8.728  67.933  1.00  0.00    -0.035 C  
HETATM   25  C   UNL     1      -6.792  10.343  66.370  1.00  0.00    -0.112 C  
HETATM   26  H   UNL     1      -4.568   9.956  69.212  1.00  0.00     0.000 HD 
HETATM   27  O   UNL     1      -5.323   9.380  69.194  1.00  0.00    -0.036 OA 
HETATM   28  C   UNL     1      -5.431   9.717  66.782  1.00  0.00    -0.045 C  
ENDROOT
BRANCH   6  29
HETATM   29  C   UNL     1     -10.078  15.554  70.952  1.00  0.00     0.730 C  
BRANCH  29  30
HETATM   30  C   UNL     1      -9.384  15.620  69.623  1.00  0.00    -0.217 C  
HETATM   31  O   UNL     1      -8.559  14.779  69.284  1.00  0.00    -0.135 OA 
HETATM   32  N   UNL     1      -9.725  16.709  68.841  1.00  0.00    -0.248 N  
HETATM   33  H   UNL     1     -10.450  17.350  69.163  1.00  0.00     0.000 HD 
BRANCH  32  34
HETATM   34  C   UNL     1      -9.070  16.954  67.577  1.00  0.00    -0.222 C  
BRANCH  34  35
HETATM   35  C   UNL     1      -9.950  17.786  66.644  1.00  0.00    -0.338 C  
HETATM   36  S   UNL     1      -9.293  19.428  66.486  1.00  0.00    -0.374 S  
HETATM   37  O   UNL     1     -10.457  20.055  65.559  1.00  0.00    -0.423 OA 
HETATM   38  O   UNL     1      -8.071  19.413  65.720  1.00  0.00    -0.436 OA 
HETATM   39  O   UNL     1      -9.398  20.104  67.762  1.00  0.00    -0.350 OA 
ENDBRANCH  34  35
ENDBRANCH  32  34
ENDBRANCH  29  30
ENDBRANCH   6  29
TORSDOF 4
ENDMDL
MODEL      125
REMARK 921   NORMALIZED FREE ENERGY PREDICTED BY IDOCK:   -3.47 KCAL/MOL
REMARK 922        TOTAL FREE ENERGY PREDICTED BY IDOCK:   -5.11 KCAL/MOL
REMARK 923 INTER-LIGAND FREE ENERGY PREDICTED BY IDOCK:   -4.05 KCAL/MOL
REMARK 924 INTRA-LIGAND FREE ENERGY PREDICTED BY IDOCK:   -1.05 KCAL/MOL
REMARK 927      BINDING AFFINITY PREDICTED BY RF-SCORE:    0.00 PKD
ROOT
HETATM    1  C   UNL     1     -10.486  11.304  69.612  1.00  0.00     0.081 C  
HETATM    2  C   UNL     1     -12.090  11.566  70.223  1.00  0.00    -0.444 C  
HETATM    3  C   UNL     1     -11.042  10.360  68.548  1.00  0.00    -0.318 C  
HETATM    4  C   UNL     1     -12.650  12.851  70.820  1.00  0.00    -0.314 C  
HETATM    5  C   UNL     1     -11.292  11.394  67.438  1.00  0.00    -0.359 C  
HETATM    6  C   UNL     1     -12.820  10.298  70.895  1.00  0.00    -0.463 C  
HETATM    7  C   UNL     1      -9.695  13.756  68.960  1.00  0.00     0.135 C  
HETATM    8  C   UNL     1      -9.888  11.756  67.108  1.00  0.00    -0.207 C  
HETATM    9  C   UNL     1      -9.122  10.416  66.633  1.00  0.00    -0.169 C  
HETATM   10  H   UNL     1      -7.436  13.927  69.188  1.00  0.00     0.000 HD 
HETATM   11  O   UNL     1      -6.927  13.197  68.857  1.00  0.00    -0.101 OA 
HETATM   12  C   UNL     1      -9.411  12.293  68.535  1.00  0.00    -0.101 C  
HETATM   13  C   UNL     1      -9.875   9.604  65.564  1.00  0.00    -0.281 C  
HETATM   14  C   UNL     1      -7.808  12.378  68.077  1.00  0.00    -0.141 C  
HETATM   15  C   UNL     1      -9.342   8.202  65.617  1.00  0.00     0.032 C  
HETATM   16  O   UNL     1     -11.268   9.397  65.745  1.00  0.00     1.397 OA 
HETATM   17  C   UNL     1      -6.975  11.184  67.536  1.00  0.00    -0.088 C  
HETATM   18  C   UNL     1      -7.928   8.138  65.099  1.00  0.00    -0.126 C  
HETATM   19  C   UNL     1      -7.611  10.469  66.328  1.00  0.00    -0.133 C  
HETATM   20  H   UNL     1     -11.734   8.897  65.084  1.00  0.00     0.000 HD 
HETATM   21  C   UNL     1      -5.679   9.289  65.085  1.00  0.00    -0.058 C  
HETATM   22  C   UNL     1      -7.632   6.641  64.894  1.00  0.00    -0.101 C  
HETATM   23  C   UNL     1      -6.935   8.992  65.954  1.00  0.00    -0.088 C  
HETATM   24  C   UNL     1      -7.022   5.853  66.038  1.00  0.00    -0.062 C  
HETATM   25  C   UNL     1      -6.455   8.127  67.174  1.00  0.00    -0.057 C  
HETATM   26  H   UNL     1      -7.632   4.716  67.554  1.00  0.00     0.000 HD 
HETATM   27  O   UNL     1      -8.014   5.210  66.838  1.00  0.00    -0.103 OA 
HETATM   28  C   UNL     1      -6.052   6.655  66.886  1.00  0.00    -0.035 C  
ENDROOT
BRANCH   6  29
HETATM   29  C   UNL     1     -12.192   9.569  72.069  1.00  0.00    -0.370 C  
BRANCH  29  30
HETATM   30  C   UNL     1     -11.183   8.537  71.654  1.00  0.00    -0.292 C  
HETATM   31  O   UNL     1     -11.503   7.544  71.011  1.00  0.00    -0.268 OA 
HETATM   32  N   UNL     1      -9.890   8.784  72.080  1.00  0.00    -0.319 N  
HETATM   33  H   UNL     1      -9.682   9.651  72.575  1.00  0.00     0.000 HD 
BRANCH  32  34
HETATM   34  C   UNL     1      -8.830   7.834  71.834  1.00  0.00    -0.121 C  
BRANCH  34  35
HETATM   35  C   UNL     1      -7.695   7.988  72.846  1.00  0.00    -0.134 C  
HETATM   36  S   UNL     1      -6.250   8.641  72.050  1.00  0.00    -0.072 S  
HETATM   37  O   UNL     1      -5.245   8.588  73.315  1.00  0.00    -0.046 OA 
HETATM   38  O   UNL     1      -6.449  10.026  71.696  1.00  0.00    -0.291 OA 
HETATM   39  O   UNL     1      -5.747   7.665  71.107  1.00  0.00    -0.034 OA 
ENDBRANCH  34  35
ENDBRANCH  32  34
ENDBRANCH  29  30
ENDBRANCH   6  29
TORSDOF 4
ENDMDL
MODEL      126
REMARK 921   NORMALIZED FREE ENERGY PREDICTED BY IDOCK:   -3.31 KCAL/MOL
REMARK 922        TOTAL FREE ENERGY PREDICTED BY IDOCK:   -4.91 KCAL/MOL
REMARK 923 INTER-LIGAND FREE ENERGY PREDICTED BY IDOCK:   -5.34 KCAL/MOL
REMARK 924 INTRA-LIGAND FREE ENERGY PREDICTED BY IDOCK:    0.43 KCAL/MOL
REMARK 927      BINDING AFFINITY PREDICTED BY RF-SCORE:    0.00 PKD
ROOT
HETATM    1  C   UNL     1      -8.888   6.690  68.703  1.00  0.00    -0.122 C  
HETATM    2  C   UNL     1      -8.378   5.189  67.993  1.00  0.00    -0.097 C  
HETATM    3  C   UNL     1      -8.695   7.394  67.361  1.00  0.00    -0.121 C  
HETATM    4  C   UNL     1      -8.881   3.791  68.333  1.00  0.00    -0.150 C  
HETATM    5  C   UNL     1     -10.108   7.186  66.793  1.00  0.00    -0.278 C  
HETATM    6  C   UNL     1      -6.845   5.106  67.509  1.00  0.00    -0.057 C  
HETATM    7  C   UNL     1     -11.328   6.124  69.590  1.00  0.00    -0.442 C  
HETATM    8  C   UNL     1     -10.882   8.059  67.714  1.00  0.00    -0.081 C  
HETATM    9  C   UNL     1     -10.307   9.563  67.584  1.00  0.00    -0.299 C  
HETATM   10  H   UNL     1     -11.798   7.388  71.424  1.00  0.00     0.000 HD 
HETATM   11  O   UNL     1     -11.548   8.304  71.375  1.00  0.00    -0.264 OA 
HETATM   12  C   UNL     1     -10.527   7.358  69.104  1.00  0.00    -0.217 C  
HETATM   13  C   UNL     1     -10.176  10.065  66.134  1.00  0.00    -0.213 C  
HETATM   14  C   UNL     1     -11.209   8.582  70.010  1.00  0.00    -0.086 C  
HETATM   15  C   UNL     1      -9.183  11.191  66.145  1.00  0.00    -0.216 C  
HETATM   16  O   UNL     1      -9.613   9.184  65.173  1.00  0.00    -0.456 OA 
HETATM   17  C   UNL     1     -10.800  10.079  69.930  1.00  0.00    -0.328 C  
HETATM   18  C   UNL     1      -9.748  12.407  66.832  1.00  0.00    -0.217 C  
HETATM   19  C   UNL     1     -10.852  10.671  68.508  1.00  0.00    -0.275 C  
HETATM   20  H   UNL     1      -9.533   9.493  64.278  1.00  0.00     0.000 HD 
HETATM   21  C   UNL     1     -11.112  13.224  68.795  1.00  0.00    -0.303 C  
HETATM   22  C   UNL     1      -8.789  13.560  66.482  1.00  0.00     0.005 C  
HETATM   23  C   UNL     1     -10.092  12.144  68.335  1.00  0.00    -0.210 C  
HETATM   24  C   UNL     1      -7.619  13.845  67.406  1.00  0.00    -0.142 C  
HETATM   25  C   UNL     1      -8.790  12.349  69.189  1.00  0.00     0.665 C  
HETATM   26  H   UNL     1      -5.698  13.347  67.572  1.00  0.00     0.000 HD 
HETATM   27  O   UNL     1      -6.431  13.169  66.994  1.00  0.00    -0.145 OA 
HETATM   28  C   UNL     1      -7.923  13.599  68.872  1.00  0.00     0.061 C  
ENDROOT
BRANCH   6  29
HETATM   29  C   UNL     1      -5.706   5.353  68.482  1.00  0.00    -0.016 C  
BRANCH  29  30
HETATM   30  C   UNL     1      -6.037   6.373  69.533  1.00  0.00    -0.029 C  
HETATM   31  O   UNL     1      -6.286   7.538  69.246  1.00  0.00    -0.033 OA 
HETATM   32  N   UNL     1      -6.004   5.900  70.833  1.00  0.00    -0.028 N  
HETATM   33  H   UNL     1      -5.832   4.909  71.002  1.00  0.00     0.000 HD 
BRANCH  32  34
HETATM   34  C   UNL     1      -6.212   6.787  71.955  1.00  0.00    -0.038 C  
BRANCH  34  35
HETATM   35  C   UNL     1      -7.629   6.662  72.512  1.00  0.00    -0.097 C  
HETATM   36  S   UNL     1      -8.207   8.243  73.073  1.00  0.00    -0.130 S  
HETATM   37  O   UNL     1      -9.631   7.770  73.673  1.00  0.00    -0.286 OA 
HETATM   38  O   UNL     1      -8.463   9.116  71.952  1.00  0.00    -0.334 OA 
HETATM   39  O   UNL     1      -7.418   8.659  74.213  1.00  0.00    -0.364 OA 
ENDBRANCH  34  35
ENDBRANCH  32  34
ENDBRANCH  29  30
ENDBRANCH   6  29
TORSDOF 4
ENDMDL
MODEL      127
REMARK 921   NORMALIZED FREE ENERGY PREDICTED BY IDOCK:   -3.28 KCAL/MOL
REMARK 922        TOTAL FREE ENERGY PREDICTED BY IDOCK:   -4.87 KCAL/MOL
REMARK 923 INTER-LIGAND FREE ENERGY PREDICTED BY IDOCK:   -3.51 KCAL/MOL
REMARK 924 INTRA-LIGAND FREE ENERGY PREDICTED BY IDOCK:   -1.36 KCAL/MOL
REMARK 927      BINDING AFFINITY PREDICTED BY RF-SCORE:    0.00 PKD
ROOT
HETATM    1  C   UNL     1      -8.036   7.842  69.719  1.00  0.00    -0.115 C  
HETATM    2  C   UNL     1      -7.125   8.470  71.058  1.00  0.00    -0.068 C  
HETATM    3  C   UNL     1      -6.769   7.206  69.151  1.00  0.00    -0.049 C  
HETATM    4  C   UNL     1      -7.603   8.652  72.493  1.00  0.00    -0.005 C  
HETATM    5  C   UNL     1      -6.868   5.842  69.854  1.00  0.00    -0.064 C  
HETATM    6  C   UNL     1      -6.017   9.586  70.714  1.00  0.00    -0.071 C  
HETATM    7  C   UNL     1      -9.880   6.345  70.911  1.00  0.00    -0.204 C  
HETATM    8  C   UNL     1      -8.064   5.288  69.165  1.00  0.00    -0.089 C  
HETATM    9  C   UNL     1      -7.747   5.221  67.582  1.00  0.00    -0.092 C  
HETATM   10  H   UNL     1     -11.776   6.304  69.653  1.00  0.00     0.000 HD 
HETATM   11  O   UNL     1     -11.654   6.191  68.717  1.00  0.00    -0.110 OA 
HETATM   12  C   UNL     1      -9.135   6.408  69.554  1.00  0.00    -0.138 C  
HETATM   13  C   UNL     1      -6.403   4.553  67.237  1.00  0.00    -0.041 C  
HETATM   14  C   UNL     1     -10.288   5.809  68.507  1.00  0.00    -0.215 C  
HETATM   15  C   UNL     1      -6.017   5.022  65.864  1.00  0.00    -0.023 C  
HETATM   16  O   UNL     1      -5.264   4.914  68.003  1.00  0.00    -0.009 OA 
HETATM   17  C   UNL     1     -10.088   5.625  66.977  1.00  0.00    -0.223 C  
HETATM   18  C   UNL     1      -6.923   4.433  64.813  1.00  0.00    -0.050 C  
HETATM   19  C   UNL     1      -8.853   4.785  66.601  1.00  0.00    -0.110 C  
HETATM   20  H   UNL     1      -4.435   4.501  67.791  1.00  0.00     0.000 HD 
HETATM   21  C   UNL     1      -9.310   3.840  64.241  1.00  0.00    -0.148 C  
HETATM   22  C   UNL     1      -6.229   4.713  63.468  1.00  0.00    -0.022 C  
HETATM   23  C   UNL     1      -8.415   4.865  64.994  1.00  0.00    -0.142 C  
HETATM   24  C   UNL     1      -6.558   5.996  62.727  1.00  0.00    -0.039 C  
HETATM   25  C   UNL     1      -8.622   6.256  64.295  1.00  0.00     0.256 C  
HETATM   26  H   UNL     1      -5.852   7.851  62.577  1.00  0.00     0.000 HD 
HETATM   27  O   UNL     1      -5.646   7.048  63.041  1.00  0.00    -0.035 OA 
HETATM   28  C   UNL     1      -8.001   6.439  62.883  1.00  0.00    -0.091 C  
ENDROOT
BRANCH   6  29
HETATM   29  C   UNL     1      -6.403  10.877  70.012  1.00  0.00    -0.142 C  
BRANCH  29  30
HETATM   30  C   UNL     1      -6.477  10.738  68.519  1.00  0.00    -0.054 C  
HETATM   31  O   UNL     1      -5.579  10.207  67.875  1.00  0.00    -0.039 OA 
HETATM   32  N   UNL     1      -7.609  11.283  67.939  1.00  0.00    -0.097 N  
HETATM   33  H   UNL     1      -8.339  11.674  68.535  1.00  0.00     0.000 HD 
BRANCH  32  34
HETATM   34  C   UNL     1      -7.774  11.306  66.504  1.00  0.00    -0.125 C  
BRANCH  34  35
HETATM   35  C   UNL     1      -9.162  11.811  66.110  1.00  0.00    -0.210 C  
HETATM   36  S   UNL     1     -10.244  11.788  67.517  1.00  0.00    -0.198 S  
HETATM   37  O   UNL     1     -11.599  12.261  66.774  1.00  0.00    -0.356 OA 
HETATM   38  O   UNL     1      -9.871  12.815  68.459  1.00  0.00    -0.213 OA 
HETATM   39  O   UNL     1     -10.472  10.416  67.917  1.00  0.00    -0.181 OA 
ENDBRANCH  34  35
ENDBRANCH  32  34
ENDBRANCH  29  30
ENDBRANCH   6  29
TORSDOF 4
ENDMDL
MODEL      128
REMARK 921   NORMALIZED FREE ENERGY PREDICTED BY IDOCK:   -3.26 KCAL/MOL
REMARK 922        TOTAL FREE ENERGY PREDICTED BY IDOCK:   -4.84 KCAL/MOL
REMARK 923 INTER-LIGAND FREE ENERGY PREDICTED BY IDOCK:   -3.41 KCAL/MOL
REMARK 924 INTRA-LIGAND FREE ENERGY PREDICTED BY IDOCK:   -1.43 KCAL/MOL
REMARK 927      BINDING AFFINITY PREDICTED BY RF-SCORE:    0.00 PKD
ROOT
HETATM    1  C   UNL     1      -8.224   7.305  70.540  1.00  0.00    -0.124 C  
HETATM    2  C   UNL     1      -7.314   7.732  71.956  1.00  0.00    -0.079 C  
HETATM    3  C   UNL     1      -7.074   6.422  70.062  1.00  0.00    -0.071 C  
HETATM    4  C   UNL     1      -7.857   8.008  73.352  1.00  0.00    -0.226 C  
HETATM    5  C   UNL     1      -7.506   5.108  70.732  1.00  0.00    -0.074 C  
HETATM    6  C   UNL     1      -5.977   8.596  71.718  1.00  0.00    -0.057 C  
HETATM    7  C   UNL     1     -10.425   6.220  71.559  1.00  0.00    -0.266 C  
HETATM    8  C   UNL     1      -8.731   4.812  69.943  1.00  0.00    -0.113 C  
HETATM    9  C   UNL     1      -8.309   4.681  68.388  1.00  0.00    -0.091 C  
HETATM   10  H   UNL     1     -12.183   6.570  70.155  1.00  0.00     0.000 HD 
HETATM   11  O   UNL     1     -12.012   6.435  69.231  1.00  0.00     0.045 OA 
HETATM   12  C   UNL     1      -9.577   6.128  70.265  1.00  0.00    -0.188 C  
HETATM   13  C   UNL     1      -7.108   3.751  68.138  1.00  0.00    -0.051 C  
HETATM   14  C   UNL     1     -10.742   5.779  69.122  1.00  0.00    -0.300 C  
HETATM   15  C   UNL     1      -6.525   4.131  66.808  1.00  0.00    -0.041 C  
HETATM   16  O   UNL     1      -5.984   3.870  68.997  1.00  0.00    -0.022 OA 
HETATM   17  C   UNL     1     -10.462   5.559  67.609  1.00  0.00    -0.256 C  
HETATM   18  C   UNL     1      -7.446   3.741  65.680  1.00  0.00    -0.077 C  
HETATM   19  C   UNL     1      -9.399   4.482  67.316  1.00  0.00    -0.165 C  
HETATM   20  H   UNL     1      -5.243   3.295  68.844  1.00  0.00     0.000 HD 
HETATM   21  C   UNL     1      -9.850   3.653  64.913  1.00  0.00    -0.164 C  
HETATM   22  C   UNL     1      -6.603   3.872  64.398  1.00  0.00    -0.043 C  
HETATM   23  C   UNL     1      -8.827   4.471  65.751  1.00  0.00    -0.124 C  
HETATM   24  C   UNL     1      -6.602   5.196  63.655  1.00  0.00    -0.030 C  
HETATM   25  C   UNL     1      -8.687   5.875  65.061  1.00  0.00    -0.010 C  
HETATM   26  H   UNL     1      -5.520   6.866  63.592  1.00  0.00     0.000 HD 
HETATM   27  O   UNL     1      -5.522   6.037  64.057  1.00  0.00    -0.017 OA 
HETATM   28  C   UNL     1      -7.931   5.927  63.705  1.00  0.00    -0.118 C  
ENDROOT
BRANCH   6  29
HETATM   29  C   UNL     1      -6.032   9.939  71.010  1.00  0.00    -0.072 C  
BRANCH  29  30
HETATM   30  C   UNL     1      -5.690   9.852  69.551  1.00  0.00    -0.037 C  
HETATM   31  O   UNL     1      -5.128   8.871  69.077  1.00  0.00    -0.035 OA 
HETATM   32  N   UNL     1      -6.028  10.968  68.807  1.00  0.00    -0.043 N  
HETATM   33  H   UNL     1      -6.533  11.734  69.253  1.00  0.00     0.000 HD 
BRANCH  32  34
HETATM   34  C   UNL     1      -5.679  11.066  67.408  1.00  0.00    -0.048 C  
BRANCH  34  35
HETATM   35  C   UNL     1      -6.917  10.989  66.515  1.00  0.00    -0.138 C  
HETATM   36  S   UNL     1      -7.184   9.317  65.983  1.00  0.00    -0.092 S  
HETATM   37  O   UNL     1      -8.450   9.582  65.015  1.00  0.00    -0.136 OA 
HETATM   38  O   UNL     1      -7.628   8.499  67.086  1.00  0.00    -0.094 OA 
HETATM   39  O   UNL     1      -6.099   8.919  65.112  1.00  0.00    -0.058 OA 
ENDBRANCH  34  35
ENDBRANCH  32  34
ENDBRANCH  29  30
ENDBRANCH   6  29
TORSDOF 4
ENDMDL
MODEL      129
REMARK 921   NORMALIZED FREE ENERGY PREDICTED BY IDOCK:   -3.20 KCAL/MOL
REMARK 922        TOTAL FREE ENERGY PREDICTED BY IDOCK:   -4.78 KCAL/MOL
REMARK 923 INTER-LIGAND FREE ENERGY PREDICTED BY IDOCK:   -3.64 KCAL/MOL
REMARK 924 INTRA-LIGAND FREE ENERGY PREDICTED BY IDOCK:   -1.14 KCAL/MOL
REMARK 927      BINDING AFFINITY PREDICTED BY RF-SCORE:    0.00 PKD
ROOT
HETATM    1  C   UNL     1      -8.442  11.592  68.153  1.00  0.00    -0.154 C  
HETATM    2  C   UNL     1      -6.753  11.270  67.903  1.00  0.00    -0.063 C  
HETATM    3  C   UNL     1      -8.088  12.830  68.973  1.00  0.00     0.350 C  
HETATM    4  C   UNL     1      -6.104  10.663  66.665  1.00  0.00    -0.081 C  
HETATM    5  C   UNL     1      -8.065  13.858  67.829  1.00  0.00    -0.174 C  
HETATM    6  C   UNL     1      -5.895  10.878  69.207  1.00  0.00    -0.042 C  
HETATM    7  C   UNL     1      -9.369  11.834  65.674  1.00  0.00    -0.165 C  
HETATM    8  C   UNL     1      -9.509  13.880  67.479  1.00  0.00    -0.216 C  
HETATM    9  C   UNL     1     -10.338  14.334  68.790  1.00  0.00    -0.239 C  
HETATM   10  H   UNL     1     -11.544  11.169  65.593  1.00  0.00     0.000 HD 
HETATM   11  O   UNL     1     -12.100  11.469  66.302  1.00  0.00    -0.202 OA 
HETATM   12  C   UNL     1      -9.713  12.342  67.097  1.00  0.00    -0.207 C  
HETATM   13  C   UNL     1      -9.792  15.602  69.472  1.00  0.00    -0.289 C  
HETATM   14  C   UNL     1     -11.374  12.480  67.015  1.00  0.00    -0.328 C  
HETATM   15  C   UNL     1     -10.290  15.591  70.888  1.00  0.00     0.334 C  
HETATM   16  O   UNL     1      -8.388  15.708  69.654  1.00  0.00    -0.219 OA 
HETATM   17  C   UNL     1     -12.281  12.971  68.177  1.00  0.00    -0.037 C  
HETATM   18  C   UNL     1     -11.776  15.837  70.943  1.00  0.00    -0.441 C  
HETATM   19  C   UNL     1     -11.879  14.342  68.753  1.00  0.00    -0.360 C  
HETATM   20  H   UNL     1      -8.051  16.491  70.074  1.00  0.00     0.000 HD 
HETATM   21  C   UNL     1     -13.999  15.311  69.865  1.00  0.00     1.929 C  
HETATM   22  C   UNL     1     -12.089  16.131  72.422  1.00  0.00    -0.630 C  
HETATM   23  C   UNL     1     -12.598  14.729  70.206  1.00  0.00    -0.365 C  
HETATM   24  C   UNL     1     -12.462  14.978  73.335  1.00  0.00    -0.484 C  
HETATM   25  C   UNL     1     -12.827  13.533  71.198  1.00  0.00    -0.387 C  
HETATM   26  H   UNL     1     -11.562  13.725  74.594  1.00  0.00     0.000 HD 
HETATM   27  O   UNL     1     -11.329  14.447  74.022  1.00  0.00     0.666 OA 
HETATM   28  C   UNL     1     -13.262  13.886  72.647  1.00  0.00    -0.592 C  
ENDROOT
BRANCH   6  29
HETATM   29  C   UNL     1      -6.280   9.685  70.065  1.00  0.00    -0.055 C  
BRANCH  29  30
HETATM   30  C   UNL     1      -6.296   8.391  69.304  1.00  0.00    -0.038 C  
HETATM   31  O   UNL     1      -5.263   7.867  68.902  1.00  0.00    -0.022 OA 
HETATM   32  N   UNL     1      -7.555   7.868  69.072  1.00  0.00    -0.097 N  
HETATM   33  H   UNL     1      -8.372   8.331  69.471  1.00  0.00     0.000 HD 
BRANCH  32  34
HETATM   34  C   UNL     1      -7.733   6.676  68.275  1.00  0.00    -0.105 C  
BRANCH  34  35
HETATM   35  C   UNL     1      -9.212   6.324  68.116  1.00  0.00    -0.110 C  
HETATM   36  S   UNL     1     -10.174   7.151  69.357  1.00  0.00    -0.194 S  
HETATM   37  O   UNL     1     -11.614   6.516  68.994  1.00  0.00    -0.235 OA 
HETATM   38  O   UNL     1     -10.231   8.568  69.094  1.00  0.00    -0.202 OA 
HETATM   39  O   UNL     1      -9.826   6.619  70.658  1.00  0.00    -0.182 OA 
ENDBRANCH  34  35
ENDBRANCH  32  34
ENDBRANCH  29  30
ENDBRANCH   6  29
TORSDOF 4
ENDMDL
MODEL      130
REMARK 921   NORMALIZED FREE ENERGY PREDICTED BY IDOCK:   -3.04 KCAL/MOL
REMARK 922        TOTAL FREE ENERGY PREDICTED BY IDOCK:   -4.57 KCAL/MOL
REMARK 923 INTER-LIGAND FREE ENERGY PREDICTED BY IDOCK:   -3.92 KCAL/MOL
REMARK 924 INTRA-LIGAND FREE ENERGY PREDICTED BY IDOCK:   -0.65 KCAL/MOL
REMARK 927      BINDING AFFINITY PREDICTED BY RF-SCORE:    0.00 PKD
ROOT
HETATM    1  C   UNL     1      -8.283   7.268  71.568  1.00  0.00    -0.105 C  
HETATM    2  C   UNL     1      -7.371   7.447  73.035  1.00  0.00    -0.084 C  
HETATM    3  C   UNL     1      -7.167   6.411  70.974  1.00  0.00    -0.078 C  
HETATM    4  C   UNL     1      -7.918   7.547  74.453  1.00  0.00    -0.216 C  
HETATM    5  C   UNL     1      -7.665   5.036  71.448  1.00  0.00    -0.100 C  
HETATM    6  C   UNL     1      -5.995   8.275  72.930  1.00  0.00    -0.067 C  
HETATM    7  C   UNL     1     -10.542   6.150  72.410  1.00  0.00    -0.243 C  
HETATM    8  C   UNL     1      -8.892   4.911  70.618  1.00  0.00    -0.147 C  
HETATM    9  C   UNL     1      -8.458   4.983  69.063  1.00  0.00    -0.084 C  
HETATM   10  H   UNL     1     -12.265   6.776  71.061  1.00  0.00     0.000 HD 
HETATM   11  O   UNL     1     -12.090   6.766  70.127  1.00  0.00    -0.289 OA 
HETATM   12  C   UNL     1      -9.683   6.205  71.120  1.00  0.00    -0.199 C  
HETATM   13  C   UNL     1      -7.296   4.045  68.690  1.00  0.00    -0.055 C  
HETATM   14  C   UNL     1     -10.848   6.075  69.933  1.00  0.00    -0.363 C  
HETATM   15  C   UNL     1      -6.682   4.583  67.430  1.00  0.00    -0.048 C  
HETATM   16  O   UNL     1      -6.178   3.989  69.563  1.00  0.00    -0.026 OA 
HETATM   17  C   UNL     1     -10.561   6.060  68.406  1.00  0.00    -0.322 C  
HETATM   18  C   UNL     1      -7.605   4.400  66.253  1.00  0.00    -0.086 C  
HETATM   19  C   UNL     1      -9.543   4.989  67.968  1.00  0.00    -0.181 C  
HETATM   20  H   UNL     1      -5.461   3.409  69.333  1.00  0.00     0.000 HD 
HETATM   21  C   UNL     1     -10.002   4.531  65.469  1.00  0.00    -0.230 C  
HETATM   22  C   UNL     1      -6.743   4.674  65.007  1.00  0.00    -0.045 C  
HETATM   23  C   UNL     1      -8.954   5.174  66.420  1.00  0.00    -0.125 C  
HETATM   24  C   UNL     1      -6.675   6.088  64.461  1.00  0.00    -0.046 C  
HETATM   25  C   UNL     1      -8.744   6.654  65.939  1.00  0.00    -0.147 C  
HETATM   26  H   UNL     1      -5.520   7.699  64.642  1.00  0.00     0.000 HD 
HETATM   27  O   UNL     1      -5.563   6.814  64.985  1.00  0.00    -0.029 OA 
HETATM   28  C   UNL     1      -7.971   6.864  64.608  1.00  0.00    -0.112 C  
ENDROOT
BRANCH   6  29
HETATM   29  C   UNL     1      -5.982   9.706  72.420  1.00  0.00     0.317 C  
BRANCH  29  30
HETATM   30  C   UNL     1      -6.096   9.802  70.926  1.00  0.00    -0.089 C  
HETATM   31  O   UNL     1      -5.502   9.030  70.183  1.00  0.00    -0.027 OA 
HETATM   32  N   UNL     1      -6.889  10.840  70.469  1.00  0.00    -0.115 N  
HETATM   33  H   UNL     1      -7.391  11.421  71.140  1.00  0.00     0.000 HD 
BRANCH  32  34
HETATM   34  C   UNL     1      -7.018  11.112  69.056  1.00  0.00    -0.101 C  
BRANCH  34  35
HETATM   35  C   UNL     1      -5.981  12.132  68.586  1.00  0.00    -0.055 C  
HETATM   36  S   UNL     1      -6.571  13.781  68.873  1.00  0.00    -0.110 S  
HETATM   37  O   UNL     1      -5.342  14.587  68.202  1.00  0.00    -0.108 OA 
HETATM   38  O   UNL     1      -6.580  14.077  70.285  1.00  0.00    -0.083 OA 
HETATM   39  O   UNL     1      -7.716  14.029  68.023  1.00  0.00    -0.121 OA 
ENDBRANCH  34  35
ENDBRANCH  32  34
ENDBRANCH  29  30
ENDBRANCH   6  29
TORSDOF 4
ENDMDL
MODEL      131
REMARK 921   NORMALIZED FREE ENERGY PREDICTED BY IDOCK:   -2.89 KCAL/MOL
REMARK 922        TOTAL FREE ENERGY PREDICTED BY IDOCK:   -4.39 KCAL/MOL
REMARK 923 INTER-LIGAND FREE ENERGY PREDICTED BY IDOCK:   -4.51 KCAL/MOL
REMARK 924 INTRA-LIGAND FREE ENERGY PREDICTED BY IDOCK:    0.13 KCAL/MOL
REMARK 927      BINDING AFFINITY PREDICTED BY RF-SCORE:    0.00 PKD
ROOT
HETATM    1  C   UNL     1      -7.406   9.410  67.967  1.00  0.00    -0.079 C  
HETATM    2  C   UNL     1      -7.507   9.354  66.234  1.00  0.00    -0.096 C  
HETATM    3  C   UNL     1      -7.448   7.885  68.023  1.00  0.00    -0.108 C  
HETATM    4  C   UNL     1      -6.853  10.307  65.241  1.00  0.00    -0.131 C  
HETATM    5  C   UNL     1      -5.936   7.616  67.947  1.00  0.00    -0.040 C  
HETATM    6  C   UNL     1      -8.879   8.786  65.611  1.00  0.00    -0.239 C  
HETATM    7  C   UNL     1      -5.128  10.714  68.382  1.00  0.00    -0.033 C  
HETATM    8  C   UNL     1      -5.516   8.158  69.266  1.00  0.00    -0.030 C  
HETATM    9  C   UNL     1      -6.299   7.340  70.419  1.00  0.00    -0.035 C  
HETATM   10  H   UNL     1      -5.247  11.877  70.336  1.00  0.00     0.000 HD 
HETATM   11  O   UNL     1      -5.633  11.418  71.072  1.00  0.00    -0.282 OA 
HETATM   12  C   UNL     1      -6.014   9.667  69.103  1.00  0.00    -0.034 C  
HETATM   13  C   UNL     1      -6.225   5.810  70.267  1.00  0.00    -0.027 C  
HETATM   14  C   UNL     1      -5.739  10.036  70.707  1.00  0.00    -0.084 C  
HETATM   15  C   UNL     1      -7.376   5.234  71.040  1.00  0.00    -0.078 C  
HETATM   16  O   UNL     1      -6.432   5.259  68.975  1.00  0.00    -0.039 OA 
HETATM   17  C   UNL     1      -6.371   9.285  71.911  1.00  0.00     0.078 C  
HETATM   18  C   UNL     1      -7.170   5.397  72.524  1.00  0.00    -0.093 C  
HETATM   19  C   UNL     1      -6.141   7.761  71.894  1.00  0.00    -0.039 C  
HETATM   20  H   UNL     1      -6.386   4.314  68.881  1.00  0.00     0.000 HD 
HETATM   21  C   UNL     1      -6.375   6.964  74.339  1.00  0.00    -0.079 C  
HETATM   22  C   UNL     1      -8.221   4.489  73.188  1.00  0.00    -0.099 C  
HETATM   23  C   UNL     1      -7.089   6.898  72.959  1.00  0.00    -0.074 C  
HETATM   24  C   UNL     1      -9.580   5.072  73.528  1.00  0.00    -0.133 C  
HETATM   25  C   UNL     1      -8.549   7.437  73.170  1.00  0.00    -0.178 C  
HETATM   26  H   UNL     1     -11.385   5.222  72.701  1.00  0.00     0.000 HD 
HETATM   27  O   UNL     1     -10.534   4.858  72.487  1.00  0.00    -0.194 OA 
HETATM   28  C   UNL     1      -9.533   6.528  73.955  1.00  0.00    -0.217 C  
ENDROOT
BRANCH   6  29
HETATM   29  C   UNL     1     -10.212   9.432  65.945  1.00  0.00    -0.123 C  
BRANCH  29  30
HETATM   30  C   UNL     1     -10.757   9.008  67.278  1.00  0.00    -0.151 C  
HETATM   31  O   UNL     1     -11.153   9.824  68.102  1.00  0.00    -0.215 OA 
HETATM   32  N   UNL     1     -10.743   7.643  67.504  1.00  0.00    -0.464 N  
HETATM   33  H   UNL     1     -10.440   7.014  66.760  1.00  0.00     0.000 HD 
BRANCH  32  34
HETATM   34  C   UNL     1     -11.151   7.093  68.776  1.00  0.00     0.033 C  
BRANCH  34  35
HETATM   35  C   UNL     1     -10.495   7.834  69.942  1.00  0.00    -0.232 C  
HETATM   36  S   UNL     1     -11.715   8.267  71.156  1.00  0.00    -0.271 S  
HETATM   37  O   UNL     1     -10.757   9.091  72.162  1.00  0.00    -0.332 OA 
HETATM   38  O   UNL     1     -12.182   7.090  71.847  1.00  0.00    -0.314 OA 
HETATM   39  O   UNL     1     -12.622   9.242  70.588  1.00  0.00    -0.082 OA 
ENDBRANCH  34  35
ENDBRANCH  32  34
ENDBRANCH  29  30
ENDBRANCH   6  29
TORSDOF 4
ENDMDL
MODEL      132
REMARK 921   NORMALIZED FREE ENERGY PREDICTED BY IDOCK:   -2.85 KCAL/MOL
REMARK 922        TOTAL FREE ENERGY PREDICTED BY IDOCK:   -4.34 KCAL/MOL
REMARK 923 INTER-LIGAND FREE ENERGY PREDICTED BY IDOCK:   -5.37 KCAL/MOL
REMARK 924 INTRA-LIGAND FREE ENERGY PREDICTED BY IDOCK:    1.03 KCAL/MOL
REMARK 927      BINDING AFFINITY PREDICTED BY RF-SCORE:    0.00 PKD
ROOT
HETATM    1  C   UNL     1     -10.219  13.271  67.053  1.00  0.00    -0.244 C  
HETATM    2  C   UNL     1     -10.711  14.442  68.237  1.00  0.00    -0.246 C  
HETATM    3  C   UNL     1      -9.966  12.251  68.161  1.00  0.00    -0.210 C  
HETATM    4  C   UNL     1     -11.781  15.515  68.082  1.00  0.00    -0.241 C  
HETATM    5  C   UNL     1     -11.365  11.614  68.203  1.00  0.00    -0.358 C  
HETATM    6  C   UNL     1      -9.576  14.957  69.255  1.00  0.00    -0.131 C  
HETATM    7  C   UNL     1     -12.362  13.069  65.496  1.00  0.00    -0.527 C  
HETATM    8  C   UNL     1     -11.374  10.933  66.882  1.00  0.00    -0.044 C  
HETATM    9  C   UNL     1     -10.145   9.883  66.850  1.00  0.00    -0.285 C  
HETATM   10  H   UNL     1     -11.730  12.546  63.372  1.00  0.00     0.000 HD 
HETATM   11  O   UNL     1     -11.060  11.878  63.289  1.00  0.00    -0.371 OA 
HETATM   12  C   UNL     1     -11.157  12.197  65.931  1.00  0.00    -0.360 C  
HETATM   13  C   UNL     1     -10.072   8.962  68.081  1.00  0.00    -0.189 C  
HETATM   14  C   UNL     1     -10.911  11.259  64.573  1.00  0.00    -0.284 C  
HETATM   15  C   UNL     1      -8.663   8.451  68.166  1.00  0.00    -0.143 C  
HETATM   16  O   UNL     1     -10.252   9.547  69.362  1.00  0.00    -0.186 OA 
HETATM   17  C   UNL     1      -9.815  10.166  64.437  1.00  0.00    -0.307 C  
HETATM   18  C   UNL     1      -8.367   7.483  67.050  1.00  0.00    -0.121 C  
HETATM   19  C   UNL     1      -9.841   9.105  65.554  1.00  0.00    -0.064 C  
HETATM   20  H   UNL     1     -10.207   8.978  70.122  1.00  0.00     0.000 HD 
HETATM   21  C   UNL     1      -8.684   7.008  64.589  1.00  0.00     0.396 C  
HETATM   22  C   UNL     1      -7.045   6.796  67.440  1.00  0.00    -0.084 C  
HETATM   23  C   UNL     1      -8.484   8.141  65.636  1.00  0.00    -0.170 C  
HETATM   24  C   UNL     1      -5.737   7.406  66.971  1.00  0.00    -0.030 C  
HETATM   25  C   UNL     1      -7.121   8.844  65.296  1.00  0.00    -0.080 C  
HETATM   26  H   UNL     1      -4.360   8.676  67.646  1.00  0.00     0.000 HD 
HETATM   27  O   UNL     1      -5.180   8.294  67.939  1.00  0.00    -0.032 OA 
HETATM   28  C   UNL     1      -5.820   8.052  65.599  1.00  0.00    -0.037 C  
ENDROOT
BRANCH   6  29
HETATM   29  C   UNL     1      -8.302  15.604  68.739  1.00  0.00    -0.189 C  
BRANCH  29  30
HETATM   30  C   UNL     1      -7.062  15.084  69.407  1.00  0.00    -0.186 C  
HETATM   31  O   UNL     1      -6.565  15.650  70.374  1.00  0.00     0.030 OA 
HETATM   32  N   UNL     1      -6.521  13.951  68.827  1.00  0.00    -0.088 N  
HETATM   33  H   UNL     1      -7.008  13.504  68.050  1.00  0.00     0.000 HD 
BRANCH  32  34
HETATM   34  C   UNL     1      -5.278  13.390  69.304  1.00  0.00    -0.074 C  
BRANCH  34  35
HETATM   35  C   UNL     1      -5.522  12.197  70.229  1.00  0.00    -0.138 C  
HETATM   36  S   UNL     1      -6.412  10.926  69.367  1.00  0.00    -0.100 S  
HETATM   37  O   UNL     1      -6.591   9.895  70.597  1.00  0.00    -0.111 OA 
HETATM   38  O   UNL     1      -5.568  10.299  68.378  1.00  0.00    -0.039 OA 
HETATM   39  O   UNL     1      -7.741  11.406  69.058  1.00  0.00    -0.125 OA 
ENDBRANCH  34  35
ENDBRANCH  32  34
ENDBRANCH  29  30
ENDBRANCH   6  29
TORSDOF 4
ENDMDL
MODEL      133
REMARK 921   NORMALIZED FREE ENERGY PREDICTED BY IDOCK:   -2.73 KCAL/MOL
REMARK 922        TOTAL FREE ENERGY PREDICTED BY IDOCK:   -4.19 KCAL/MOL
REMARK 923 INTER-LIGAND FREE ENERGY PREDICTED BY IDOCK:   -3.57 KCAL/MOL
REMARK 924 INTRA-LIGAND FREE ENERGY PREDICTED BY IDOCK:   -0.63 KCAL/MOL
REMARK 927      BINDING AFFINITY PREDICTED BY RF-SCORE:    0.00 PKD
ROOT
HETATM    1  C   UNL     1     -11.124  15.304  67.079  1.00  0.00    -0.305 C  
HETATM    2  C   UNL     1     -11.580  13.629  67.062  1.00  0.00    -0.389 C  
HETATM    3  C   UNL     1      -9.674  14.911  67.355  1.00  0.00    -0.217 C  
HETATM    4  C   UNL     1     -12.654  12.975  66.201  1.00  0.00     0.001 C  
HETATM    5  C   UNL     1      -9.191  14.798  65.900  1.00  0.00    -0.076 C  
HETATM    6  C   UNL     1     -11.448  12.833  68.455  1.00  0.00    -0.344 C  
HETATM    7  C   UNL     1     -11.859  16.140  64.665  1.00  0.00     0.133 C  
HETATM    8  C   UNL     1      -9.258  16.228  65.498  1.00  0.00     0.241 C  
HETATM    9  C   UNL     1      -8.288  17.071  66.478  1.00  0.00    -0.313 C  
HETATM   10  H   UNL     1     -12.421  18.344  64.748  1.00  0.00     0.000 HD 
HETATM   11  O   UNL     1     -11.842  18.905  65.251  1.00  0.00     2.085 OA 
HETATM   12  C   UNL     1     -10.812  16.500  65.750  1.00  0.00    -0.137 C  
HETATM   13  C   UNL     1      -6.874  16.480  66.625  1.00  0.00    -0.126 C  
HETATM   14  C   UNL     1     -10.658  18.148  65.538  1.00  0.00     0.032 C  
HETATM   15  C   UNL     1      -6.301  17.022  67.903  1.00  0.00    -0.148 C  
HETATM   16  O   UNL     1      -6.755  15.079  66.820  1.00  0.00    -0.181 OA 
HETATM   17  C   UNL     1      -9.711  19.065  66.361  1.00  0.00    -0.405 C  
HETATM   18  C   UNL     1      -5.999  18.494  67.782  1.00  0.00    -0.184 C  
HETATM   19  C   UNL     1      -8.240  18.608  66.364  1.00  0.00    -0.295 C  
HETATM   20  H   UNL     1      -5.883  14.714  66.910  1.00  0.00     0.000 HD 
HETATM   21  C   UNL     1      -6.830  20.706  66.892  1.00  0.00    -0.353 C  
HETATM   22  C   UNL     1      -5.127  18.837  69.003  1.00  0.00    -0.191 C  
HETATM   23  C   UNL     1      -7.278  19.350  67.506  1.00  0.00    -0.247 C  
HETATM   24  C   UNL     1      -5.805  19.298  70.280  1.00  0.00    -0.228 C  
HETATM   25  C   UNL     1      -7.969  19.673  68.879  1.00  0.00    -0.285 C  
HETATM   26  H   UNL     1      -6.482  18.506  71.976  1.00  0.00     0.000 HD 
HETATM   27  O   UNL     1      -6.058  18.217  71.177  1.00  0.00     0.495 OA 
HETATM   28  C   UNL     1      -7.051  20.133  70.044  1.00  0.00     0.132 C  
ENDROOT
BRANCH   6  29
HETATM   29  C   UNL     1     -12.184  13.308  69.696  1.00  0.00    -0.258 C  
BRANCH  29  30
HETATM   30  C   UNL     1     -12.260  12.265  70.774  1.00  0.00    -0.260 C  
HETATM   31  O   UNL     1     -12.572  12.548  71.924  1.00  0.00    -0.107 OA 
HETATM   32  N   UNL     1     -11.920  10.986  70.370  1.00  0.00    -0.340 N  
HETATM   33  H   UNL     1     -11.711  10.809  69.387  1.00  0.00     0.000 HD 
BRANCH  32  34
HETATM   34  C   UNL     1     -11.858   9.897  71.317  1.00  0.00    -0.395 C  
BRANCH  34  35
HETATM   35  C   UNL     1     -11.600   8.562  70.618  1.00  0.00    -0.194 C  
HETATM   36  S   UNL     1     -10.059   8.621  69.739  1.00  0.00    -0.205 S  
HETATM   37  O   UNL     1     -10.127   7.158  69.056  1.00  0.00    -0.173 OA 
HETATM   38  O   UNL     1      -8.949   8.631  70.662  1.00  0.00    -0.146 OA 
HETATM   39  O   UNL     1     -10.170   9.569  68.651  1.00  0.00    -0.181 OA 
ENDBRANCH  34  35
ENDBRANCH  32  34
ENDBRANCH  29  30
ENDBRANCH   6  29
TORSDOF 4
ENDMDL
MODEL      134
REMARK 921   NORMALIZED FREE ENERGY PREDICTED BY IDOCK:   -2.52 KCAL/MOL
REMARK 922        TOTAL FREE ENERGY PREDICTED BY IDOCK:   -3.93 KCAL/MOL
REMARK 923 INTER-LIGAND FREE ENERGY PREDICTED BY IDOCK:   -3.48 KCAL/MOL
REMARK 924 INTRA-LIGAND FREE ENERGY PREDICTED BY IDOCK:   -0.46 KCAL/MOL
REMARK 927      BINDING AFFINITY PREDICTED BY RF-SCORE:    0.00 PKD
ROOT
HETATM    1  C   UNL     1      -8.001   7.125  68.365  1.00  0.00    -0.124 C  
HETATM    2  C   UNL     1      -6.820   5.859  68.237  1.00  0.00    -0.067 C  
HETATM    3  C   UNL     1      -8.374   6.642  69.765  1.00  0.00    -0.132 C  
HETATM    4  C   UNL     1      -5.479   5.919  67.517  1.00  0.00    -0.005 C  
HETATM    5  C   UNL     1      -7.378   7.494  70.569  1.00  0.00    -0.075 C  
HETATM    6  C   UNL     1      -7.383   4.351  68.201  1.00  0.00    -0.065 C  
HETATM    7  C   UNL     1      -6.545   9.325  68.040  1.00  0.00    -0.060 C  
HETATM    8  C   UNL     1      -7.951   8.845  70.333  1.00  0.00    -0.120 C  
HETATM    9  C   UNL     1      -9.467   8.853  70.893  1.00  0.00    -0.295 C  
HETATM   10  H   UNL     1      -7.810  10.956  67.081  1.00  0.00     0.000 HD 
HETATM   11  O   UNL     1      -8.690  11.057  67.424  1.00  0.00    -0.131 OA 
HETATM   12  C   UNL     1      -7.860   8.896  68.739  1.00  0.00    -0.101 C  
HETATM   13  C   UNL     1      -9.613   8.302  72.323  1.00  0.00    -0.285 C  
HETATM   14  C   UNL     1      -8.770  10.290  68.632  1.00  0.00    -0.133 C  
HETATM   15  C   UNL     1     -11.047   7.889  72.492  1.00  0.00    -0.423 C  
HETATM   16  O   UNL     1      -8.921   7.106  72.650  1.00  0.00    -0.126 OA 
HETATM   17  C   UNL     1     -10.211  10.455  69.191  1.00  0.00    -0.239 C  
HETATM   18  C   UNL     1     -11.956   9.090  72.540  1.00  0.00    -0.124 C  
HETATM   19  C   UNL     1     -10.350  10.100  70.684  1.00  0.00    -0.006 C  
HETATM   20  H   UNL     1      -9.010   6.766  73.532  1.00  0.00     0.000 HD 
HETATM   21  C   UNL     1     -12.439  11.356  71.536  1.00  0.00    -0.305 C  
HETATM   22  C   UNL     1     -13.311   8.559  73.044  1.00  0.00     0.298 C  
HETATM   23  C   UNL     1     -11.920   9.925  71.219  1.00  0.00    -0.489 C  
HETATM   24  C   UNL     1     -14.337   8.089  72.029  1.00  0.00    -0.410 C  
HETATM   25  C   UNL     1     -12.926   9.288  70.195  1.00  0.00     1.013 C  
HETATM   26  H   UNL     1     -14.892   6.391  71.151  1.00  0.00     0.000 HD 
HETATM   27  O   UNL     1     -14.250   6.686  71.786  1.00  0.00    -0.193 OA 
HETATM   28  C   UNL     1     -14.325   8.884  70.735  1.00  0.00     0.352 C  
ENDROOT
BRANCH   6  29
HETATM   29  C   UNL     1      -8.374   3.914  67.136  1.00  0.00    -0.099 C  
BRANCH  29  30
HETATM   30  C   UNL     1      -8.580   4.944  66.063  1.00  0.00    -0.119 C  
HETATM   31  O   UNL     1      -9.629   5.569  65.962  1.00  0.00    -0.157 OA 
HETATM   32  N   UNL     1      -7.515   5.098  65.193  1.00  0.00    -0.072 N  
HETATM   33  H   UNL     1      -6.654   4.577  65.357  1.00  0.00     0.000 HD 
BRANCH  32  34
HETATM   34  C   UNL     1      -7.604   5.985  64.056  1.00  0.00    -0.087 C  
BRANCH  34  35
HETATM   35  C   UNL     1      -6.877   7.304  64.319  1.00  0.00    -0.048 C  
HETATM   36  S   UNL     1      -8.019   8.660  64.223  1.00  0.00    -0.154 S  
HETATM   37  O   UNL     1      -6.964   9.865  64.436  1.00  0.00    -0.119 OA 
HETATM   38  O   UNL     1      -8.916   8.647  65.353  1.00  0.00    -0.189 OA 
HETATM   39  O   UNL     1      -8.491   8.786  62.861  1.00  0.00    -0.194 OA 
ENDBRANCH  34  35
ENDBRANCH  32  34
ENDBRANCH  29  30
ENDBRANCH   6  29
TORSDOF 4
ENDMDL
MODEL      135
REMARK 921   NORMALIZED FREE ENERGY PREDICTED BY IDOCK:   -2.43 KCAL/MOL
REMARK 922        TOTAL FREE ENERGY PREDICTED BY IDOCK:   -3.82 KCAL/MOL
REMARK 923 INTER-LIGAND FREE ENERGY PREDICTED BY IDOCK:   -3.16 KCAL/MOL
REMARK 924 INTRA-LIGAND FREE ENERGY PREDICTED BY IDOCK:   -0.66 KCAL/MOL
REMARK 927      BINDING AFFINITY PREDICTED BY RF-SCORE:    0.00 PKD
ROOT
HETATM    1  C   UNL     1      -9.827  13.545  67.857  1.00  0.00    -0.235 C  
HETATM    2  C   UNL     1      -9.427  12.063  67.045  1.00  0.00    -0.199 C  
HETATM    3  C   UNL     1      -8.760  14.280  67.049  1.00  0.00    -0.231 C  
HETATM    4  C   UNL     1     -10.378  10.935  66.665  1.00  0.00    -0.289 C  
HETATM    5  C   UNL     1      -9.632  14.702  65.856  1.00  0.00    -0.303 C  
HETATM    6  C   UNL     1      -7.962  11.459  67.331  1.00  0.00    -0.139 C  
HETATM    7  C   UNL     1     -12.404  13.854  67.285  1.00  0.00    -0.201 C  
HETATM    8  C   UNL     1     -10.523  15.685  66.527  1.00  0.00    -0.303 C  
HETATM    9  C   UNL     1      -9.600  16.857  67.149  1.00  0.00    -0.245 C  
HETATM   10  H   UNL     1     -13.445  14.966  68.976  1.00  0.00     0.000 HD 
HETATM   11  O   UNL     1     -12.980  15.714  69.332  1.00  0.00     0.295 OA 
HETATM   12  C   UNL     1     -11.178  14.736  67.633  1.00  0.00    -0.332 C  
HETATM   13  C   UNL     1      -8.577  17.444  66.159  1.00  0.00    -0.156 C  
HETATM   14  C   UNL     1     -11.895  16.007  68.442  1.00  0.00    -0.062 C  
HETATM   15  C   UNL     1      -7.496  18.093  66.975  1.00  0.00    -0.227 C  
HETATM   16  O   UNL     1      -7.835  16.540  65.353  1.00  0.00     0.770 OA 
HETATM   17  C   UNL     1     -11.134  17.230  69.025  1.00  0.00     0.259 C  
HETATM   18  C   UNL     1      -8.003  19.338  67.656  1.00  0.00    -0.311 C  
HETATM   19  C   UNL     1     -10.248  17.966  68.002  1.00  0.00    -0.381 C  
HETATM   20  H   UNL     1      -7.204  16.902  64.742  1.00  0.00     0.000 HD 
HETATM   21  C   UNL     1      -9.944  20.367  68.901  1.00  0.00     0.004 C  
HETATM   22  C   UNL     1      -6.746  20.068  68.165  1.00  0.00    -0.326 C  
HETATM   23  C   UNL     1      -9.162  19.044  68.663  1.00  0.00    -0.414 C  
HETATM   24  C   UNL     1      -6.241  19.767  69.564  1.00  0.00    -0.324 C  
HETATM   25  C   UNL     1      -8.534  18.628  70.041  1.00  0.00     1.624 C  
HETATM   26  H   UNL     1      -4.929  18.555  70.443  1.00  0.00     0.000 HD 
HETATM   27  O   UNL     1      -5.246  18.744  69.567  1.00  0.00    -0.187 OA 
HETATM   28  C   UNL     1      -7.345  19.479  70.565  1.00  0.00     0.869 C  
ENDROOT
BRANCH   6  29
HETATM   29  C   UNL     1      -7.518  11.129  68.745  1.00  0.00    -0.118 C  
BRANCH  29  30
HETATM   30  C   UNL     1      -8.237   9.948  69.331  1.00  0.00    -0.146 C  
HETATM   31  O   UNL     1      -7.724   8.835  69.371  1.00  0.00    -0.089 OA 
HETATM   32  N   UNL     1      -9.518  10.212  69.782  1.00  0.00    -0.359 N  
HETATM   33  H   UNL     1      -9.870  11.169  69.759  1.00  0.00     0.000 HD 
BRANCH  32  34
HETATM   34  C   UNL     1     -10.364   9.155  70.286  1.00  0.00    -0.214 C  
BRANCH  34  35
HETATM   35  C   UNL     1     -11.211   9.632  71.466  1.00  0.00    -0.307 C  
HETATM   36  S   UNL     1     -12.618  10.541  70.880  1.00  0.00    -0.427 S  
HETATM   37  O   UNL     1     -13.226  10.974  72.313  1.00  0.00    -0.405 OA 
HETATM   38  O   UNL     1     -13.564   9.657  70.243  1.00  0.00     0.276 OA 
HETATM   39  O   UNL     1     -12.164  11.767  70.258  1.00  0.00    -0.324 OA 
ENDBRANCH  34  35
ENDBRANCH  32  34
ENDBRANCH  29  30
ENDBRANCH   6  29
TORSDOF 4
ENDMDL
MODEL      136
REMARK 921   NORMALIZED FREE ENERGY PREDICTED BY IDOCK:   -2.34 KCAL/MOL
REMARK 922        TOTAL FREE ENERGY PREDICTED BY IDOCK:   -3.71 KCAL/MOL
REMARK 923 INTER-LIGAND FREE ENERGY PREDICTED BY IDOCK:   -3.21 KCAL/MOL
REMARK 924 INTRA-LIGAND FREE ENERGY PREDICTED BY IDOCK:   -0.50 KCAL/MOL
REMARK 927      BINDING AFFINITY PREDICTED BY RF-SCORE:    0.00 PKD
ROOT
HETATM    1  C   UNL     1      -8.805   4.921  69.006  1.00  0.00    -0.117 C  
HETATM    2  C   UNL     1      -8.964   3.305  68.390  1.00  0.00    -0.184 C  
HETATM    3  C   UNL     1      -8.802   5.468  67.581  1.00  0.00    -0.105 C  
HETATM    4  C   UNL     1      -9.728   2.149  69.023  1.00  0.00     0.064 C  
HETATM    5  C   UNL     1     -10.315   5.682  67.419  1.00  0.00    -0.284 C  
HETATM    6  C   UNL     1      -7.718   2.730  67.550  1.00  0.00    -0.065 C  
HETATM    7  C   UNL     1     -10.955   5.179  70.546  1.00  0.00     0.182 C  
HETATM    8  C   UNL     1     -10.519   6.794  68.385  1.00  0.00    -0.238 C  
HETATM    9  C   UNL     1      -9.599   8.038  67.922  1.00  0.00    -0.178 C  
HETATM   10  H   UNL     1     -10.513   6.610  72.261  1.00  0.00     0.000 HD 
HETATM   11  O   UNL     1     -10.036   7.400  72.033  1.00  0.00    -0.179 OA 
HETATM   12  C   UNL     1     -10.004   6.082  69.719  1.00  0.00    -0.223 C  
HETATM   13  C   UNL     1      -9.741   8.407  66.435  1.00  0.00    -0.242 C  
HETATM   14  C   UNL     1     -10.028   7.497  70.603  1.00  0.00    -0.183 C  
HETATM   15  C   UNL     1      -8.507   9.170  66.049  1.00  0.00    -0.139 C  
HETATM   16  O   UNL     1      -9.745   7.352  65.484  1.00  0.00    -0.034 OA 
HETATM   17  C   UNL     1      -9.248   8.788  70.230  1.00  0.00    -0.191 C  
HETATM   18  C   UNL     1      -8.486  10.532  66.694  1.00  0.00    -0.129 C  
HETATM   19  C   UNL     1      -9.524   9.301  68.804  1.00  0.00    -0.150 C  
HETATM   20  H   UNL     1      -9.834   7.580  64.566  1.00  0.00     0.000 HD 
HETATM   21  C   UNL     1      -8.954  11.820  68.816  1.00  0.00     0.015 C  
HETATM   22  C   UNL     1      -7.376  11.314  65.968  1.00  0.00     0.128 C  
HETATM   23  C   UNL     1      -8.455  10.457  68.256  1.00  0.00    -0.123 C  
HETATM   24  C   UNL     1      -5.964  11.265  66.522  1.00  0.00    -0.144 C  
HETATM   25  C   UNL     1      -6.964  10.288  68.720  1.00  0.00    -0.067 C  
HETATM   26  H   UNL     1      -4.298  10.206  66.260  1.00  0.00     0.000 HD 
HETATM   27  O   UNL     1      -5.182  10.237  65.914  1.00  0.00    -0.041 OA 
HETATM   28  C   UNL     1      -5.902  11.193  68.037  1.00  0.00    -0.042 C  
ENDROOT
BRANCH   6  29
HETATM   29  C   UNL     1      -6.330   2.657  68.163  1.00  0.00    -0.029 C  
BRANCH  29  30
HETATM   30  C   UNL     1      -6.302   3.059  69.610  1.00  0.00    -0.029 C  
HETATM   31  O   UNL     1      -5.876   4.151  69.967  1.00  0.00    -0.016 OA 
HETATM   32  N   UNL     1      -6.758   2.094  70.490  1.00  0.00    -0.032 N  
HETATM   33  H   UNL     1      -7.139   1.221  70.125  1.00  0.00     0.000 HD 
BRANCH  32  34
HETATM   34  C   UNL     1      -6.704   2.303  71.919  1.00  0.00    -0.018 C  
BRANCH  34  35
HETATM   35  C   UNL     1      -8.043   2.802  72.462  1.00  0.00    -0.055 C  
HETATM   36  S   UNL     1      -7.827   4.360  73.284  1.00  0.00    -0.091 S  
HETATM   37  O   UNL     1      -9.341   4.556  73.810  1.00  0.00    -0.116 OA 
HETATM   38  O   UNL     1      -7.548   5.404  72.327  1.00  0.00    -0.096 OA 
HETATM   39  O   UNL     1      -7.021   4.162  74.469  1.00  0.00    -0.061 OA 
ENDBRANCH  34  35
ENDBRANCH  32  34
ENDBRANCH  29  30
ENDBRANCH   6  29
TORSDOF 4
ENDMDL
MODEL      137
REMARK 921   NORMALIZED FREE ENERGY PREDICTED BY IDOCK:   -2.31 KCAL/MOL
REMARK 922        TOTAL FREE ENERGY PREDICTED BY IDOCK:   -3.67 KCAL/MOL
REMARK 923 INTER-LIGAND FREE ENERGY PREDICTED BY IDOCK:   -2.98 KCAL/MOL
REMARK 924 INTRA-LIGAND FREE ENERGY PREDICTED BY IDOCK:   -0.69 KCAL/MOL
REMARK 927      BINDING AFFINITY PREDICTED BY RF-SCORE:    0.00 PKD
ROOT
HETATM    1  C   UNL     1      -7.664   6.187  69.401  1.00  0.00    -0.099 C  
HETATM    2  C   UNL     1      -6.614   4.835  69.693  1.00  0.00    -0.036 C  
HETATM    3  C   UNL     1      -8.291   6.003  70.782  1.00  0.00    -0.126 C  
HETATM    4  C   UNL     1      -5.181   4.659  69.207  1.00  0.00    -0.004 C  
HETATM    5  C   UNL     1      -7.345   6.914  71.581  1.00  0.00    -0.084 C  
HETATM    6  C   UNL     1      -7.317   3.393  69.825  1.00  0.00    -0.045 C  
HETATM    7  C   UNL     1      -5.957   8.172  68.948  1.00  0.00    -0.039 C  
HETATM    8  C   UNL     1      -7.735   8.236  71.022  1.00  0.00    -0.090 C  
HETATM    9  C   UNL     1      -9.308   8.460  71.311  1.00  0.00    -0.239 C  
HETATM   10  H   UNL     1      -6.889   9.684  67.524  1.00  0.00     0.000 HD 
HETATM   11  O   UNL     1      -7.796   9.912  67.692  1.00  0.00    -0.097 OA 
HETATM   12  C   UNL     1      -7.400   7.980  69.481  1.00  0.00    -0.086 C  
HETATM   13  C   UNL     1      -9.724   8.199  72.771  1.00  0.00    -0.281 C  
HETATM   14  C   UNL     1      -8.135   9.393  68.984  1.00  0.00    -0.106 C  
HETATM   15  C   UNL     1     -11.201   7.932  72.768  1.00  0.00    -0.466 C  
HETATM   16  O   UNL     1      -9.215   7.038  73.410  1.00  0.00    -0.134 OA 
HETATM   17  C   UNL     1      -9.619   9.765  69.259  1.00  0.00    -0.204 C  
HETATM   18  C   UNL     1     -11.979   9.184  72.455  1.00  0.00    -0.169 C  
HETATM   19  C   UNL     1     -10.017   9.708  70.746  1.00  0.00    -0.260 C  
HETATM   20  H   UNL     1      -9.471   6.877  74.311  1.00  0.00     0.000 HD 
HETATM   21  C   UNL     1     -12.070  11.252  71.007  1.00  0.00    -0.335 C  
HETATM   22  C   UNL     1     -13.442   8.859  72.810  1.00  0.00    -0.264 C  
HETATM   23  C   UNL     1     -11.658   9.753  71.033  1.00  0.00    -0.455 C  
HETATM   24  C   UNL     1     -14.346   8.285  71.735  1.00  0.00    -0.483 C  
HETATM   25  C   UNL     1     -12.560   9.011  69.983  1.00  0.00     1.120 C  
HETATM   26  H   UNL     1     -14.934   6.497  71.084  1.00  0.00     0.000 HD 
HETATM   27  O   UNL     1     -14.368   6.858  71.757  1.00  0.00    -0.350 OA 
HETATM   28  C   UNL     1     -14.058   8.819  70.343  1.00  0.00     1.197 C  
ENDROOT
BRANCH   6  29
HETATM   29  C   UNL     1      -8.176   2.838  68.702  1.00  0.00    -0.080 C  
BRANCH  29  30
HETATM   30  C   UNL     1      -9.331   3.729  68.346  1.00  0.00    -0.166 C  
HETATM   31  O   UNL     1     -10.198   4.018  69.162  1.00  0.00     0.169 OA 
HETATM   32  N   UNL     1      -9.350   4.161  67.032  1.00  0.00    -0.161 N  
HETATM   33  H   UNL     1      -8.575   3.919  66.413  1.00  0.00     0.000 HD 
BRANCH  32  34
HETATM   34  C   UNL     1     -10.447   4.949  66.520  1.00  0.00    -0.252 C  
BRANCH  34  35
HETATM   35  C   UNL     1     -10.867   4.485  65.126  1.00  0.00    -0.043 C  
HETATM   36  S   UNL     1      -9.687   3.323  64.487  1.00  0.00    -0.144 S  
HETATM   37  O   UNL     1     -10.337   3.115  63.023  1.00  0.00    -0.138 OA 
HETATM   38  O   UNL     1      -9.774   2.070  65.197  1.00  0.00     0.064 OA 
HETATM   39  O   UNL     1      -8.428   4.002  64.265  1.00  0.00    -0.094 OA 
ENDBRANCH  34  35
ENDBRANCH  32  34
ENDBRANCH  29  30
ENDBRANCH   6  29
TORSDOF 4
ENDMDL
MODEL      138
REMARK 921   NORMALIZED FREE ENERGY PREDICTED BY IDOCK:   -1.82 KCAL/MOL
REMARK 922        TOTAL FREE ENERGY PREDICTED BY IDOCK:   -3.07 KCAL/MOL
REMARK 923 INTER-LIGAND FREE ENERGY PREDICTED BY IDOCK:   -2.14 KCAL/MOL
REMARK 924 INTRA-LIGAND FREE ENERGY PREDICTED BY IDOCK:   -0.93 KCAL/MOL
REMARK 927      BINDING AFFINITY PREDICTED BY RF-SCORE:    0.00 PKD
ROOT
HETATM    1  C   UNL     1      -8.684  12.543  67.923  1.00  0.00    -0.180 C  
HETATM    2  C   UNL     1      -7.886  13.923  68.612  1.00  0.00    -0.120 C  
HETATM    3  C   UNL     1      -7.345  11.816  67.819  1.00  0.00    -0.106 C  
HETATM    4  C   UNL     1      -8.437  14.873  69.668  1.00  0.00     0.072 C  
HETATM    5  C   UNL     1      -7.355  11.130  69.195  1.00  0.00    -0.115 C  
HETATM    6  C   UNL     1      -6.865  14.717  67.654  1.00  0.00    -0.205 C  
HETATM    7  C   UNL     1     -10.440  11.877  69.802  1.00  0.00     0.692 C  
HETATM    8  C   UNL     1      -8.469  10.167  68.990  1.00  0.00    -0.151 C  
HETATM    9  C   UNL     1      -8.082   9.207  67.750  1.00  0.00    -0.105 C  
HETATM   10  H   UNL     1     -12.272  10.922  68.846  1.00  0.00     0.000 HD 
HETATM   11  O   UNL     1     -12.102  10.289  68.158  1.00  0.00     0.053 OA 
HETATM   12  C   UNL     1      -9.648  11.193  68.659  1.00  0.00    -0.200 C  
HETATM   13  C   UNL     1      -6.674   8.594  67.844  1.00  0.00    -0.066 C  
HETATM   14  C   UNL     1     -10.701   9.986  68.191  1.00  0.00    -0.239 C  
HETATM   15  C   UNL     1      -6.273   8.193  66.453  1.00  0.00    -0.046 C  
HETATM   16  O   UNL     1      -5.602   9.443  68.227  1.00  0.00    -0.037 OA 
HETATM   17  C   UNL     1     -10.423   8.953  67.065  1.00  0.00    -0.326 C  
HETATM   18  C   UNL     1      -7.080   7.015  65.973  1.00  0.00    -0.073 C  
HETATM   19  C   UNL     1      -9.106   8.173  67.238  1.00  0.00    -0.156 C  
HETATM   20  H   UNL     1      -4.732   9.064  68.286  1.00  0.00     0.000 HD 
HETATM   21  C   UNL     1      -9.382   5.978  65.905  1.00  0.00    -0.047 C  
HETATM   22  C   UNL     1      -6.358   6.508  64.711  1.00  0.00    -0.038 C  
HETATM   23  C   UNL     1      -8.610   7.328  65.889  1.00  0.00    -0.159 C  
HETATM   24  C   UNL     1      -6.765   7.067  63.360  1.00  0.00    -0.044 C  
HETATM   25  C   UNL     1      -8.906   8.010  64.505  1.00  0.00     0.399 C  
HETATM   26  H   UNL     1      -6.215   8.530  62.127  1.00  0.00     0.000 HD 
HETATM   27  O   UNL     1      -5.960   8.181  62.973  1.00  0.00    -0.074 OA 
HETATM   28  C   UNL     1      -8.246   7.379  63.248  1.00  0.00     0.060 C  
ENDROOT
BRANCH   6  29
HETATM   29  C   UNL     1      -7.331  15.299  66.331  1.00  0.00     1.333 C  
BRANCH  29  30
HETATM   30  C   UNL     1      -8.283  16.449  66.493  1.00  0.00    -0.306 C  
HETATM   31  O   UNL     1      -9.479  16.335  66.255  1.00  0.00    -0.272 OA 
HETATM   32  N   UNL     1      -7.697  17.636  66.895  1.00  0.00    -0.204 N  
HETATM   33  H   UNL     1      -6.701  17.654  67.118  1.00  0.00     0.000 HD 
BRANCH  32  34
HETATM   34  C   UNL     1      -8.471  18.851  67.005  1.00  0.00    -0.281 C  
BRANCH  34  35
HETATM   35  C   UNL     1      -7.733  19.914  67.819  1.00  0.00    -0.292 C  
HETATM   36  S   UNL     1      -6.306  19.204  68.600  1.00  0.00    -0.257 S  
HETATM   37  O   UNL     1      -5.826  20.505  69.429  1.00  0.00    -0.326 OA 
HETATM   38  O   UNL     1      -5.291  18.899  67.620  1.00  0.00    -0.167 OA 
HETATM   39  O   UNL     1      -6.739  18.243  69.592  1.00  0.00    -0.160 OA 
ENDBRANCH  34  35
ENDBRANCH  32  34
ENDBRANCH  29  30
ENDBRANCH   6  29
TORSDOF 4
ENDMDL
MODEL      139
REMARK 921   NORMALIZED FREE ENERGY PREDICTED BY IDOCK:   -1.78 KCAL/MOL
REMARK 922        TOTAL FREE ENERGY PREDICTED BY IDOCK:   -3.02 KCAL/MOL
REMARK 923 INTER-LIGAND FREE ENERGY PREDICTED BY IDOCK:   -3.58 KCAL/MOL
REMARK 924 INTRA-LIGAND FREE ENERGY PREDICTED BY IDOCK:    0.56 KCAL/MOL
REMARK 927      BINDING AFFINITY PREDICTED BY RF-SCORE:    0.00 PKD
ROOT
HETATM    1  C   UNL     1      -8.650   7.877  70.529  1.00  0.00    -0.131 C  
HETATM    2  C   UNL     1      -9.154   7.199  72.046  1.00  0.00    -0.142 C  
HETATM    3  C   UNL     1      -8.066   9.085  71.257  1.00  0.00    -0.146 C  
HETATM    4  C   UNL     1      -9.206   5.724  72.425  1.00  0.00    -0.149 C  
HETATM    5  C   UNL     1      -6.645   8.546  71.484  1.00  0.00    -0.070 C  
HETATM    6  C   UNL     1     -10.295   8.001  72.849  1.00  0.00    -0.397 C  
HETATM    7  C   UNL     1      -7.053   5.995  69.543  1.00  0.00    -0.069 C  
HETATM    8  C   UNL     1      -6.157   8.519  70.081  1.00  0.00    -0.034 C  
HETATM    9  C   UNL     1      -6.232  10.023  69.493  1.00  0.00    -0.046 C  
HETATM   10  H   UNL     1      -7.128   6.030  67.268  1.00  0.00     0.000 HD 
HETATM   11  O   UNL     1      -7.100   6.888  66.863  1.00  0.00    -0.071 OA 
HETATM   12  C   UNL     1      -7.237   7.531  69.443  1.00  0.00    -0.082 C  
HETATM   13  C   UNL     1      -5.597  11.088  70.405  1.00  0.00    -0.118 C  
HETATM   14  C   UNL     1      -6.736   7.831  67.880  1.00  0.00    -0.067 C  
HETATM   15  C   UNL     1      -6.188  12.412  70.016  1.00  0.00    -0.075 C  
HETATM   16  O   UNL     1      -5.886  11.033  71.794  1.00  0.00    -0.171 OA 
HETATM   17  C   UNL     1      -6.691   9.235  67.217  1.00  0.00    -0.069 C  
HETATM   18  C   UNL     1      -5.697  12.848  68.659  1.00  0.00    -0.068 C  
HETATM   19  C   UNL     1      -5.887  10.281  68.013  1.00  0.00    -0.041 C  
HETATM   20  H   UNL     1      -5.494  11.690  72.358  1.00  0.00     0.000 HD 
HETATM   21  C   UNL     1      -5.160  12.084  66.312  1.00  0.00     0.497 C  
HETATM   22  C   UNL     1      -6.096  14.330  68.534  1.00  0.00    -0.091 C  
HETATM   23  C   UNL     1      -6.112  11.858  67.522  1.00  0.00    -0.100 C  
HETATM   24  C   UNL     1      -7.441  14.676  67.922  1.00  0.00    -0.148 C  
HETATM   25  C   UNL     1      -7.561  12.227  67.041  1.00  0.00    -0.071 C  
HETATM   26  H   UNL     1      -9.302  15.043  68.528  1.00  0.00     0.000 HD 
HETATM   27  O   UNL     1      -8.460  14.826  68.911  1.00  0.00    -0.164 OA 
HETATM   28  C   UNL     1      -7.870  13.733  66.813  1.00  0.00     0.489 C  
ENDROOT
BRANCH   6  29
HETATM   29  C   UNL     1     -11.644   8.284  72.211  1.00  0.00    -0.449 C  
BRANCH  29  30
HETATM   30  C   UNL     1     -11.689   9.593  71.478  1.00  0.00    -0.400 C  
HETATM   31  O   UNL     1     -10.686  10.281  71.324  1.00  0.00     0.178 OA 
HETATM   32  N   UNL     1     -12.943   9.966  71.028  1.00  0.00    -0.474 N  
HETATM   33  H   UNL     1     -13.730   9.328  71.150  1.00  0.00     0.000 HD 
BRANCH  32  34
HETATM   34  C   UNL     1     -13.157  11.242  70.386  1.00  0.00     0.233 C  
BRANCH  34  35
HETATM   35  C   UNL     1     -12.259  12.326  70.984  1.00  0.00    -0.108 C  
HETATM   36  S   UNL     1     -13.247  13.654  71.625  1.00  0.00    -0.353 S  
HETATM   37  O   UNL     1     -12.048  14.639  72.072  1.00  0.00    -0.334 OA 
HETATM   38  O   UNL     1     -13.948  13.235  72.815  1.00  0.00    -0.701 OA 
HETATM   39  O   UNL     1     -13.915  14.319  70.527  1.00  0.00     0.362 OA 
ENDBRANCH  34  35
ENDBRANCH  32  34
ENDBRANCH  29  30
ENDBRANCH   6  29
TORSDOF 4
ENDMDL
MODEL      140
REMARK 921   NORMALIZED FREE ENERGY PREDICTED BY IDOCK:   -1.77 KCAL/MOL
REMARK 922        TOTAL FREE ENERGY PREDICTED BY IDOCK:   -3.01 KCAL/MOL
REMARK 923 INTER-LIGAND FREE ENERGY PREDICTED BY IDOCK:   -2.19 KCAL/MOL
REMARK 924 INTRA-LIGAND FREE ENERGY PREDICTED BY IDOCK:   -0.81 KCAL/MOL
REMARK 927      BINDING AFFINITY PREDICTED BY RF-SCORE:    0.00 PKD
ROOT
HETATM    1  C   UNL     1      -9.827  13.545  67.857  1.00  0.00    -0.235 C  
HETATM    2  C   UNL     1      -9.427  12.063  67.045  1.00  0.00    -0.199 C  
HETATM    3  C   UNL     1      -8.760  14.280  67.049  1.00  0.00    -0.231 C  
HETATM    4  C   UNL     1     -10.378  10.935  66.665  1.00  0.00    -0.289 C  
HETATM    5  C   UNL     1      -9.632  14.702  65.856  1.00  0.00    -0.303 C  
HETATM    6  C   UNL     1      -7.962  11.459  67.331  1.00  0.00    -0.139 C  
HETATM    7  C   UNL     1     -12.404  13.854  67.285  1.00  0.00    -0.201 C  
HETATM    8  C   UNL     1     -10.523  15.685  66.527  1.00  0.00    -0.303 C  
HETATM    9  C   UNL     1      -9.600  16.857  67.149  1.00  0.00    -0.245 C  
HETATM   10  H   UNL     1     -13.445  14.966  68.976  1.00  0.00     0.000 HD 
HETATM   11  O   UNL     1     -12.980  15.714  69.332  1.00  0.00     0.295 OA 
HETATM   12  C   UNL     1     -11.178  14.736  67.633  1.00  0.00    -0.332 C  
HETATM   13  C   UNL     1      -8.577  17.444  66.159  1.00  0.00    -0.156 C  
HETATM   14  C   UNL     1     -11.895  16.007  68.442  1.00  0.00    -0.062 C  
HETATM   15  C   UNL     1      -7.496  18.093  66.975  1.00  0.00    -0.227 C  
HETATM   16  O   UNL     1      -7.835  16.540  65.353  1.00  0.00     0.770 OA 
HETATM   17  C   UNL     1     -11.134  17.230  69.025  1.00  0.00     0.259 C  
HETATM   18  C   UNL     1      -8.003  19.338  67.656  1.00  0.00    -0.311 C  
HETATM   19  C   UNL     1     -10.248  17.966  68.002  1.00  0.00    -0.381 C  
HETATM   20  H   UNL     1      -7.204  16.902  64.742  1.00  0.00     0.000 HD 
HETATM   21  C   UNL     1      -9.944  20.367  68.901  1.00  0.00     0.004 C  
HETATM   22  C   UNL     1      -6.746  20.068  68.165  1.00  0.00    -0.326 C  
HETATM   23  C   UNL     1      -9.162  19.044  68.663  1.00  0.00    -0.414 C  
HETATM   24  C   UNL     1      -6.241  19.767  69.564  1.00  0.00    -0.324 C  
HETATM   25  C   UNL     1      -8.534  18.628  70.041  1.00  0.00     1.624 C  
HETATM   26  H   UNL     1      -4.929  18.555  70.443  1.00  0.00     0.000 HD 
HETATM   27  O   UNL     1      -5.246  18.744  69.567  1.00  0.00    -0.187 OA 
HETATM   28  C   UNL     1      -7.345  19.479  70.565  1.00  0.00     0.869 C  
ENDROOT
BRANCH   6  29
HETATM   29  C   UNL     1      -7.518  11.129  68.745  1.00  0.00    -0.118 C  
BRANCH  29  30
HETATM   30  C   UNL     1      -8.237   9.948  69.331  1.00  0.00    -0.146 C  
HETATM   31  O   UNL     1      -9.089  10.079  70.202  1.00  0.00    -0.181 OA 
HETATM   32  N   UNL     1      -7.838   8.720  68.835  1.00  0.00    -0.102 N  
HETATM   33  H   UNL     1      -7.153   8.682  68.080  1.00  0.00     0.000 HD 
BRANCH  32  34
HETATM   34  C   UNL     1      -8.375   7.489  69.369  1.00  0.00    -0.132 C  
BRANCH  34  35
HETATM   35  C   UNL     1      -8.582   6.446  68.271  1.00  0.00    -0.114 C  
HETATM   36  S   UNL     1      -7.679   6.906  66.813  1.00  0.00    -0.103 S  
HETATM   37  O   UNL     1      -8.168   5.705  65.850  1.00  0.00    -0.111 OA 
HETATM   38  O   UNL     1      -6.260   6.755  67.028  1.00  0.00    -0.034 OA 
HETATM   39  O   UNL     1      -8.254   8.113  66.261  1.00  0.00    -0.106 OA 
ENDBRANCH  34  35
ENDBRANCH  32  34
ENDBRANCH  29  30
ENDBRANCH   6  29
TORSDOF 4
ENDMDL
MODEL      141
REMARK 921   NORMALIZED FREE ENERGY PREDICTED BY IDOCK:   -1.65 KCAL/MOL
REMARK 922        TOTAL FREE ENERGY PREDICTED BY IDOCK:   -2.86 KCAL/MOL
REMARK 923 INTER-LIGAND FREE ENERGY PREDICTED BY IDOCK:   -3.94 KCAL/MOL
REMARK 924 INTRA-LIGAND FREE ENERGY PREDICTED BY IDOCK:    1.08 KCAL/MOL
REMARK 927      BINDING AFFINITY PREDICTED BY RF-SCORE:    0.00 PKD
ROOT
HETATM    1  C   UNL     1     -10.543  15.824  67.917  1.00  0.00    -0.282 C  
HETATM    2  C   UNL     1     -10.041  17.462  67.633  1.00  0.00    -0.327 C  
HETATM    3  C   UNL     1      -9.145  15.329  67.554  1.00  0.00    -0.189 C  
HETATM    4  C   UNL     1     -10.506  18.710  68.373  1.00  0.00    -0.259 C  
HETATM    5  C   UNL     1      -8.519  15.377  68.958  1.00  0.00    -0.229 C  
HETATM    6  C   UNL     1      -9.663  17.846  66.116  1.00  0.00    -0.227 C  
HETATM    7  C   UNL     1     -11.340  15.882  70.452  1.00  0.00    -0.399 C  
HETATM    8  C   UNL     1      -9.286  14.286  69.615  1.00  0.00     0.697 C  
HETATM    9  C   UNL     1      -9.021  12.920  68.794  1.00  0.00     0.175 C  
HETATM   10  H   UNL     1     -12.986  14.345  70.781  1.00  0.00     0.000 HD 
HETATM   11  O   UNL     1     -12.848  13.494  70.382  1.00  0.00    -0.152 OA 
HETATM   12  C   UNL     1     -10.766  14.860  69.438  1.00  0.00    -0.264 C  
HETATM   13  C   UNL     1      -7.535  12.626  68.523  1.00  0.00    -0.121 C  
HETATM   14  C   UNL     1     -11.484  13.441  69.945  1.00  0.00    -0.111 C  
HETATM   15  C   UNL     1      -7.477  11.680  67.359  1.00  0.00    -0.135 C  
HETATM   16  O   UNL     1      -6.716  13.696  68.074  1.00  0.00    -0.106 OA 
HETATM   17  C   UNL     1     -11.259  12.050  69.291  1.00  0.00    -0.291 C  
HETATM   18  C   UNL     1      -7.986  10.314  67.743  1.00  0.00    -0.102 C  
HETATM   19  C   UNL     1      -9.779  11.635  69.186  1.00  0.00     0.179 C  
HETATM   20  H   UNL     1      -5.798  13.515  67.907  1.00  0.00     0.000 HD 
HETATM   21  C   UNL     1      -9.757   9.058  69.033  1.00  0.00    -0.167 C  
HETATM   22  C   UNL     1      -7.567   9.380  66.593  1.00  0.00    -0.094 C  
HETATM   23  C   UNL     1      -9.486  10.334  68.187  1.00  0.00    -0.155 C  
HETATM   24  C   UNL     1      -8.521   9.175  65.431  1.00  0.00    -0.149 C  
HETATM   25  C   UNL     1     -10.389  10.236  66.905  1.00  0.00    -0.298 C  
HETATM   26  H   UNL     1      -8.858   9.947  63.628  1.00  0.00     0.000 HD 
HETATM   27  O   UNL     1      -8.261  10.076  64.355  1.00  0.00    -0.150 OA 
HETATM   28  C   UNL     1      -9.985   9.188  65.832  1.00  0.00    -0.232 C  
ENDROOT
BRANCH   6  29
HETATM   29  C   UNL     1     -10.669  17.666  64.992  1.00  0.00     0.542 C  
BRANCH  29  30
HETATM   30  C   UNL     1     -11.001  16.228  64.721  1.00  0.00    -0.272 C  
HETATM   31  O   UNL     1     -10.143  15.353  64.741  1.00  0.00    -0.268 OA 
HETATM   32  N   UNL     1     -12.329  15.984  64.419  1.00  0.00     0.025 N  
HETATM   33  H   UNL     1     -13.002  16.750  64.461  1.00  0.00     0.000 HD 
BRANCH  32  34
HETATM   34  C   UNL     1     -12.779  14.663  64.046  1.00  0.00     0.376 C  
BRANCH  34  35
HETATM   35  C   UNL     1     -11.639  13.827  63.465  1.00  0.00     0.192 C  
HETATM   36  S   UNL     1     -11.996  12.098  63.646  1.00  0.00    -0.537 S  
HETATM   37  O   UNL     1     -10.611  11.513  63.054  1.00  0.00    -0.270 OA 
HETATM   38  O   UNL     1     -13.063  11.705  62.758  1.00  0.00    -0.152 OA 
HETATM   39  O   UNL     1     -11.996  11.759  65.053  1.00  0.00    -0.189 OA 
ENDBRANCH  34  35
ENDBRANCH  32  34
ENDBRANCH  29  30
ENDBRANCH   6  29
TORSDOF 4
ENDMDL
MODEL      142
REMARK 921   NORMALIZED FREE ENERGY PREDICTED BY IDOCK:   -1.46 KCAL/MOL
REMARK 922        TOTAL FREE ENERGY PREDICTED BY IDOCK:   -2.62 KCAL/MOL
REMARK 923 INTER-LIGAND FREE ENERGY PREDICTED BY IDOCK:   -1.79 KCAL/MOL
REMARK 924 INTRA-LIGAND FREE ENERGY PREDICTED BY IDOCK:   -0.83 KCAL/MOL
REMARK 927      BINDING AFFINITY PREDICTED BY RF-SCORE:    0.00 PKD
ROOT
HETATM    1  C   UNL     1      -7.728   6.809  66.505  1.00  0.00    -0.102 C  
HETATM    2  C   UNL     1      -6.451   5.632  66.468  1.00  0.00    -0.050 C  
HETATM    3  C   UNL     1      -7.499   7.016  68.000  1.00  0.00    -0.099 C  
HETATM    4  C   UNL     1      -5.477   5.366  65.327  1.00  0.00    -0.013 C  
HETATM    5  C   UNL     1      -6.463   8.148  67.914  1.00  0.00    -0.053 C  
HETATM    6  C   UNL     1      -6.703   4.271  67.289  1.00  0.00    -0.047 C  
HETATM    7  C   UNL     1      -6.907   8.626  64.749  1.00  0.00    -0.073 C  
HETATM    8  C   UNL     1      -7.322   9.238  67.379  1.00  0.00    -0.087 C  
HETATM    9  C   UNL     1      -8.525   9.490  68.428  1.00  0.00    -0.119 C  
HETATM   10  H   UNL     1      -8.703   9.630  63.775  1.00  0.00     0.000 HD 
HETATM   11  O   UNL     1      -9.414   9.869  64.358  1.00  0.00    -0.283 OA 
HETATM   12  C   UNL     1      -7.797   8.555  66.016  1.00  0.00    -0.098 C  
HETATM   13  C   UNL     1      -8.064   9.653  69.887  1.00  0.00    -0.171 C  
HETATM   14  C   UNL     1      -8.929   9.740  65.701  1.00  0.00    -0.163 C  
HETATM   15  C   UNL     1      -9.249   9.352  70.760  1.00  0.00    -0.278 C  
HETATM   16  O   UNL     1      -7.093   8.744  70.385  1.00  0.00    -0.040 OA 
HETATM   17  C   UNL     1     -10.092  10.131  66.654  1.00  0.00    -0.283 C  
HETATM   18  C   UNL     1     -10.291  10.435  70.653  1.00  0.00     0.384 C  
HETATM   19  C   UNL     1      -9.640  10.497  68.081  1.00  0.00    -0.163 C  
HETATM   20  H   UNL     1      -6.808   8.845  71.285  1.00  0.00     0.000 HD 
HETATM   21  C   UNL     1     -11.501  11.988  69.071  1.00  0.00    -0.357 C  
HETATM   22  C   UNL     1     -11.266  10.184  71.818  1.00  0.00     0.693 C  
HETATM   23  C   UNL     1     -10.868  10.575  69.206  1.00  0.00    -0.284 C  
HETATM   24  C   UNL     1     -12.473   9.295  71.583  1.00  0.00    -0.368 C  
HETATM   25  C   UNL     1     -12.029   9.532  69.027  1.00  0.00     1.000 C  
HETATM   26  H   UNL     1     -12.973   7.379  71.791  1.00  0.00     0.000 HD 
HETATM   27  O   UNL     1     -12.218   7.936  71.938  1.00  0.00    -0.292 OA 
HETATM   28  C   UNL     1     -13.056   9.409  70.186  1.00  0.00     0.954 C  
ENDROOT
BRANCH   6  29
HETATM   29  C   UNL     1      -7.902   3.388  66.986  1.00  0.00    -0.079 C  
BRANCH  29  30
HETATM   30  C   UNL     1      -8.880   3.309  68.123  1.00  0.00    -0.124 C  
HETATM   31  O   UNL     1      -9.524   2.292  68.349  1.00  0.00    -0.200 OA 
HETATM   32  N   UNL     1      -9.012   4.473  68.858  1.00  0.00    -0.104 N  
HETATM   33  H   UNL     1      -8.415   5.272  68.644  1.00  0.00     0.000 HD 
BRANCH  32  34
HETATM   34  C   UNL     1      -9.982   4.576  69.924  1.00  0.00    -0.203 C  
BRANCH  34  35
HETATM   35  C   UNL     1      -9.578   5.636  70.948  1.00  0.00    -0.169 C  
HETATM   36  S   UNL     1      -9.334   4.888  72.539  1.00  0.00    -0.135 S  
HETATM   37  O   UNL     1      -9.030   6.232  73.382  1.00  0.00    -0.126 OA 
HETATM   38  O   UNL     1      -8.139   4.080  72.541  1.00  0.00    -0.087 OA 
HETATM   39  O   UNL     1     -10.604   4.395  73.029  1.00  0.00    -0.176 OA 
ENDBRANCH  34  35
ENDBRANCH  32  34
ENDBRANCH  29  30
ENDBRANCH   6  29
TORSDOF 4
ENDMDL
MODEL      143
REMARK 921   NORMALIZED FREE ENERGY PREDICTED BY IDOCK:   -1.39 KCAL/MOL
REMARK 922        TOTAL FREE ENERGY PREDICTED BY IDOCK:   -2.54 KCAL/MOL
REMARK 923 INTER-LIGAND FREE ENERGY PREDICTED BY IDOCK:   -4.49 KCAL/MOL
REMARK 924 INTRA-LIGAND FREE ENERGY PREDICTED BY IDOCK:    1.94 KCAL/MOL
REMARK 927      BINDING AFFINITY PREDICTED BY RF-SCORE:    0.00 PKD
ROOT
HETATM    1  C   UNL     1      -9.213  13.265  68.006  1.00  0.00    -0.217 C  
HETATM    2  C   UNL     1     -10.411  12.053  68.338  1.00  0.00    -0.231 C  
HETATM    3  C   UNL     1     -10.220  14.360  68.349  1.00  0.00    -0.243 C  
HETATM    4  C   UNL     1     -10.183  10.671  68.938  1.00  0.00    -0.216 C  
HETATM    5  C   UNL     1      -9.920  14.479  69.852  1.00  0.00     0.417 C  
HETATM    6  C   UNL     1     -11.680  12.006  67.348  1.00  0.00    -0.352 C  
HETATM    7  C   UNL     1      -7.263  12.645  69.703  1.00  0.00     0.515 C  
HETATM    8  C   UNL     1      -8.550  15.054  69.793  1.00  0.00     0.116 C  
HETATM    9  C   UNL     1      -8.628  16.458  68.997  1.00  0.00    -0.230 C  
HETATM   10  H   UNL     1      -5.252  13.254  68.827  1.00  0.00     0.000 HD 
HETATM   11  O   UNL     1      -5.219  14.107  68.410  1.00  0.00    -0.090 OA 
HETATM   12  C   UNL     1      -7.813  13.897  68.973  1.00  0.00     0.062 C  
HETATM   13  C   UNL     1      -9.733  17.405  69.499  1.00  0.00     0.243 C  
HETATM   14  C   UNL     1      -6.426  14.799  68.755  1.00  0.00    -0.087 C  
HETATM   15  C   UNL     1     -10.024  18.372  68.388  1.00  0.00    -0.406 C  
HETATM   16  O   UNL     1     -11.017  16.855  69.755  1.00  0.00    -0.400 OA 
HETATM   17  C   UNL     1      -6.373  16.194  68.073  1.00  0.00    -0.145 C  
HETATM   18  C   UNL     1      -8.878  19.330  68.186  1.00  0.00    -0.373 C  
HETATM   19  C   UNL     1      -7.331  17.232  68.687  1.00  0.00    -0.238 C  
HETATM   20  H   UNL     1     -11.699  17.439  70.065  1.00  0.00     0.000 HD 
HETATM   21  C   UNL     1      -6.364  19.552  68.094  1.00  0.00    -0.261 C  
HETATM   22  C   UNL     1      -9.429  20.446  67.280  1.00  0.00    -0.568 C  
HETATM   23  C   UNL     1      -7.555  18.606  67.771  1.00  0.00    -0.247 C  
HETATM   24  C   UNL     1      -9.292  20.300  65.775  1.00  0.00     0.067 C  
HETATM   25  C   UNL     1      -7.567  18.398  66.214  1.00  0.00    -0.289 C  
HETATM   26  H   UNL     1     -10.362  19.613  64.243  1.00  0.00     0.000 HD 
HETATM   27  O   UNL     1     -10.447  19.703  65.185  1.00  0.00    -0.200 OA 
HETATM   28  C   UNL     1      -8.016  19.602  65.341  1.00  0.00     0.379 C  
ENDROOT
BRANCH   6  29
HETATM   29  C   UNL     1     -11.496  11.812  65.853  1.00  0.00    -0.273 C  
BRANCH  29  30
HETATM   30  C   UNL     1     -10.057  11.844  65.425  1.00  0.00    -0.253 C  
HETATM   31  O   UNL     1      -9.704  12.399  64.391  1.00  0.00    -0.114 OA 
HETATM   32  N   UNL     1      -9.185  11.177  66.267  1.00  0.00    -0.188 N  
HETATM   33  H   UNL     1      -9.537  10.772  67.135  1.00  0.00     0.000 HD 
BRANCH  32  34
HETATM   34  C   UNL     1      -7.785  11.045  65.938  1.00  0.00    -0.012 C  
BRANCH  34  35
HETATM   35  C   UNL     1      -7.421   9.598  65.607  1.00  0.00    -0.101 C  
HETATM   36  S   UNL     1      -8.345   8.486  66.637  1.00  0.00    -0.114 S  
HETATM   37  O   UNL     1      -7.683   7.101  66.133  1.00  0.00    -0.092 OA 
HETATM   38  O   UNL     1      -9.737   8.480  66.256  1.00  0.00    -0.241 OA 
HETATM   39  O   UNL     1      -7.919   8.648  68.011  1.00  0.00    -0.105 OA 
ENDBRANCH  34  35
ENDBRANCH  32  34
ENDBRANCH  29  30
ENDBRANCH   6  29
TORSDOF 4
ENDMDL
MODEL      144
REMARK 921   NORMALIZED FREE ENERGY PREDICTED BY IDOCK:   -1.38 KCAL/MOL
REMARK 922        TOTAL FREE ENERGY PREDICTED BY IDOCK:   -2.53 KCAL/MOL
REMARK 923 INTER-LIGAND FREE ENERGY PREDICTED BY IDOCK:   -2.25 KCAL/MOL
REMARK 924 INTRA-LIGAND FREE ENERGY PREDICTED BY IDOCK:   -0.28 KCAL/MOL
REMARK 927      BINDING AFFINITY PREDICTED BY RF-SCORE:    0.00 PKD
ROOT
HETATM    1  C   UNL     1     -11.618   9.833  70.502  1.00  0.00    -0.365 C  
HETATM    2  C   UNL     1     -12.134  11.321  71.233  1.00  0.00    -0.150 C  
HETATM    3  C   UNL     1     -10.163  10.181  70.808  1.00  0.00     0.220 C  
HETATM    4  C   UNL     1     -13.415  11.565  72.021  1.00  0.00    -0.298 C  
HETATM    5  C   UNL     1     -10.064   9.529  72.197  1.00  0.00     1.125 C  
HETATM    6  C   UNL     1     -11.692  12.679  70.491  1.00  0.00     0.036 C  
HETATM    7  C   UNL     1     -12.897   7.997  71.935  1.00  0.00    -0.343 C  
HETATM    8  C   UNL     1     -10.170   8.097  71.812  1.00  0.00    -0.275 C  
HETATM    9  C   UNL     1      -8.952   7.755  70.807  1.00  0.00    -0.148 C  
HETATM   10  H   UNL     1     -13.329   6.171  70.646  1.00  0.00     0.000 HD 
HETATM   11  O   UNL     1     -12.620   5.878  70.087  1.00  0.00     1.737 OA 
HETATM   12  C   UNL     1     -11.598   8.119  71.098  1.00  0.00    -0.306 C  
HETATM   13  C   UNL     1      -7.572   8.215  71.311  1.00  0.00    -0.083 C  
HETATM   14  C   UNL     1     -11.434   6.570  70.500  1.00  0.00    -0.387 C  
HETATM   15  C   UNL     1      -6.675   8.316  70.111  1.00  0.00    -0.036 C  
HETATM   16  O   UNL     1      -7.466   9.517  71.867  1.00  0.00    -0.072 OA 
HETATM   17  C   UNL     1     -10.274   6.091  69.584  1.00  0.00    -0.268 C  
HETATM   18  C   UNL     1      -6.352   6.951  69.558  1.00  0.00    -0.039 C  
HETATM   19  C   UNL     1      -8.869   6.359  70.156  1.00  0.00    -0.150 C  
HETATM   20  H   UNL     1      -6.615   9.802  72.179  1.00  0.00     0.000 HD 
HETATM   21  C   UNL     1      -7.286   4.668  69.015  1.00  0.00    -0.053 C  
HETATM   22  C   UNL     1      -5.189   7.171  68.573  1.00  0.00    -0.017 C  
HETATM   23  C   UNL     1      -7.623   6.186  69.063  1.00  0.00    -0.091 C  
HETATM   24  C   UNL     1      -5.507   7.451  67.116  1.00  0.00    -0.029 C  
HETATM   25  C   UNL     1      -7.935   6.634  67.590  1.00  0.00    -0.115 C  
HETATM   26  H   UNL     1      -5.771   9.025  65.926  1.00  0.00     0.000 HD 
HETATM   27  O   UNL     1      -5.572   8.849  66.839  1.00  0.00    -0.040 OA 
HETATM   28  C   UNL     1      -6.736   6.720  66.606  1.00  0.00    -0.053 C  
ENDROOT
BRANCH   6  29
HETATM   29  C   UNL     1     -12.074  12.935  69.043  1.00  0.00    -0.198 C  
BRANCH  29  30
HETATM   30  C   UNL     1     -11.976  14.382  68.653  1.00  0.00    -0.297 C  
HETATM   31  O   UNL     1     -12.704  14.870  67.796  1.00  0.00     0.550 OA 
HETATM   32  N   UNL     1     -10.990  15.096  69.310  1.00  0.00    -0.245 N  
HETATM   33  H   UNL     1     -10.446  14.642  70.044  1.00  0.00     0.000 HD 
BRANCH  32  34
HETATM   34  C   UNL     1     -10.718  16.474  68.974  1.00  0.00    -0.332 C  
BRANCH  34  35
HETATM   35  C   UNL     1      -9.424  16.610  68.171  1.00  0.00    -0.228 C  
HETATM   36  S   UNL     1      -9.768  16.498  66.433  1.00  0.00    -0.303 S  
HETATM   37  O   UNL     1      -8.248  16.571  65.892  1.00  0.00    -0.345 OA 
HETATM   38  O   UNL     1     -10.462  17.678  65.977  1.00  0.00    -0.387 OA 
HETATM   39  O   UNL     1     -10.231  15.161  66.128  1.00  0.00    -0.266 OA 
ENDBRANCH  34  35
ENDBRANCH  32  34
ENDBRANCH  29  30
ENDBRANCH   6  29
TORSDOF 4
ENDMDL
MODEL      145
REMARK 921   NORMALIZED FREE ENERGY PREDICTED BY IDOCK:   -1.37 KCAL/MOL
REMARK 922        TOTAL FREE ENERGY PREDICTED BY IDOCK:   -2.52 KCAL/MOL
REMARK 923 INTER-LIGAND FREE ENERGY PREDICTED BY IDOCK:   -2.75 KCAL/MOL
REMARK 924 INTRA-LIGAND FREE ENERGY PREDICTED BY IDOCK:    0.24 KCAL/MOL
REMARK 927      BINDING AFFINITY PREDICTED BY RF-SCORE:    0.00 PKD
ROOT
HETATM    1  C   UNL     1      -8.454  11.601  68.170  1.00  0.00    -0.156 C  
HETATM    2  C   UNL     1      -6.774  11.227  67.936  1.00  0.00    -0.063 C  
HETATM    3  C   UNL     1      -8.071  12.797  69.038  1.00  0.00     0.350 C  
HETATM    4  C   UNL     1      -6.126  10.640  66.689  1.00  0.00    -0.081 C  
HETATM    5  C   UNL     1      -7.991  13.862  67.932  1.00  0.00    -0.160 C  
HETATM    6  C   UNL     1      -5.953  10.760  69.240  1.00  0.00    -0.043 C  
HETATM    7  C   UNL     1      -9.329  11.962  65.687  1.00  0.00    -0.125 C  
HETATM    8  C   UNL     1      -9.427  13.949  67.560  1.00  0.00    -0.216 C  
HETATM    9  C   UNL     1     -10.262  14.387  68.872  1.00  0.00    -0.215 C  
HETATM   10  H   UNL     1     -11.525  11.379  65.548  1.00  0.00     0.000 HD 
HETATM   11  O   UNL     1     -12.081  11.675  66.258  1.00  0.00    -0.333 OA 
HETATM   12  C   UNL     1      -9.679  12.433  67.121  1.00  0.00    -0.207 C  
HETATM   13  C   UNL     1      -9.683  15.610  69.606  1.00  0.00    -0.276 C  
HETATM   14  C   UNL     1     -11.332  12.633  67.018  1.00  0.00    -0.323 C  
HETATM   15  C   UNL     1     -10.206  15.568  71.013  1.00  0.00     0.690 C  
HETATM   16  O   UNL     1      -8.279  15.659  69.815  1.00  0.00    -0.164 OA 
HETATM   17  C   UNL     1     -12.242  13.117  68.181  1.00  0.00    -0.070 C  
HETATM   18  C   UNL     1     -11.682  15.866  71.053  1.00  0.00    -0.473 C  
HETATM   19  C   UNL     1     -11.801  14.452  68.811  1.00  0.00    -0.360 C  
HETATM   20  H   UNL     1      -7.922  16.414  70.267  1.00  0.00     0.000 HD 
HETATM   21  C   UNL     1     -13.903  15.459  69.922  1.00  0.00     1.657 C  
HETATM   22  C   UNL     1     -12.010  16.121  72.536  1.00  0.00    -0.660 C  
HETATM   23  C   UNL     1     -12.530  14.815  70.265  1.00  0.00    -0.393 C  
HETATM   24  C   UNL     1     -12.440  14.951  73.402  1.00  0.00    -0.446 C  
HETATM   25  C   UNL     1     -12.819  13.594  71.211  1.00  0.00    -0.424 C  
HETATM   26  H   UNL     1     -11.607  13.624  74.631  1.00  0.00     0.000 HD 
HETATM   27  O   UNL     1     -11.339  14.356  74.088  1.00  0.00     0.709 OA 
HETATM   28  C   UNL     1     -13.266  13.914  72.664  1.00  0.00    -0.592 C  
ENDROOT
BRANCH   6  29
HETATM   29  C   UNL     1      -6.395   9.553  70.049  1.00  0.00    -0.054 C  
BRANCH  29  30
HETATM   30  C   UNL     1      -6.397   8.278  69.256  1.00  0.00    -0.039 C  
HETATM   31  O   UNL     1      -7.138   7.344  69.538  1.00  0.00    -0.066 OA 
HETATM   32  N   UNL     1      -5.481   8.237  68.219  1.00  0.00    -0.033 N  
HETATM   33  H   UNL     1      -4.923   9.065  68.010  1.00  0.00     0.000 HD 
BRANCH  32  34
HETATM   34  C   UNL     1      -5.304   7.042  67.428  1.00  0.00    -0.013 C  
BRANCH  34  35
HETATM   35  C   UNL     1      -6.467   6.836  66.457  1.00  0.00    -0.043 C  
HETATM   36  S   UNL     1      -5.859   6.689  64.796  1.00  0.00    -0.031 S  
HETATM   37  O   UNL     1      -7.281   6.589  64.037  1.00  0.00    -0.057 OA 
HETATM   38  O   UNL     1      -5.169   5.434  64.619  1.00  0.00    -0.009 OA 
HETATM   39  O   UNL     1      -5.283   7.953  64.389  1.00  0.00    -0.035 OA 
ENDBRANCH  34  35
ENDBRANCH  32  34
ENDBRANCH  29  30
ENDBRANCH   6  29
TORSDOF 4
ENDMDL
MODEL      146
REMARK 921   NORMALIZED FREE ENERGY PREDICTED BY IDOCK:   -1.19 KCAL/MOL
REMARK 922        TOTAL FREE ENERGY PREDICTED BY IDOCK:   -2.29 KCAL/MOL
REMARK 923 INTER-LIGAND FREE ENERGY PREDICTED BY IDOCK:   -1.64 KCAL/MOL
REMARK 924 INTRA-LIGAND FREE ENERGY PREDICTED BY IDOCK:   -0.64 KCAL/MOL
REMARK 927      BINDING AFFINITY PREDICTED BY RF-SCORE:    0.00 PKD
ROOT
HETATM    1  C   UNL     1     -10.008   9.341  69.584  1.00  0.00    -0.201 C  
HETATM    2  C   UNL     1     -10.629   8.908  71.146  1.00  0.00    -0.335 C  
HETATM    3  C   UNL     1     -11.127  10.366  69.418  1.00  0.00    -0.304 C  
HETATM    4  C   UNL     1      -9.828   8.480  72.370  1.00  0.00    -0.358 C  
HETATM    5  C   UNL     1     -10.413  11.580  70.035  1.00  0.00     0.843 C  
HETATM    6  C   UNL     1     -12.074   8.200  71.176  1.00  0.00    -0.281 C  
HETATM    7  C   UNL     1      -7.528  10.126  70.131  1.00  0.00    -0.146 C  
HETATM    8  C   UNL     1      -9.365  11.807  69.005  1.00  0.00     0.194 C  
HETATM    9  C   UNL     1     -10.099  12.090  67.594  1.00  0.00    -0.205 C  
HETATM   10  H   UNL     1      -6.172   9.703  68.353  1.00  0.00     0.000 HD 
HETATM   11  O   UNL     1      -6.525   9.920  67.497  1.00  0.00    -0.066 OA 
HETATM   12  C   UNL     1      -8.623  10.394  69.067  1.00  0.00    -0.158 C  
HETATM   13  C   UNL     1     -11.213  13.150  67.665  1.00  0.00    -0.282 C  
HETATM   14  C   UNL     1      -7.705  10.705  67.708  1.00  0.00    -0.100 C  
HETATM   15  C   UNL     1     -12.112  12.926  66.483  1.00  0.00    -0.375 C  
HETATM   16  O   UNL     1     -12.128  13.084  68.748  1.00  0.00    -0.293 OA 
HETATM   17  C   UNL     1      -8.282  11.059  66.310  1.00  0.00    -0.164 C  
HETATM   18  C   UNL     1     -11.422  13.301  65.197  1.00  0.00    -0.319 C  
HETATM   19  C   UNL     1      -9.254  12.254  66.314  1.00  0.00    -0.171 C  
HETATM   20  H   UNL     1     -12.815  13.739  68.793  1.00  0.00     0.000 HD 
HETATM   21  C   UNL     1      -9.249  13.203  63.913  1.00  0.00     2.611 C  
HETATM   22  C   UNL     1     -12.534  13.346  64.132  1.00  0.00    -0.312 C  
HETATM   23  C   UNL     1     -10.150  12.434  64.920  1.00  0.00    -0.259 C  
HETATM   24  C   UNL     1     -12.847  12.086  63.347  1.00  0.00    -0.291 C  
HETATM   25  C   UNL     1     -10.596  11.103  64.215  1.00  0.00    -0.425 C  
HETATM   26  H   UNL     1     -14.098  10.540  63.451  1.00  0.00     0.000 HD 
HETATM   27  O   UNL     1     -13.902  11.330  63.942  1.00  0.00     0.652 OA 
HETATM   28  C   UNL     1     -11.631  11.224  63.063  1.00  0.00     0.487 C  
ENDROOT
BRANCH   6  29
HETATM   29  C   UNL     1     -12.327   6.913  70.411  1.00  0.00    -0.085 C  
BRANCH  29  30
HETATM   30  C   UNL     1     -11.202   5.926  70.525  1.00  0.00    -0.223 C  
HETATM   31  O   UNL     1     -10.936   5.371  71.585  1.00  0.00    -0.209 OA 
HETATM   32  N   UNL     1     -10.483   5.726  69.360  1.00  0.00    -0.260 N  
HETATM   33  H   UNL     1     -10.782   6.186  68.501  1.00  0.00     0.000 HD 
BRANCH  32  34
HETATM   34  C   UNL     1      -9.316   4.875  69.341  1.00  0.00    -0.127 C  
BRANCH  34  35
HETATM   35  C   UNL     1      -9.234   4.067  68.046  1.00  0.00    -0.154 C  
HETATM   36  S   UNL     1      -7.824   4.578  67.096  1.00  0.00    -0.098 S  
HETATM   37  O   UNL     1      -8.070   3.647  65.799  1.00  0.00    -0.092 OA 
HETATM   38  O   UNL     1      -6.602   4.145  67.730  1.00  0.00    -0.041 OA 
HETATM   39  O   UNL     1      -8.023   5.939  66.647  1.00  0.00    -0.100 OA 
ENDBRANCH  34  35
ENDBRANCH  32  34
ENDBRANCH  29  30
ENDBRANCH   6  29
TORSDOF 4
ENDMDL
MODEL      147
REMARK 921   NORMALIZED FREE ENERGY PREDICTED BY IDOCK:   -0.56 KCAL/MOL
REMARK 922        TOTAL FREE ENERGY PREDICTED BY IDOCK:   -1.52 KCAL/MOL
REMARK 923 INTER-LIGAND FREE ENERGY PREDICTED BY IDOCK:   -2.50 KCAL/MOL
REMARK 924 INTRA-LIGAND FREE ENERGY PREDICTED BY IDOCK:    0.98 KCAL/MOL
REMARK 927      BINDING AFFINITY PREDICTED BY RF-SCORE:    0.00 PKD
ROOT
HETATM    1  C   UNL     1      -9.607  10.699  68.442  1.00  0.00    -0.170 C  
HETATM    2  C   UNL     1     -11.090  11.504  68.855  1.00  0.00    -0.288 C  
HETATM    3  C   UNL     1     -10.396   9.483  67.962  1.00  0.00    -0.260 C  
HETATM    4  C   UNL     1     -11.385  12.996  68.764  1.00  0.00    -0.332 C  
HETATM    5  C   UNL     1     -10.576   9.898  66.493  1.00  0.00    -0.156 C  
HETATM    6  C   UNL     1     -11.949  10.858  70.054  1.00  0.00    -0.429 C  
HETATM    7  C   UNL     1      -8.499  12.366  66.693  1.00  0.00    -0.033 C  
HETATM    8  C   UNL     1      -9.168   9.801  66.028  1.00  0.00    -0.226 C  
HETATM    9  C   UNL     1      -8.667   8.282  66.253  1.00  0.00    -0.173 C  
HETATM   10  H   UNL     1      -6.231  12.213  66.809  1.00  0.00     0.000 HD 
HETATM   11  O   UNL     1      -5.874  11.335  66.868  1.00  0.00    -0.078 OA 
HETATM   12  C   UNL     1      -8.488  10.851  67.022  1.00  0.00    -0.134 C  
HETATM   13  C   UNL     1      -9.630   7.213  65.705  1.00  0.00     0.434 C  
HETATM   14  C   UNL     1      -6.939  10.420  66.577  1.00  0.00    -0.112 C  
HETATM   15  C   UNL     1      -9.322   5.931  66.424  1.00  0.00    -0.171 C  
HETATM   16  O   UNL     1     -11.017   7.371  65.965  1.00  0.00     0.851 OA 
HETATM   17  C   UNL     1      -6.355   8.983  66.674  1.00  0.00    -0.066 C  
HETATM   18  C   UNL     1      -7.987   5.377  65.998  1.00  0.00    -0.105 C  
HETATM   19  C   UNL     1      -7.199   7.911  65.958  1.00  0.00    -0.073 C  
HETATM   20  H   UNL     1     -11.612   6.712  65.626  1.00  0.00     0.000 HD 
HETATM   21  C   UNL     1      -5.595   5.958  65.431  1.00  0.00    -0.020 C  
HETATM   22  C   UNL     1      -7.949   3.935  66.536  1.00  0.00    -0.097 C  
HETATM   23  C   UNL     1      -6.800   6.338  66.337  1.00  0.00    -0.062 C  
HETATM   24  C   UNL     1      -7.373   3.684  67.917  1.00  0.00    -0.062 C  
HETATM   25  C   UNL     1      -6.357   6.081  67.822  1.00  0.00    -0.037 C  
HETATM   26  H   UNL     1      -8.020   3.528  69.794  1.00  0.00     0.000 HD 
HETATM   27  O   UNL     1      -8.380   3.685  68.929  1.00  0.00    -0.070 OA 
HETATM   28  C   UNL     1      -6.218   4.601  68.274  1.00  0.00    -0.035 C  
ENDROOT
BRANCH   6  29
HETATM   29  C   UNL     1     -11.343  10.669  71.434  1.00  0.00     0.617 C  
BRANCH  29  30
HETATM   30  C   UNL     1     -10.337   9.556  71.490  1.00  0.00    -0.043 C  
HETATM   31  O   UNL     1      -9.500   9.398  70.608  1.00  0.00    -0.251 OA 
HETATM   32  N   UNL     1     -10.455   8.720  72.586  1.00  0.00    -0.044 N  
HETATM   33  H   UNL     1     -11.145   8.932  73.306  1.00  0.00     0.000 HD 
BRANCH  32  34
HETATM   34  C   UNL     1      -9.615   7.553  72.728  1.00  0.00    -0.178 C  
BRANCH  34  35
HETATM   35  C   UNL     1     -10.311   6.296  72.206  1.00  0.00    -0.190 C  
HETATM   36  S   UNL     1      -9.598   4.850  72.947  1.00  0.00    -0.138 S  
HETATM   37  O   UNL     1     -10.448   3.736  72.143  1.00  0.00    -0.102 OA 
HETATM   38  O   UNL     1      -9.958   4.766  74.342  1.00  0.00    -0.158 OA 
HETATM   39  O   UNL     1      -8.232   4.708  72.490  1.00  0.00    -0.110 OA 
ENDBRANCH  34  35
ENDBRANCH  32  34
ENDBRANCH  29  30
ENDBRANCH   6  29
TORSDOF 4
ENDMDL
MODEL      148
REMARK 921   NORMALIZED FREE ENERGY PREDICTED BY IDOCK:   -0.45 KCAL/MOL
REMARK 922        TOTAL FREE ENERGY PREDICTED BY IDOCK:   -1.38 KCAL/MOL
REMARK 923 INTER-LIGAND FREE ENERGY PREDICTED BY IDOCK:   -1.78 KCAL/MOL
REMARK 924 INTRA-LIGAND FREE ENERGY PREDICTED BY IDOCK:    0.40 KCAL/MOL
REMARK 927      BINDING AFFINITY PREDICTED BY RF-SCORE:    0.00 PKD
ROOT
HETATM    1  C   UNL     1      -7.020   8.835  69.217  1.00  0.00    -0.058 C  
HETATM    2  C   UNL     1      -5.710   9.969  69.341  1.00  0.00    -0.037 C  
HETATM    3  C   UNL     1      -6.241   8.044  68.169  1.00  0.00    -0.046 C  
HETATM    4  C   UNL     1      -5.250  10.713  70.588  1.00  0.00    -0.082 C  
HETATM    5  C   UNL     1      -5.502   7.083  69.116  1.00  0.00    -0.015 C  
HETATM    6  C   UNL     1      -5.411  10.867  68.038  1.00  0.00    -0.039 C  
HETATM    7  C   UNL     1      -7.246   7.923  71.703  1.00  0.00    -0.069 C  
HETATM    8  C   UNL     1      -6.651   6.277  69.605  1.00  0.00    -0.047 C  
HETATM    9  C   UNL     1      -7.353   5.575  68.330  1.00  0.00    -0.076 C  
HETATM   10  H   UNL     1      -9.406   7.340  72.121  1.00  0.00     0.000 HD 
HETATM   11  O   UNL     1      -9.849   6.858  71.432  1.00  0.00    -0.178 OA 
HETATM   12  C   UNL     1      -7.531   7.439  70.259  1.00  0.00    -0.083 C  
HETATM   13  C   UNL     1      -6.373   4.848  67.393  1.00  0.00    -0.040 C  
HETATM   14  C   UNL     1      -8.852   6.446  70.489  1.00  0.00    -0.144 C  
HETATM   15  C   UNL     1      -7.049   4.723  66.058  1.00  0.00    -0.075 C  
HETATM   16  O   UNL     1      -5.164   5.509  67.050  1.00  0.00    -0.004 OA 
HETATM   17  C   UNL     1      -9.576   5.658  69.362  1.00  0.00    -0.187 C  
HETATM   18  C   UNL     1      -8.191   3.741  66.117  1.00  0.00    -0.101 C  
HETATM   19  C   UNL     1      -8.646   4.758  68.526  1.00  0.00    -0.101 C  
HETATM   20  H   UNL     1      -4.558   5.060  66.472  1.00  0.00     0.000 HD 
HETATM   21  C   UNL     1     -10.146   2.927  67.494  1.00  0.00     1.179 C  
HETATM   22  C   UNL     1      -8.568   3.460  64.651  1.00  0.00    -0.101 C  
HETATM   23  C   UNL     1      -9.315   4.184  67.111  1.00  0.00    -0.198 C  
HETATM   24  C   UNL     1      -9.625   4.324  63.988  1.00  0.00    -0.107 C  
HETATM   25  C   UNL     1     -10.286   5.166  66.363  1.00  0.00    -0.303 C  
HETATM   26  H   UNL     1      -9.717   5.969  62.870  1.00  0.00     0.000 HD 
HETATM   27  O   UNL     1      -9.055   5.428  63.285  1.00  0.00     0.141 OA 
HETATM   28  C   UNL     1     -10.730   4.768  64.929  1.00  0.00     0.220 C  
ENDROOT
BRANCH   6  29
HETATM   29  C   UNL     1      -6.489  11.752  67.438  1.00  0.00    -0.116 C  
BRANCH  29  30
HETATM   30  C   UNL     1      -7.830  11.082  67.361  1.00  0.00    -0.118 C  
HETATM   31  O   UNL     1      -7.982  10.005  66.795  1.00  0.00    -0.112 OA 
HETATM   32  N   UNL     1      -8.867  11.788  67.945  1.00  0.00    -0.158 N  
HETATM   33  H   UNL     1      -8.667  12.658  68.437  1.00  0.00     0.000 HD 
BRANCH  32  34
HETATM   34  C   UNL     1     -10.229  11.311  67.869  1.00  0.00    -0.181 C  
BRANCH  34  35
HETATM   35  C   UNL     1     -10.963  11.501  69.196  1.00  0.00    -0.224 C  
HETATM   36  S   UNL     1     -11.577  13.162  69.323  1.00  0.00    -0.316 S  
HETATM   37  O   UNL     1     -12.185  13.070  70.817  1.00  0.00    -0.363 OA 
HETATM   38  O   UNL     1     -12.674  13.367  68.407  1.00  0.00     0.451 OA 
HETATM   39  O   UNL     1     -10.458  14.075  69.408  1.00  0.00    -0.093 OA 
ENDBRANCH  34  35
ENDBRANCH  32  34
ENDBRANCH  29  30
ENDBRANCH   6  29
TORSDOF 4
ENDMDL
MODEL      149
REMARK 921   NORMALIZED FREE ENERGY PREDICTED BY IDOCK:   -0.17 KCAL/MOL
REMARK 922        TOTAL FREE ENERGY PREDICTED BY IDOCK:   -1.03 KCAL/MOL
REMARK 923 INTER-LIGAND FREE ENERGY PREDICTED BY IDOCK:   -0.59 KCAL/MOL
REMARK 924 INTRA-LIGAND FREE ENERGY PREDICTED BY IDOCK:   -0.44 KCAL/MOL
REMARK 927      BINDING AFFINITY PREDICTED BY RF-SCORE:    0.00 PKD
ROOT
HETATM    1  C   UNL     1     -10.009   8.241  68.318  1.00  0.00    -0.217 C  
HETATM    2  C   UNL     1     -10.747   6.959  69.227  1.00  0.00    -0.265 C  
HETATM    3  C   UNL     1      -9.093   8.556  69.498  1.00  0.00    -0.150 C  
HETATM    4  C   UNL     1     -11.277   5.635  68.690  1.00  0.00     0.316 C  
HETATM    5  C   UNL     1      -7.924   7.627  69.129  1.00  0.00    -0.120 C  
HETATM    6  C   UNL     1     -11.596   7.392  70.524  1.00  0.00    -0.256 C  
HETATM    7  C   UNL     1      -9.067   6.980  66.177  1.00  0.00    -0.149 C  
HETATM    8  C   UNL     1      -7.429   8.316  67.908  1.00  0.00    -0.098 C  
HETATM    9  C   UNL     1      -7.004   9.820  68.316  1.00  0.00    -0.073 C  
HETATM   10  H   UNL     1      -9.060   8.388  64.389  1.00  0.00     0.000 HD 
HETATM   11  O   UNL     1      -8.748   9.271  64.554  1.00  0.00    -0.189 OA 
HETATM   12  C   UNL     1      -8.749   8.246  67.012  1.00  0.00    -0.132 C  
HETATM   13  C   UNL     1      -6.090   9.904  69.552  1.00  0.00    -0.044 C  
HETATM   14  C   UNL     1      -8.133   9.272  65.849  1.00  0.00    -0.111 C  
HETATM   15  C   UNL     1      -6.217  11.295  70.102  1.00  0.00    -0.147 C  
HETATM   16  O   UNL     1      -6.422   9.109  70.681  1.00  0.00    -0.051 OA 
HETATM   17  C   UNL     1      -7.624  10.715  66.119  1.00  0.00    -0.138 C  
HETATM   18  C   UNL     1      -5.572  12.303  69.184  1.00  0.00    -0.066 C  
HETATM   19  C   UNL     1      -6.552  10.808  67.222  1.00  0.00    -0.075 C  
HETATM   20  H   UNL     1      -5.858   9.160  71.443  1.00  0.00     0.000 HD 
HETATM   21  C   UNL     1      -5.239  12.986  66.776  1.00  0.00     1.079 C  
HETATM   22  C   UNL     1      -5.475  13.602  70.004  1.00  0.00    -0.106 C  
HETATM   23  C   UNL     1      -6.248  12.351  67.774  1.00  0.00    -0.111 C  
HETATM   24  C   UNL     1      -6.621  14.595  69.941  1.00  0.00    -0.167 C  
HETATM   25  C   UNL     1      -7.489  13.311  67.847  1.00  0.00    -0.143 C  
HETATM   26  H   UNL     1      -8.285  15.014  70.950  1.00  0.00     0.000 HD 
HETATM   27  O   UNL     1      -7.567  14.393  70.990  1.00  0.00     1.530 OA 
HETATM   28  C   UNL     1      -7.296  14.665  68.583  1.00  0.00    -0.125 C  
ENDROOT
BRANCH   6  29
HETATM   29  C   UNL     1     -12.766   8.354  70.404  1.00  0.00     0.795 C  
BRANCH  29  30
HETATM   30  C   UNL     1     -12.458   9.728  70.927  1.00  0.00    -0.277 C  
HETATM   31  O   UNL     1     -12.933  10.138  71.980  1.00  0.00    -0.424 OA 
HETATM   32  N   UNL     1     -11.634  10.488  70.117  1.00  0.00    -0.300 N  
HETATM   33  H   UNL     1     -11.238  10.072  69.273  1.00  0.00     0.000 HD 
BRANCH  32  34
HETATM   34  C   UNL     1     -11.325  11.860  70.445  1.00  0.00     0.444 C  
BRANCH  34  35
HETATM   35  C   UNL     1     -12.571  12.744  70.385  1.00  0.00    -0.053 C  
HETATM   36  S   UNL     1     -12.297  14.249  71.285  1.00  0.00    -0.365 S  
HETATM   37  O   UNL     1     -13.772  14.888  71.122  1.00  0.00    -0.407 OA 
HETATM   38  O   UNL     1     -11.363  15.096  70.582  1.00  0.00    -0.267 OA 
HETATM   39  O   UNL     1     -12.155  13.940  72.691  1.00  0.00     0.270 OA 
ENDBRANCH  34  35
ENDBRANCH  32  34
ENDBRANCH  29  30
ENDBRANCH   6  29
TORSDOF 4
ENDMDL
MODEL      150
REMARK 921   NORMALIZED FREE ENERGY PREDICTED BY IDOCK:    0.06 KCAL/MOL
REMARK 922        TOTAL FREE ENERGY PREDICTED BY IDOCK:   -0.75 KCAL/MOL
REMARK 923 INTER-LIGAND FREE ENERGY PREDICTED BY IDOCK:   -1.12 KCAL/MOL
REMARK 924 INTRA-LIGAND FREE ENERGY PREDICTED BY IDOCK:    0.37 KCAL/MOL
REMARK 927      BINDING AFFINITY PREDICTED BY RF-SCORE:    0.00 PKD
ROOT
HETATM    1  C   UNL     1      -7.565   9.353  67.880  1.00  0.00    -0.087 C  
HETATM    2  C   UNL     1      -6.311   9.054  69.043  1.00  0.00    -0.043 C  
HETATM    3  C   UNL     1      -7.382  10.858  68.064  1.00  0.00    -0.088 C  
HETATM    4  C   UNL     1      -5.304   7.910  69.039  1.00  0.00    -0.023 C  
HETATM    5  C   UNL     1      -6.322  11.089  66.975  1.00  0.00    -0.088 C  
HETATM    6  C   UNL     1      -6.616   9.496  70.560  1.00  0.00    -0.094 C  
HETATM    7  C   UNL     1      -6.652   8.138  65.700  1.00  0.00    -0.049 C  
HETATM    8  C   UNL     1      -7.141  10.826  65.763  1.00  0.00    -0.053 C  
HETATM    9  C   UNL     1      -8.373  11.871  65.752  1.00  0.00     0.479 C  
HETATM   10  H   UNL     1      -8.395   7.403  64.435  1.00  0.00     0.000 HD 
HETATM   11  O   UNL     1      -9.120   8.008  64.332  1.00  0.00     0.556 OA 
HETATM   12  C   UNL     1      -7.584   9.321  66.066  1.00  0.00    -0.096 C  
HETATM   13  C   UNL     1      -7.958  13.336  65.976  1.00  0.00     2.106 C  
HETATM   14  C   UNL     1      -8.682   9.286  64.810  1.00  0.00    -0.188 C  
HETATM   15  C   UNL     1      -9.176  14.072  66.455  1.00  0.00    -0.187 C  
HETATM   16  O   UNL     1      -7.022  13.613  67.007  1.00  0.00    -0.400 OA 
HETATM   17  C   UNL     1      -9.868  10.276  64.641  1.00  0.00    -0.396 C  
HETATM   18  C   UNL     1     -10.194  14.214  65.352  1.00  0.00    -0.380 C  
HETATM   19  C   UNL     1      -9.457  11.760  64.660  1.00  0.00    -0.009 C  
HETATM   20  H   UNL     1      -6.765  14.517  67.145  1.00  0.00     0.000 HD 
HETATM   21  C   UNL     1     -11.321  13.046  63.417  1.00  0.00    -0.208 C  
HETATM   22  C   UNL     1     -11.211  15.251  65.863  1.00  0.00    -0.237 C  
HETATM   23  C   UNL     1     -10.719  12.835  64.836  1.00  0.00    -0.329 C  
HETATM   24  C   UNL     1     -12.427  14.766  66.632  1.00  0.00     0.305 C  
HETATM   25  C   UNL     1     -11.894  12.366  65.768  1.00  0.00    -0.467 C  
HETATM   26  H   UNL     1     -12.970  14.467  68.524  1.00  0.00     0.000 HD 
HETATM   27  O   UNL     1     -12.209  14.771  68.042  1.00  0.00    -0.200 OA 
HETATM   28  C   UNL     1     -12.961  13.428  66.152  1.00  0.00     0.299 C  
ENDROOT
BRANCH   6  29
HETATM   29  C   UNL     1      -7.820   8.947  71.305  1.00  0.00    -0.163 C  
BRANCH  29  30
HETATM   30  C   UNL     1      -8.964   8.591  70.399  1.00  0.00    -0.152 C  
HETATM   31  O   UNL     1      -9.897   9.361  70.206  1.00  0.00    -0.209 OA 
HETATM   32  N   UNL     1      -8.890   7.328  69.839  1.00  0.00    -0.142 N  
HETATM   33  H   UNL     1      -8.065   6.752  70.006  1.00  0.00     0.000 HD 
BRANCH  32  34
HETATM   34  C   UNL     1      -9.962   6.813  69.019  1.00  0.00    -0.155 C  
BRANCH  34  35
HETATM   35  C   UNL     1     -10.922   5.946  69.834  1.00  0.00    -0.374 C  
HETATM   36  S   UNL     1     -10.145   5.424  71.342  1.00  0.00    -0.209 S  
HETATM   37  O   UNL     1     -11.332   4.483  71.901  1.00  0.00     0.442 OA 
HETATM   38  O   UNL     1      -9.995   6.538  72.247  1.00  0.00    -0.165 OA 
HETATM   39  O   UNL     1      -9.050   4.531  71.025  1.00  0.00    -0.122 OA 
ENDBRANCH  34  35
ENDBRANCH  32  34
ENDBRANCH  29  30
ENDBRANCH   6  29
TORSDOF 4
ENDMDL
MODEL      151
REMARK 921   NORMALIZED FREE ENERGY PREDICTED BY IDOCK:    0.12 KCAL/MOL
REMARK 922        TOTAL FREE ENERGY PREDICTED BY IDOCK:   -0.68 KCAL/MOL
REMARK 923 INTER-LIGAND FREE ENERGY PREDICTED BY IDOCK:   -1.47 KCAL/MOL
REMARK 924 INTRA-LIGAND FREE ENERGY PREDICTED BY IDOCK:    0.79 KCAL/MOL
REMARK 927      BINDING AFFINITY PREDICTED BY RF-SCORE:    0.00 PKD
ROOT
HETATM    1  C   UNL     1     -10.018   9.102  69.624  1.00  0.00    -0.198 C  
HETATM    2  C   UNL     1     -10.604   8.565  71.168  1.00  0.00    -0.277 C  
HETATM    3  C   UNL     1     -11.126  10.151  69.564  1.00  0.00    -0.295 C  
HETATM    4  C   UNL     1      -9.777   8.040  72.335  1.00  0.00    -0.305 C  
HETATM    5  C   UNL     1     -10.378  11.308  70.247  1.00  0.00     1.259 C  
HETATM    6  C   UNL     1     -12.058   7.875  71.185  1.00  0.00    -0.294 C  
HETATM    7  C   UNL     1      -7.514   9.815  70.159  1.00  0.00    -0.170 C  
HETATM    8  C   UNL     1      -9.354  11.596  69.208  1.00  0.00     0.454 C  
HETATM    9  C   UNL     1     -10.121  11.989  67.841  1.00  0.00    -0.199 C  
HETATM   10  H   UNL     1      -6.210   9.504  68.319  1.00  0.00     0.000 HD 
HETATM   11  O   UNL     1      -6.582   9.787  67.491  1.00  0.00    -0.068 OA 
HETATM   12  C   UNL     1      -8.632  10.172  69.147  1.00  0.00    -0.167 C  
HETATM   13  C   UNL     1     -11.217  13.055  68.018  1.00  0.00    -0.278 C  
HETATM   14  C   UNL     1      -7.746  10.569  67.790  1.00  0.00    -0.093 C  
HETATM   15  C   UNL     1     -12.150  12.928  66.848  1.00  0.00    -0.313 C  
HETATM   16  O   UNL     1     -12.104  12.922  69.119  1.00  0.00    -0.266 OA 
HETATM   17  C   UNL     1      -8.354  11.031  66.437  1.00  0.00    -0.165 C  
HETATM   18  C   UNL     1     -11.489  13.387  65.574  1.00  0.00    -0.324 C  
HETATM   19  C   UNL     1      -9.308  12.235  66.554  1.00  0.00    -0.230 C  
HETATM   20  H   UNL     1     -12.780  13.581  69.229  1.00  0.00     0.000 HD 
HETATM   21  C   UNL     1      -9.352  13.355  64.228  1.00  0.00     1.869 C  
HETATM   22  C   UNL     1     -12.627  13.523  64.546  1.00  0.00    -0.262 C  
HETATM   23  C   UNL     1     -10.237  12.527  65.201  1.00  0.00    -0.299 C  
HETATM   24  C   UNL     1     -12.979  12.327  63.681  1.00  0.00    -0.173 C  
HETATM   25  C   UNL     1     -10.720  11.256  64.414  1.00  0.00    -0.407 C  
HETATM   26  H   UNL     1     -14.249  10.794  63.707  1.00  0.00     0.000 HD 
HETATM   27  O   UNL     1     -14.028  11.543  64.249  1.00  0.00     0.875 OA 
HETATM   28  C   UNL     1     -11.783  11.473  63.302  1.00  0.00    -0.107 C  
ENDROOT
BRANCH   6  29
HETATM   29  C   UNL     1     -12.350   6.650  70.337  1.00  0.00     0.003 C  
BRANCH  29  30
HETATM   30  C   UNL     1     -11.119   5.862  69.993  1.00  0.00    -0.341 C  
HETATM   31  O   UNL     1     -10.921   5.436  68.861  1.00  0.00    -0.082 OA 
HETATM   32  N   UNL     1     -10.259   5.634  71.053  1.00  0.00    -0.209 N  
HETATM   33  H   UNL     1     -10.461   6.053  71.961  1.00  0.00     0.000 HD 
BRANCH  32  34
HETATM   34  C   UNL     1      -9.081   4.814  70.895  1.00  0.00    -0.134 C  
BRANCH  34  35
HETATM   35  C   UNL     1      -8.852   3.922  72.115  1.00  0.00    -0.105 C  
HETATM   36  S   UNL     1      -7.965   2.458  71.644  1.00  0.00    -0.048 S  
HETATM   37  O   UNL     1      -7.975   1.711  73.077  1.00  0.00    -0.045 OA 
HETATM   38  O   UNL     1      -6.597   2.778  71.317  1.00  0.00    -0.025 OA 
HETATM   39  O   UNL     1      -8.801   1.657  70.777  1.00  0.00    -0.052 OA 
ENDBRANCH  34  35
ENDBRANCH  32  34
ENDBRANCH  29  30
ENDBRANCH   6  29
TORSDOF 4
ENDMDL
MODEL      152
REMARK 921   NORMALIZED FREE ENERGY PREDICTED BY IDOCK:    0.20 KCAL/MOL
REMARK 922        TOTAL FREE ENERGY PREDICTED BY IDOCK:   -0.58 KCAL/MOL
REMARK 923 INTER-LIGAND FREE ENERGY PREDICTED BY IDOCK:   -0.17 KCAL/MOL
REMARK 924 INTRA-LIGAND FREE ENERGY PREDICTED BY IDOCK:   -0.40 KCAL/MOL
REMARK 927      BINDING AFFINITY PREDICTED BY RF-SCORE:    0.00 PKD
ROOT
HETATM    1  C   UNL     1      -9.783  13.765  67.844  1.00  0.00    -0.229 C  
HETATM    2  C   UNL     1      -9.291  12.185  67.319  1.00  0.00    -0.183 C  
HETATM    3  C   UNL     1      -8.511  14.364  67.248  1.00  0.00    -0.229 C  
HETATM    4  C   UNL     1     -10.189  11.051  66.841  1.00  0.00    -0.263 C  
HETATM    5  C   UNL     1      -9.046  14.669  65.840  1.00  0.00     0.117 C  
HETATM    6  C   UNL     1      -7.977  11.571  68.018  1.00  0.00    -0.130 C  
HETATM    7  C   UNL     1     -12.125  14.087  66.629  1.00  0.00    -0.487 C  
HETATM    8  C   UNL     1     -10.010  15.754  66.164  1.00  0.00    -0.334 C  
HETATM    9  C   UNL     1      -9.193  16.960  66.863  1.00  0.00    -0.253 C  
HETATM   10  H   UNL     1     -13.471  15.426  67.886  1.00  0.00     0.000 HD 
HETATM   11  O   UNL     1     -13.060  16.195  68.263  1.00  0.00     2.107 OA 
HETATM   12  C   UNL     1     -10.967  14.964  67.170  1.00  0.00    -0.323 C  
HETATM   13  C   UNL     1      -7.930  17.392  66.097  1.00  0.00    -0.240 C  
HETATM   14  C   UNL     1     -11.778  16.345  67.639  1.00  0.00     0.441 C  
HETATM   15  C   UNL     1      -7.039  18.097  67.078  1.00  0.00    -0.217 C  
HETATM   16  O   UNL     1      -7.073  16.375  65.598  1.00  0.00     0.834 OA 
HETATM   17  C   UNL     1     -11.106  17.603  68.256  1.00  0.00     0.120 C  
HETATM   18  C   UNL     1      -7.617  19.431  67.476  1.00  0.00    -0.282 C  
HETATM   19  C   UNL     1      -9.959  18.183  67.408  1.00  0.00    -0.329 C  
HETATM   20  H   UNL     1      -6.294  16.641  65.125  1.00  0.00     0.000 HD 
HETATM   21  C   UNL     1      -9.734  20.663  68.091  1.00  0.00    -0.086 C  
HETATM   22  C   UNL     1      -6.477  20.175  68.196  1.00  0.00    -0.309 C  
HETATM   23  C   UNL     1      -9.000  19.296  68.195  1.00  0.00    -0.371 C  
HETATM   24  C   UNL     1      -6.340  20.025  69.700  1.00  0.00    -0.352 C  
HETATM   25  C   UNL     1      -8.746  19.026  69.721  1.00  0.00     0.775 C  
HETATM   26  H   UNL     1      -5.353  18.884  70.998  1.00  0.00     0.000 HD 
HETATM   27  O   UNL     1      -5.439  18.977  70.057  1.00  0.00    -0.211 OA 
HETATM   28  C   UNL     1      -7.667  19.894  70.425  1.00  0.00     0.954 C  
ENDROOT
BRANCH   6  29
HETATM   29  C   UNL     1      -7.904  11.397  69.525  1.00  0.00     0.337 C  
BRANCH  29  30
HETATM   30  C   UNL     1      -7.317  10.079  69.940  1.00  0.00    -0.161 C  
HETATM   31  O   UNL     1      -6.410  10.007  70.761  1.00  0.00    -0.137 OA 
HETATM   32  N   UNL     1      -7.856   8.976  69.302  1.00  0.00    -0.093 N  
HETATM   33  H   UNL     1      -8.639   9.100  68.660  1.00  0.00     0.000 HD 
BRANCH  32  34
HETATM   34  C   UNL     1      -7.329   7.650  69.532  1.00  0.00    -0.086 C  
BRANCH  34  35
HETATM   35  C   UNL     1      -8.421   6.686  69.994  1.00  0.00    -0.139 C  
HETATM   36  S   UNL     1      -8.156   6.230  71.689  1.00  0.00    -0.106 S  
HETATM   37  O   UNL     1      -9.368   5.172  71.836  1.00  0.00    -0.139 OA 
HETATM   38  O   UNL     1      -8.430   7.346  72.563  1.00  0.00    -0.105 OA 
HETATM   39  O   UNL     1      -6.940   5.452  71.785  1.00  0.00    -0.066 OA 
ENDBRANCH  34  35
ENDBRANCH  32  34
ENDBRANCH  29  30
ENDBRANCH   6  29
TORSDOF 4
ENDMDL
MODEL      153
REMARK 921   NORMALIZED FREE ENERGY PREDICTED BY IDOCK:    0.26 KCAL/MOL
REMARK 922        TOTAL FREE ENERGY PREDICTED BY IDOCK:   -0.50 KCAL/MOL
REMARK 923 INTER-LIGAND FREE ENERGY PREDICTED BY IDOCK:   -1.84 KCAL/MOL
REMARK 924 INTRA-LIGAND FREE ENERGY PREDICTED BY IDOCK:    1.34 KCAL/MOL
REMARK 927      BINDING AFFINITY PREDICTED BY RF-SCORE:    0.00 PKD
ROOT
HETATM    1  C   UNL     1      -9.017  11.998  66.065  1.00  0.00    -0.021 C  
HETATM    2  C   UNL     1     -10.060  10.634  65.806  1.00  0.00    -0.327 C  
HETATM    3  C   UNL     1     -10.124  12.700  66.849  1.00  0.00    -0.234 C  
HETATM    4  C   UNL     1      -9.656   9.167  65.728  1.00  0.00    -0.323 C  
HETATM    5  C   UNL     1      -9.776  12.172  68.250  1.00  0.00    -0.216 C  
HETATM    6  C   UNL     1     -11.356  10.884  64.885  1.00  0.00     0.410 C  
HETATM    7  C   UNL     1      -6.942  10.922  67.329  1.00  0.00    -0.089 C  
HETATM    8  C   UNL     1      -8.482  12.870  68.470  1.00  0.00    -0.045 C  
HETATM    9  C   UNL     1      -8.748  14.461  68.385  1.00  0.00    -0.180 C  
HETATM   10  H   UNL     1      -5.049  12.089  66.840  1.00  0.00     0.000 HD 
HETATM   11  O   UNL     1      -5.128  13.035  66.849  1.00  0.00    -0.234 OA 
HETATM   12  C   UNL     1      -7.657  12.294  67.229  1.00  0.00    -0.152 C  
HETATM   13  C   UNL     1      -9.928  14.949  69.244  1.00  0.00    -0.175 C  
HETATM   14  C   UNL     1      -6.388  13.354  67.453  1.00  0.00     0.025 C  
HETATM   15  C   UNL     1     -10.370  16.267  68.679  1.00  0.00    -0.263 C  
HETATM   16  O   UNL     1     -11.131  14.195  69.212  1.00  0.00    -0.253 OA 
HETATM   17  C   UNL     1      -6.518  14.902  67.466  1.00  0.00    -0.105 C  
HETATM   18  C   UNL     1      -9.346  17.342  68.940  1.00  0.00    -0.191 C  
HETATM   19  C   UNL     1      -7.558  15.438  68.468  1.00  0.00    -0.122 C  
HETATM   20  H   UNL     1     -11.860  14.496  69.743  1.00  0.00     0.000 HD 
HETATM   21  C   UNL     1      -6.878  17.875  68.986  1.00  0.00    -0.242 C  
HETATM   22  C   UNL     1     -10.054  18.671  68.621  1.00  0.00    -0.412 C  
HETATM   23  C   UNL     1      -7.970  17.040  68.260  1.00  0.00    -0.222 C  
HETATM   24  C   UNL     1      -9.966  19.228  67.212  1.00  0.00    -0.363 C  
HETATM   25  C   UNL     1      -8.025  17.547  66.774  1.00  0.00    -0.273 C  
HETATM   26  H   UNL     1     -11.017  19.174  65.521  1.00  0.00     0.000 HD 
HETATM   27  O   UNL     1     -11.072  18.825  66.404  1.00  0.00     0.000 OA 
HETATM   28  C   UNL     1      -8.640  18.951  66.526  1.00  0.00    -0.309 C  
ENDROOT
BRANCH   6  29
HETATM   29  C   UNL     1     -11.215  11.398  63.463  1.00  0.00    -0.322 C  
BRANCH  29  30
HETATM   30  C   UNL     1     -11.556  12.854  63.324  1.00  0.00    -0.265 C  
HETATM   31  O   UNL     1     -12.342  13.254  62.473  1.00  0.00     0.259 OA 
HETATM   32  N   UNL     1     -10.892  13.693  64.202  1.00  0.00    -0.570 N  
HETATM   33  H   UNL     1     -10.282  13.292  64.915  1.00  0.00     0.000 HD 
BRANCH  32  34
HETATM   34  C   UNL     1     -11.049  15.127  64.126  1.00  0.00     0.319 C  
BRANCH  34  35
HETATM   35  C   UNL     1     -11.365  15.728  65.495  1.00  0.00     0.021 C  
HETATM   36  S   UNL     1     -12.695  14.837  66.262  1.00  0.00     0.819 S  
HETATM   37  O   UNL     1     -12.847  15.746  67.589  1.00  0.00     1.777 OA 
HETATM   38  O   UNL     1     -12.257  13.524  66.669  1.00  0.00    -0.398 OA 
HETATM   39  O   UNL     1     -13.907  15.047  65.500  1.00  0.00     0.837 OA 
ENDBRANCH  34  35
ENDBRANCH  32  34
ENDBRANCH  29  30
ENDBRANCH   6  29
TORSDOF 4
ENDMDL
MODEL      154
REMARK 921   NORMALIZED FREE ENERGY PREDICTED BY IDOCK:    0.77 KCAL/MOL
REMARK 922        TOTAL FREE ENERGY PREDICTED BY IDOCK:    0.12 KCAL/MOL
REMARK 923 INTER-LIGAND FREE ENERGY PREDICTED BY IDOCK:    0.74 KCAL/MOL
REMARK 924 INTRA-LIGAND FREE ENERGY PREDICTED BY IDOCK:   -0.62 KCAL/MOL
REMARK 927      BINDING AFFINITY PREDICTED BY RF-SCORE:    0.00 PKD
ROOT
HETATM    1  C   UNL     1      -9.901  12.568  67.438  1.00  0.00    -0.201 C  
HETATM    2  C   UNL     1      -9.006  11.079  67.423  1.00  0.00    -0.141 C  
HETATM    3  C   UNL     1      -8.602  13.354  67.273  1.00  0.00    -0.216 C  
HETATM    4  C   UNL     1      -9.453   9.742  66.846  1.00  0.00    -0.202 C  
HETATM    5  C   UNL     1      -8.561  13.399  65.736  1.00  0.00     1.414 C  
HETATM    6  C   UNL     1      -8.010  10.826  68.662  1.00  0.00    -0.133 C  
HETATM    7  C   UNL     1     -11.571  12.273  65.392  1.00  0.00    -0.412 C  
HETATM    8  C   UNL     1      -9.725  14.287  65.477  1.00  0.00    -0.189 C  
HETATM    9  C   UNL     1      -9.453  15.700  66.210  1.00  0.00    -0.351 C  
HETATM   10  H   UNL     1     -13.495  13.423  65.791  1.00  0.00     0.000 HD 
HETATM   11  O   UNL     1     -13.392  14.294  66.155  1.00  0.00     0.178 OA 
HETATM   12  C   UNL     1     -10.877  13.421  66.168  1.00  0.00    -0.287 C  
HETATM   13  C   UNL     1      -8.069  16.306  65.917  1.00  0.00     0.411 C  
HETATM   14  C   UNL     1     -12.006  14.644  66.046  1.00  0.00    -0.242 C  
HETATM   15  C   UNL     1      -7.767  17.276  67.022  1.00  0.00    -0.227 C  
HETATM   16  O   UNL     1      -6.941  15.444  65.965  1.00  0.00     1.146 OA 
HETATM   17  C   UNL     1     -11.839  16.069  66.642  1.00  0.00     0.964 C  
HETATM   18  C   UNL     1      -8.651  18.493  66.933  1.00  0.00    -0.281 C  
HETATM   19  C   UNL     1     -10.548  16.787  66.203  1.00  0.00    -0.212 C  
HETATM   20  H   UNL     1      -6.087  15.817  65.783  1.00  0.00     0.000 HD 
HETATM   21  C   UNL     1     -10.995  19.315  66.476  1.00  0.00    -0.252 C  
HETATM   22  C   UNL     1      -8.026  19.526  67.888  1.00  0.00    -0.336 C  
HETATM   23  C   UNL     1     -10.169  18.148  67.087  1.00  0.00    -0.376 C  
HETATM   24  C   UNL     1      -8.487  19.560  69.334  1.00  0.00     0.162 C  
HETATM   25  C   UNL     1     -10.516  18.091  68.618  1.00  0.00    -0.236 C  
HETATM   26  H   UNL     1      -7.949  18.785  71.087  1.00  0.00     0.000 HD 
HETATM   27  O   UNL     1      -7.660  18.764  70.182  1.00  0.00     0.818 OA 
HETATM   28  C   UNL     1      -9.958  19.230  69.514  1.00  0.00    -0.032 C  
ENDROOT
BRANCH   6  29
HETATM   29  C   UNL     1      -8.528  10.823  70.090  1.00  0.00     1.080 C  
BRANCH  29  30
HETATM   30  C   UNL     1      -9.099   9.499  70.509  1.00  0.00    -0.219 C  
HETATM   31  O   UNL     1     -10.181   9.415  71.079  1.00  0.00    -0.287 OA 
HETATM   32  N   UNL     1      -8.299   8.405  70.229  1.00  0.00    -0.119 N  
HETATM   33  H   UNL     1      -7.429   8.539  69.714  1.00  0.00     0.000 HD 
BRANCH  32  34
HETATM   34  C   UNL     1      -8.676   7.077  70.656  1.00  0.00    -0.149 C  
BRANCH  34  35
HETATM   35  C   UNL     1      -8.962   6.167  69.462  1.00  0.00    -0.133 C  
HETATM   36  S   UNL     1     -10.693   6.196  69.072  1.00  0.00    -0.343 S  
HETATM   37  O   UNL     1     -10.682   5.101  67.884  1.00  0.00    -0.034 OA 
HETATM   38  O   UNL     1     -11.063   7.469  68.501  1.00  0.00     0.041 OA 
HETATM   39  O   UNL     1     -11.434   5.591  70.158  1.00  0.00     0.137 OA 
ENDBRANCH  34  35
ENDBRANCH  32  34
ENDBRANCH  29  30
ENDBRANCH   6  29
TORSDOF 4
ENDMDL
MODEL      155
REMARK 921   NORMALIZED FREE ENERGY PREDICTED BY IDOCK:    1.68 KCAL/MOL
REMARK 922        TOTAL FREE ENERGY PREDICTED BY IDOCK:    1.25 KCAL/MOL
REMARK 923 INTER-LIGAND FREE ENERGY PREDICTED BY IDOCK:    0.91 KCAL/MOL
REMARK 924 INTRA-LIGAND FREE ENERGY PREDICTED BY IDOCK:    0.34 KCAL/MOL
REMARK 927      BINDING AFFINITY PREDICTED BY RF-SCORE:    0.00 PKD
ROOT
HETATM    1  C   UNL     1      -9.569   9.415  68.518  1.00  0.00    -0.154 C  
HETATM    2  C   UNL     1     -10.353   7.880  68.732  1.00  0.00    -0.220 C  
HETATM    3  C   UNL     1     -10.924  10.079  68.285  1.00  0.00    -0.278 C  
HETATM    4  C   UNL     1      -9.933   6.752  69.666  1.00  0.00    -0.184 C  
HETATM    5  C   UNL     1     -11.246  10.450  69.742  1.00  0.00    -0.353 C  
HETATM    6  C   UNL     1     -11.089   7.262  67.441  1.00  0.00    -0.138 C  
HETATM    7  C   UNL     1      -8.283   9.745  70.820  1.00  0.00     0.240 C  
HETATM    8  C   UNL     1     -10.209  11.489  69.974  1.00  0.00     1.196 C  
HETATM    9  C   UNL     1     -10.435  12.675  68.900  1.00  0.00    -0.109 C  
HETATM   10  H   UNL     1      -6.397  10.975  70.483  1.00  0.00     0.000 HD 
HETATM   11  O   UNL     1      -6.488  11.732  69.916  1.00  0.00    -0.131 OA 
HETATM   12  C   UNL     1      -8.898  10.620  69.698  1.00  0.00     0.140 C  
HETATM   13  C   UNL     1     -11.886  13.181  68.817  1.00  0.00    -0.324 C  
HETATM   14  C   UNL     1      -7.891  11.950  69.715  1.00  0.00     1.248 C  
HETATM   15  C   UNL     1     -12.044  13.853  67.484  1.00  0.00    -0.366 C  
HETATM   16  O   UNL     1     -12.928  12.217  68.787  1.00  0.00     1.036 OA 
HETATM   17  C   UNL     1      -8.040  13.188  68.787  1.00  0.00     0.073 C  
HETATM   18  C   UNL     1     -11.272  15.146  67.431  1.00  0.00    -0.323 C  
HETATM   19  C   UNL     1      -9.432  13.845  68.833  1.00  0.00     0.047 C  
HETATM   20  H   UNL     1     -13.823  12.529  68.737  1.00  0.00     0.000 HD 
HETATM   21  C   UNL     1      -9.108  16.287  68.060  1.00  0.00    -0.188 C  
HETATM   22  C   UNL     1     -11.780  15.877  66.175  1.00  0.00     0.706 C  
HETATM   23  C   UNL     1      -9.733  14.936  67.609  1.00  0.00    -0.212 C  
HETATM   24  C   UNL     1     -11.067  15.646  64.855  1.00  0.00    -0.402 C  
HETATM   25  C   UNL     1      -9.110  14.586  66.210  1.00  0.00    -0.164 C  
HETATM   26  H   UNL     1     -11.226  14.458  63.265  1.00  0.00     0.000 HD 
HETATM   27  O   UNL     1     -11.672  14.603  64.092  1.00  0.00    -0.300 OA 
HETATM   28  C   UNL     1      -9.569  15.439  64.996  1.00  0.00     0.382 C  
ENDROOT
BRANCH   6  29
HETATM   29  C   UNL     1     -10.322   7.004  66.155  1.00  0.00     0.502 C  
BRANCH  29  30
HETATM   30  C   UNL     1      -9.456   5.780  66.219  1.00  0.00    -0.148 C  
HETATM   31  O   UNL     1      -8.233   5.855  66.235  1.00  0.00    -0.109 OA 
HETATM   32  N   UNL     1     -10.144   4.580  66.225  1.00  0.00    -0.246 N  
HETATM   33  H   UNL     1     -11.164   4.587  66.254  1.00  0.00     0.000 HD 
BRANCH  32  34
HETATM   34  C   UNL     1      -9.443   3.317  66.192  1.00  0.00    -0.078 C  
BRANCH  34  35
HETATM   35  C   UNL     1      -8.525   3.156  67.403  1.00  0.00    -0.092 C  
HETATM   36  S   UNL     1      -6.863   2.829  66.872  1.00  0.00    -0.045 S  
HETATM   37  O   UNL     1      -6.193   2.616  68.326  1.00  0.00    -0.027 OA 
HETATM   38  O   UNL     1      -6.280   4.009  66.280  1.00  0.00    -0.030 OA 
HETATM   39  O   UNL     1      -6.819   1.536  66.224  1.00  0.00    -0.038 OA 
ENDBRANCH  34  35
ENDBRANCH  32  34
ENDBRANCH  29  30
ENDBRANCH   6  29
TORSDOF 4
ENDMDL
MODEL      156
REMARK 921   NORMALIZED FREE ENERGY PREDICTED BY IDOCK:    1.89 KCAL/MOL
REMARK 922        TOTAL FREE ENERGY PREDICTED BY IDOCK:    1.50 KCAL/MOL
REMARK 923 INTER-LIGAND FREE ENERGY PREDICTED BY IDOCK:    0.12 KCAL/MOL
REMARK 924 INTRA-LIGAND FREE ENERGY PREDICTED BY IDOCK:    1.39 KCAL/MOL
REMARK 927      BINDING AFFINITY PREDICTED BY RF-SCORE:    0.00 PKD
ROOT
HETATM    1  C   UNL     1      -7.363  16.111  68.211  1.00  0.00    -0.140 C  
HETATM    2  C   UNL     1      -5.976  17.150  68.092  1.00  0.00    -0.127 C  
HETATM    3  C   UNL     1      -6.690  15.100  67.286  1.00  0.00    -0.025 C  
HETATM    4  C   UNL     1      -5.407  18.056  69.176  1.00  0.00    -0.196 C  
HETATM    5  C   UNL     1      -5.973  14.260  68.355  1.00  0.00    -0.103 C  
HETATM    6  C   UNL     1      -5.681  17.792  66.645  1.00  0.00    -0.206 C  
HETATM    7  C   UNL     1      -7.530  15.649  70.823  1.00  0.00     1.801 C  
HETATM    8  C   UNL     1      -7.148  13.635  69.017  1.00  0.00    -0.077 C  
HETATM    9  C   UNL     1      -7.956  12.783  67.907  1.00  0.00    -0.158 C  
HETATM   10  H   UNL     1      -9.702  15.306  71.412  1.00  0.00     0.000 HD 
HETATM   11  O   UNL     1     -10.208  14.750  70.832  1.00  0.00     0.505 OA 
HETATM   12  C   UNL     1      -7.915  14.952  69.494  1.00  0.00    -0.084 C  
HETATM   13  C   UNL     1      -7.073  11.838  67.072  1.00  0.00    -0.132 C  
HETATM   14  C   UNL     1      -9.287  14.112  69.937  1.00  0.00     1.301 C  
HETATM   15  C   UNL     1      -7.820  11.542  65.804  1.00  0.00     0.408 C  
HETATM   16  O   UNL     1      -5.840  12.341  66.578  1.00  0.00    -0.488 OA 
HETATM   17  C   UNL     1     -10.116  13.202  68.989  1.00  0.00     0.145 C  
HETATM   18  C   UNL     1      -9.021  10.671  66.071  1.00  0.00    -0.189 C  
HETATM   19  C   UNL     1      -9.290  12.109  68.285  1.00  0.00    -0.198 C  
HETATM   20  H   UNL     1      -5.295  11.758  66.064  1.00  0.00     0.000 HD 
HETATM   21  C   UNL     1     -10.956  10.246  67.636  1.00  0.00    -0.356 C  
HETATM   22  C   UNL     1      -9.485  10.176  64.689  1.00  0.00    -0.357 C  
HETATM   23  C   UNL     1     -10.063  11.356  67.014  1.00  0.00    -0.237 C  
HETATM   24  C   UNL     1     -10.513  10.993  63.927  1.00  0.00    -0.354 C  
HETATM   25  C   UNL     1     -11.001  12.268  66.145  1.00  0.00    -0.328 C  
HETATM   26  H   UNL     1     -10.548  12.429  62.548  1.00  0.00     0.000 HD 
HETATM   27  O   UNL     1      -9.905  11.918  63.026  1.00  0.00    -0.385 OA 
HETATM   28  C   UNL     1     -11.540  11.669  64.817  1.00  0.00    -0.170 C  
ENDROOT
BRANCH   6  29
HETATM   29  C   UNL     1      -6.725  18.642  65.941  1.00  0.00    -0.302 C  
BRANCH  29  30
HETATM   30  C   UNL     1      -8.023  17.921  65.721  1.00  0.00     0.124 C  
HETATM   31  O   UNL     1      -8.058  16.761  65.327  1.00  0.00     0.766 OA 
HETATM   32  N   UNL     1      -9.156  18.676  65.964  1.00  0.00    -0.100 N  
HETATM   33  H   UNL     1      -9.059  19.622  66.332  1.00  0.00     0.000 HD 
BRANCH  32  34
HETATM   34  C   UNL     1     -10.475  18.145  65.707  1.00  0.00    -0.207 C  
BRANCH  34  35
HETATM   35  C   UNL     1     -10.991  17.329  66.893  1.00  0.00     0.139 C  
HETATM   36  S   UNL     1     -11.166  15.624  66.430  1.00  0.00     0.064 S  
HETATM   37  O   UNL     1     -11.799  15.074  67.812  1.00  0.00    -0.336 OA 
HETATM   38  O   UNL     1      -9.872  15.011  66.257  1.00  0.00    -0.253 OA 
HETATM   39  O   UNL     1     -12.217  15.508  65.442  1.00  0.00     0.373 OA 
ENDBRANCH  34  35
ENDBRANCH  32  34
ENDBRANCH  29  30
ENDBRANCH   6  29
TORSDOF 4
ENDMDL
MODEL      157
REMARK 921   NORMALIZED FREE ENERGY PREDICTED BY IDOCK:    2.77 KCAL/MOL
REMARK 922        TOTAL FREE ENERGY PREDICTED BY IDOCK:    2.60 KCAL/MOL
REMARK 923 INTER-LIGAND FREE ENERGY PREDICTED BY IDOCK:    3.18 KCAL/MOL
REMARK 924 INTRA-LIGAND FREE ENERGY PREDICTED BY IDOCK:   -0.58 KCAL/MOL
REMARK 927      BINDING AFFINITY PREDICTED BY RF-SCORE:    0.00 PKD
ROOT
HETATM    1  C   UNL     1      -9.543  14.672  67.099  1.00  0.00    -0.236 C  
HETATM    2  C   UNL     1      -9.298  13.030  66.589  1.00  0.00    -0.242 C  
HETATM    3  C   UNL     1      -8.035  14.851  67.261  1.00  0.00    -0.237 C  
HETATM    4  C   UNL     1     -10.115  12.252  65.566  1.00  0.00    -0.279 C  
HETATM    5  C   UNL     1      -7.713  15.344  65.840  1.00  0.00     2.429 C  
HETATM    6  C   UNL     1      -8.707  12.016  67.690  1.00  0.00    -0.166 C  
HETATM    7  C   UNL     1     -10.815  15.749  65.029  1.00  0.00    -0.461 C  
HETATM    8  C   UNL     1      -8.385  16.669  65.874  1.00  0.00     0.025 C  
HETATM    9  C   UNL     1      -7.724  17.538  67.065  1.00  0.00    -0.239 C  
HETATM   10  H   UNL     1     -12.190  17.415  65.747  1.00  0.00     0.000 HD 
HETATM   11  O   UNL     1     -11.827  18.005  66.396  1.00  0.00     2.134 OA 
HETATM   12  C   UNL     1      -9.881  16.201  66.180  1.00  0.00    -0.358 C  
HETATM   13  C   UNL     1      -6.185  17.565  67.046  1.00  0.00    -0.162 C  
HETATM   14  C   UNL     1     -10.416  17.756  66.461  1.00  0.00    -0.297 C  
HETATM   15  C   UNL     1      -5.733  17.928  68.431  1.00  0.00    -0.164 C  
HETATM   16  O   UNL     1      -5.500  16.341  66.823  1.00  0.00    -0.339 OA 
HETATM   17  C   UNL     1      -9.823  18.721  67.524  1.00  0.00    -0.360 C  
HETATM   18  C   UNL     1      -6.053  19.366  68.748  1.00  0.00    -0.266 C  
HETATM   19  C   UNL     1      -8.300  18.927  67.406  1.00  0.00    -0.294 C  
HETATM   20  H   UNL     1      -4.550  16.358  66.811  1.00  0.00     0.000 HD 
HETATM   21  C   UNL     1      -7.786  21.191  68.536  1.00  0.00     1.329 C  
HETATM   22  C   UNL     1      -5.257  19.694  70.024  1.00  0.00    -0.218 C  
HETATM   23  C   UNL     1      -7.589  19.660  68.723  1.00  0.00    -0.351 C  
HETATM   24  C   UNL     1      -5.914  19.472  71.374  1.00  0.00    -0.025 C  
HETATM   25  C   UNL     1      -8.192  19.287  70.125  1.00  0.00     1.245 C  
HETATM   26  H   UNL     1      -6.027  18.046  72.759  1.00  0.00     0.000 HD 
HETATM   27  O   UNL     1      -5.616  18.185  71.913  1.00  0.00     0.011 OA 
HETATM   28  C   UNL     1      -7.406  19.751  71.381  1.00  0.00     1.521 C  
ENDROOT
BRANCH   6  29
HETATM   29  C   UNL     1      -9.426  11.792  69.009  1.00  0.00     0.172 C  
BRANCH  29  30
HETATM   30  C   UNL     1      -9.059  10.494  69.669  1.00  0.00     0.053 C  
HETATM   31  O   UNL     1      -8.046  10.379  70.349  1.00  0.00     0.047 OA 
HETATM   32  N   UNL     1      -9.931   9.449  69.420  1.00  0.00    -0.175 N  
HETATM   33  H   UNL     1     -10.780   9.621  68.881  1.00  0.00     0.000 HD 
BRANCH  32  34
HETATM   34  C   UNL     1      -9.660   8.118  69.913  1.00  0.00    -0.175 C  
BRANCH  34  35
HETATM   35  C   UNL     1     -10.858   7.547  70.672  1.00  0.00    -0.240 C  
HETATM   36  S   UNL     1     -10.980   8.299  72.275  1.00  0.00    -0.366 S  
HETATM   37  O   UNL     1     -12.229   7.442  72.837  1.00  0.00     0.094 OA 
HETATM   38  O   UNL     1     -11.399   9.675  72.159  1.00  0.00     0.016 OA 
HETATM   39  O   UNL     1      -9.840   7.902  73.072  1.00  0.00    -0.249 OA 
ENDBRANCH  34  35
ENDBRANCH  32  34
ENDBRANCH  29  30
ENDBRANCH   6  29
TORSDOF 4
ENDMDL
MODEL      158
REMARK 921   NORMALIZED FREE ENERGY PREDICTED BY IDOCK:    3.05 KCAL/MOL
REMARK 922        TOTAL FREE ENERGY PREDICTED BY IDOCK:    2.94 KCAL/MOL
REMARK 923 INTER-LIGAND FREE ENERGY PREDICTED BY IDOCK:    3.33 KCAL/MOL
REMARK 924 INTRA-LIGAND FREE ENERGY PREDICTED BY IDOCK:   -0.39 KCAL/MOL
REMARK 927      BINDING AFFINITY PREDICTED BY RF-SCORE:    0.00 PKD
ROOT
HETATM    1  C   UNL     1      -9.543  14.672  67.099  1.00  0.00    -0.236 C  
HETATM    2  C   UNL     1      -9.298  13.030  66.589  1.00  0.00    -0.242 C  
HETATM    3  C   UNL     1      -8.035  14.851  67.261  1.00  0.00    -0.237 C  
HETATM    4  C   UNL     1     -10.115  12.252  65.566  1.00  0.00    -0.279 C  
HETATM    5  C   UNL     1      -7.713  15.344  65.840  1.00  0.00     2.429 C  
HETATM    6  C   UNL     1      -8.707  12.016  67.690  1.00  0.00    -0.166 C  
HETATM    7  C   UNL     1     -10.815  15.749  65.029  1.00  0.00    -0.461 C  
HETATM    8  C   UNL     1      -8.385  16.669  65.874  1.00  0.00     0.025 C  
HETATM    9  C   UNL     1      -7.724  17.538  67.065  1.00  0.00    -0.239 C  
HETATM   10  H   UNL     1     -12.190  17.415  65.747  1.00  0.00     0.000 HD 
HETATM   11  O   UNL     1     -11.827  18.005  66.396  1.00  0.00     2.134 OA 
HETATM   12  C   UNL     1      -9.881  16.201  66.180  1.00  0.00    -0.358 C  
HETATM   13  C   UNL     1      -6.185  17.565  67.046  1.00  0.00    -0.162 C  
HETATM   14  C   UNL     1     -10.416  17.756  66.461  1.00  0.00    -0.297 C  
HETATM   15  C   UNL     1      -5.733  17.928  68.431  1.00  0.00    -0.164 C  
HETATM   16  O   UNL     1      -5.500  16.341  66.823  1.00  0.00    -0.339 OA 
HETATM   17  C   UNL     1      -9.823  18.721  67.524  1.00  0.00    -0.360 C  
HETATM   18  C   UNL     1      -6.053  19.366  68.748  1.00  0.00    -0.266 C  
HETATM   19  C   UNL     1      -8.300  18.927  67.406  1.00  0.00    -0.294 C  
HETATM   20  H   UNL     1      -4.550  16.358  66.811  1.00  0.00     0.000 HD 
HETATM   21  C   UNL     1      -7.786  21.191  68.536  1.00  0.00     1.329 C  
HETATM   22  C   UNL     1      -5.257  19.694  70.024  1.00  0.00    -0.218 C  
HETATM   23  C   UNL     1      -7.589  19.660  68.723  1.00  0.00    -0.351 C  
HETATM   24  C   UNL     1      -5.914  19.472  71.374  1.00  0.00    -0.025 C  
HETATM   25  C   UNL     1      -8.192  19.287  70.125  1.00  0.00     1.245 C  
HETATM   26  H   UNL     1      -6.027  18.046  72.759  1.00  0.00     0.000 HD 
HETATM   27  O   UNL     1      -5.616  18.185  71.913  1.00  0.00     0.011 OA 
HETATM   28  C   UNL     1      -7.406  19.751  71.381  1.00  0.00     1.521 C  
ENDROOT
BRANCH   6  29
HETATM   29  C   UNL     1      -9.426  11.792  69.009  1.00  0.00     0.172 C  
BRANCH  29  30
HETATM   30  C   UNL     1      -9.059  10.494  69.669  1.00  0.00     0.053 C  
HETATM   31  O   UNL     1      -8.046  10.379  70.349  1.00  0.00     0.047 OA 
HETATM   32  N   UNL     1      -9.931   9.449  69.420  1.00  0.00    -0.175 N  
HETATM   33  H   UNL     1     -10.780   9.621  68.881  1.00  0.00     0.000 HD 
BRANCH  32  34
HETATM   34  C   UNL     1      -9.660   8.118  69.913  1.00  0.00    -0.175 C  
BRANCH  34  35
HETATM   35  C   UNL     1      -8.433   7.509  69.234  1.00  0.00    -0.136 C  
HETATM   36  S   UNL     1      -8.839   6.999  67.583  1.00  0.00    -0.118 S  
HETATM   37  O   UNL     1      -7.419   6.333  67.192  1.00  0.00    -0.082 OA 
HETATM   38  O   UNL     1      -9.042   8.147  66.733  1.00  0.00    -0.142 OA 
HETATM   39  O   UNL     1      -9.783   5.904  67.644  1.00  0.00    -0.110 OA 
ENDBRANCH  34  35
ENDBRANCH  32  34
ENDBRANCH  29  30
ENDBRANCH   6  29
TORSDOF 4
ENDMDL
MODEL      159
REMARK 921   NORMALIZED FREE ENERGY PREDICTED BY IDOCK:    3.26 KCAL/MOL
REMARK 922        TOTAL FREE ENERGY PREDICTED BY IDOCK:    3.20 KCAL/MOL
REMARK 923 INTER-LIGAND FREE ENERGY PREDICTED BY IDOCK:    3.77 KCAL/MOL
REMARK 924 INTRA-LIGAND FREE ENERGY PREDICTED BY IDOCK:   -0.57 KCAL/MOL
REMARK 927      BINDING AFFINITY PREDICTED BY RF-SCORE:    0.00 PKD
ROOT
HETATM    1  C   UNL     1     -10.116  12.312  65.794  1.00  0.00    -0.274 C  
HETATM    2  C   UNL     1      -9.902  11.575  64.237  1.00  0.00    -0.279 C  
HETATM    3  C   UNL     1      -9.199  13.461  65.381  1.00  0.00     0.639 C  
HETATM    4  C   UNL     1     -10.929  10.773  63.447  1.00  0.00     0.504 C  
HETATM    5  C   UNL     1     -10.265  14.400  64.794  1.00  0.00    -0.259 C  
HETATM    6  C   UNL     1      -8.423  11.042  63.890  1.00  0.00     0.214 C  
HETATM    7  C   UNL     1     -12.747  12.665  65.923  1.00  0.00     0.438 C  
HETATM    8  C   UNL     1     -10.997  14.760  66.036  1.00  0.00    -0.328 C  
HETATM    9  C   UNL     1      -9.953  15.461  67.050  1.00  0.00    -0.239 C  
HETATM   10  H   UNL     1     -13.439  12.551  68.089  1.00  0.00     0.000 HD 
HETATM   11  O   UNL     1     -12.901  13.010  68.723  1.00  0.00     0.800 OA 
HETATM   12  C   UNL     1     -11.460  13.304  66.503  1.00  0.00    -0.372 C  
HETATM   13  C   UNL     1      -9.115  16.585  66.414  1.00  0.00    -0.297 C  
HETATM   14  C   UNL     1     -11.990  13.841  67.991  1.00  0.00    -0.355 C  
HETATM   15  C   UNL     1      -7.890  16.759  67.265  1.00  0.00    -0.200 C  
HETATM   16  O   UNL     1      -8.552  16.351  65.131  1.00  0.00     0.879 OA 
HETATM   17  C   UNL     1     -11.110  14.591  69.029  1.00  0.00    -0.279 C  
HETATM   18  C   UNL     1      -8.238  17.364  68.601  1.00  0.00    -0.264 C  
HETATM   19  C   UNL     1     -10.411  15.846  68.472  1.00  0.00    -0.232 C  
HETATM   20  H   UNL     1      -8.036  17.045  64.738  1.00  0.00     0.000 HD 
HETATM   21  C   UNL     1      -9.898  17.354  70.504  1.00  0.00     2.406 C  
HETATM   22  C   UNL     1      -6.895  17.791  69.221  1.00  0.00    -0.186 C  
HETATM   23  C   UNL     1      -9.201  16.461  69.439  1.00  0.00    -0.066 C  
HETATM   24  C   UNL     1      -6.149  16.806  70.102  1.00  0.00    -0.054 C  
HETATM   25  C   UNL     1      -8.341  15.402  70.219  1.00  0.00     0.858 C  
HETATM   26  H   UNL     1      -4.724  15.428  69.918  1.00  0.00     0.000 HD 
HETATM   27  O   UNL     1      -5.192  16.044  69.366  1.00  0.00    -0.109 OA 
HETATM   28  C   UNL     1      -7.058  15.915  70.929  1.00  0.00     2.016 C  
ENDROOT
BRANCH   6  29
HETATM   29  C   UNL     1      -7.735  10.020  64.777  1.00  0.00    -0.142 C  
BRANCH  29  30
HETATM   30  C   UNL     1      -7.242   8.819  64.023  1.00  0.00    -0.095 C  
HETATM   31  O   UNL     1      -6.072   8.711  63.675  1.00  0.00    -0.072 OA 
HETATM   32  N   UNL     1      -8.212   7.877  63.730  1.00  0.00    -0.351 N  
HETATM   33  H   UNL     1      -9.160   8.006  64.086  1.00  0.00     0.000 HD 
BRANCH  32  34
HETATM   34  C   UNL     1      -7.906   6.714  62.931  1.00  0.00    -0.102 C  
BRANCH  34  35
HETATM   35  C   UNL     1      -7.467   5.536  63.801  1.00  0.00    -0.059 C  
HETATM   36  S   UNL     1      -8.888   4.703  64.463  1.00  0.00    -0.145 S  
HETATM   37  O   UNL     1      -8.115   3.620  65.380  1.00  0.00    -0.095 OA 
HETATM   38  O   UNL     1      -9.588   3.989  63.422  1.00  0.00    -0.146 OA 
HETATM   39  O   UNL     1      -9.567   5.587  65.387  1.00  0.00     0.019 OA 
ENDBRANCH  34  35
ENDBRANCH  32  34
ENDBRANCH  29  30
ENDBRANCH   6  29
TORSDOF 4
ENDMDL
MODEL      160
REMARK 921   NORMALIZED FREE ENERGY PREDICTED BY IDOCK:    3.51 KCAL/MOL
REMARK 922        TOTAL FREE ENERGY PREDICTED BY IDOCK:    3.50 KCAL/MOL
REMARK 923 INTER-LIGAND FREE ENERGY PREDICTED BY IDOCK:    1.03 KCAL/MOL
REMARK 924 INTRA-LIGAND FREE ENERGY PREDICTED BY IDOCK:    2.48 KCAL/MOL
REMARK 927      BINDING AFFINITY PREDICTED BY RF-SCORE:    0.00 PKD
ROOT
HETATM    1  C   UNL     1      -7.977   7.653  68.287  1.00  0.00    -0.123 C  
HETATM    2  C   UNL     1      -6.385   6.963  68.345  1.00  0.00    -0.035 C  
HETATM    3  C   UNL     1      -7.405   8.933  67.681  1.00  0.00    -0.085 C  
HETATM    4  C   UNL     1      -6.006   5.500  68.150  1.00  0.00    -0.018 C  
HETATM    5  C   UNL     1      -7.521   8.550  66.197  1.00  0.00    -0.089 C  
HETATM    6  C   UNL     1      -5.334   7.661  69.345  1.00  0.00    -0.019 C  
HETATM    7  C   UNL     1      -9.314   5.924  66.775  1.00  0.00    -0.144 C  
HETATM    8  C   UNL     1      -9.000   8.541  66.052  1.00  0.00    -0.228 C  
HETATM    9  C   UNL     1      -9.551  10.013  66.423  1.00  0.00    -0.248 C  
HETATM   10  H   UNL     1     -11.507   5.897  67.385  1.00  0.00     0.000 HD 
HETATM   11  O   UNL     1     -11.907   6.744  67.545  1.00  0.00     0.643 OA 
HETATM   12  C   UNL     1      -9.366   7.430  67.140  1.00  0.00    -0.172 C  
HETATM   13  C   UNL     1      -8.813  11.160  65.709  1.00  0.00    -0.174 C  
HETATM   14  C   UNL     1     -11.002   7.743  67.055  1.00  0.00     0.086 C  
HETATM   15  C   UNL     1      -9.051  12.406  66.513  1.00  0.00    -0.181 C  
HETATM   16  O   UNL     1      -7.395  11.109  65.657  1.00  0.00    -0.365 OA 
HETATM   17  C   UNL     1     -11.656   9.128  67.317  1.00  0.00     2.119 C  
HETATM   18  C   UNL     1     -10.484  12.858  66.403  1.00  0.00    -0.278 C  
HETATM   19  C   UNL     1     -11.071  10.271  66.465  1.00  0.00     0.155 C  
HETATM   20  H   UNL     1      -6.940  11.816  65.215  1.00  0.00     0.000 HD 
HETATM   21  C   UNL     1     -12.892  12.098  66.354  1.00  0.00     2.504 C  
HETATM   22  C   UNL     1     -10.510  14.287  66.976  1.00  0.00    -0.271 C  
HETATM   23  C   UNL     1     -11.493  11.804  66.966  1.00  0.00    -0.368 C  
HETATM   24  C   UNL     1     -10.786  14.477  68.456  1.00  0.00    -0.249 C  
HETATM   25  C   UNL     1     -11.617  12.009  68.518  1.00  0.00    -0.363 C  
HETATM   26  H   UNL     1      -9.758  14.663  70.151  1.00  0.00     0.000 HD 
HETATM   27  O   UNL     1      -9.585  14.544  69.224  1.00  0.00    -0.094 OA 
HETATM   28  C   UNL     1     -11.764  13.468  69.031  1.00  0.00    -0.370 C  
ENDROOT
BRANCH   6  29
HETATM   29  C   UNL     1      -5.635   7.787  70.829  1.00  0.00    -0.030 C  
BRANCH  29  30
HETATM   30  C   UNL     1      -6.089   9.162  71.226  1.00  0.00    -0.070 C  
HETATM   31  O   UNL     1      -6.610   9.381  72.313  1.00  0.00    -0.292 OA 
HETATM   32  N   UNL     1      -5.901  10.137  70.262  1.00  0.00    -0.060 N  
HETATM   33  H   UNL     1      -5.422   9.898  69.393  1.00  0.00     0.000 HD 
BRANCH  32  34
HETATM   34  C   UNL     1      -6.371  11.488  70.466  1.00  0.00     0.234 C  
BRANCH  34  35
HETATM   35  C   UNL     1      -7.284  11.940  69.326  1.00  0.00     0.039 C  
HETATM   36  S   UNL     1      -6.400  13.014  68.224  1.00  0.00    -0.103 S  
HETATM   37  O   UNL     1      -7.621  13.382  67.232  1.00  0.00    -0.147 OA 
HETATM   38  O   UNL     1      -5.420  12.270  67.470  1.00  0.00    -0.092 OA 
HETATM   39  O   UNL     1      -6.074  14.241  68.919  1.00  0.00    -0.083 OA 
ENDBRANCH  34  35
ENDBRANCH  32  34
ENDBRANCH  29  30
ENDBRANCH   6  29
TORSDOF 4
ENDMDL
MODEL      161
REMARK 921   NORMALIZED FREE ENERGY PREDICTED BY IDOCK:    3.68 KCAL/MOL
REMARK 922        TOTAL FREE ENERGY PREDICTED BY IDOCK:    3.72 KCAL/MOL
REMARK 923 INTER-LIGAND FREE ENERGY PREDICTED BY IDOCK:    4.98 KCAL/MOL
REMARK 924 INTRA-LIGAND FREE ENERGY PREDICTED BY IDOCK:   -1.27 KCAL/MOL
REMARK 927      BINDING AFFINITY PREDICTED BY RF-SCORE:    0.00 PKD
ROOT
HETATM    1  C   UNL     1      -9.411   7.527  68.520  1.00  0.00    -0.142 C  
HETATM    2  C   UNL     1      -9.777   6.134  67.550  1.00  0.00    -0.126 C  
HETATM    3  C   UNL     1      -9.464   8.412  67.276  1.00  0.00    -0.196 C  
HETATM    4  C   UNL     1     -10.601   4.919  67.957  1.00  0.00     0.164 C  
HETATM    5  C   UNL     1     -10.957   8.776  67.324  1.00  0.00     0.111 C  
HETATM    6  C   UNL     1      -8.664   5.693  66.474  1.00  0.00    -0.121 C  
HETATM    7  C   UNL     1     -11.397   7.557  70.285  1.00  0.00    -0.219 C  
HETATM    8  C   UNL     1     -10.973   9.622  68.546  1.00  0.00    -0.153 C  
HETATM    9  C   UNL     1      -9.972  10.868  68.308  1.00  0.00    -0.187 C  
HETATM   10  H   UNL     1     -10.681   8.475  72.241  1.00  0.00     0.000 HD 
HETATM   11  O   UNL     1     -10.148   9.257  72.164  1.00  0.00    -0.064 OA 
HETATM   12  C   UNL     1     -10.429   8.561  69.609  1.00  0.00    -0.221 C  
HETATM   13  C   UNL     1     -10.193  11.608  66.976  1.00  0.00    -0.212 C  
HETATM   14  C   UNL     1     -10.242   9.708  70.807  1.00  0.00    -0.260 C  
HETATM   15  C   UNL     1      -8.923  12.345  66.665  1.00  0.00    -0.184 C  
HETATM   16  O   UNL     1     -10.377  10.828  65.804  1.00  0.00    -0.251 OA 
HETATM   17  C   UNL     1      -9.368  10.987  70.682  1.00  0.00     3.384 C  
HETATM   18  C   UNL     1      -8.716  13.496  67.615  1.00  0.00    -0.194 C  
HETATM   19  C   UNL     1      -9.703  11.861  69.457  1.00  0.00     0.956 C  
HETATM   20  H   UNL     1     -10.514  11.284  64.982  1.00  0.00     0.000 HD 
HETATM   21  C   UNL     1      -8.886  14.244  70.022  1.00  0.00     1.383 C  
HETATM   22  C   UNL     1      -7.594  14.347  66.993  1.00  0.00     0.149 C  
HETATM   23  C   UNL     1      -8.571  13.031  69.101  1.00  0.00     0.654 C  
HETATM   24  C   UNL     1      -6.155  14.052  67.373  1.00  0.00     0.231 C  
HETATM   25  C   UNL     1      -7.072  12.637  69.359  1.00  0.00     0.183 C  
HETATM   26  H   UNL     1      -4.629  12.967  66.696  1.00  0.00     0.000 HD 
HETATM   27  O   UNL     1      -5.530  13.151  66.459  1.00  0.00     0.830 OA 
HETATM   28  C   UNL     1      -5.982  13.599  68.812  1.00  0.00    -0.084 C  
ENDROOT
BRANCH   6  29
HETATM   29  C   UNL     1      -7.247   5.362  66.909  1.00  0.00    -0.078 C  
BRANCH  29  30
HETATM   30  C   UNL     1      -6.281   6.489  66.682  1.00  0.00    -0.040 C  
HETATM   31  O   UNL     1      -5.212   6.551  67.278  1.00  0.00    -0.007 OA 
HETATM   32  N   UNL     1      -6.709   7.450  65.785  1.00  0.00    -0.051 N  
HETATM   33  H   UNL     1      -7.591   7.318  65.290  1.00  0.00     0.000 HD 
BRANCH  32  34
HETATM   34  C   UNL     1      -5.926   8.639  65.535  1.00  0.00    -0.048 C  
BRANCH  34  35
HETATM   35  C   UNL     1      -6.596   9.543  64.500  1.00  0.00    -0.095 C  
HETATM   36  S   UNL     1      -7.798   8.624  63.573  1.00  0.00    -0.155 S  
HETATM   37  O   UNL     1      -8.232   9.788  62.540  1.00  0.00    -0.123 OA 
HETATM   38  O   UNL     1      -8.941   8.309  64.396  1.00  0.00     0.222 OA 
HETATM   39  O   UNL     1      -7.119   7.624  62.776  1.00  0.00    -0.073 OA 
ENDBRANCH  34  35
ENDBRANCH  32  34
ENDBRANCH  29  30
ENDBRANCH   6  29
TORSDOF 4
ENDMDL
MODEL      162
REMARK 921   NORMALIZED FREE ENERGY PREDICTED BY IDOCK:    3.81 KCAL/MOL
REMARK 922        TOTAL FREE ENERGY PREDICTED BY IDOCK:    3.88 KCAL/MOL
REMARK 923 INTER-LIGAND FREE ENERGY PREDICTED BY IDOCK:    4.64 KCAL/MOL
REMARK 924 INTRA-LIGAND FREE ENERGY PREDICTED BY IDOCK:   -0.76 KCAL/MOL
REMARK 927      BINDING AFFINITY PREDICTED BY RF-SCORE:    0.00 PKD
ROOT
HETATM    1  C   UNL     1      -9.411   7.527  68.520  1.00  0.00    -0.142 C  
HETATM    2  C   UNL     1      -9.777   6.134  67.550  1.00  0.00    -0.126 C  
HETATM    3  C   UNL     1      -9.464   8.412  67.276  1.00  0.00    -0.196 C  
HETATM    4  C   UNL     1     -10.601   4.919  67.957  1.00  0.00     0.164 C  
HETATM    5  C   UNL     1     -10.957   8.776  67.324  1.00  0.00     0.111 C  
HETATM    6  C   UNL     1      -8.664   5.693  66.474  1.00  0.00    -0.121 C  
HETATM    7  C   UNL     1     -11.397   7.557  70.285  1.00  0.00    -0.219 C  
HETATM    8  C   UNL     1     -10.973   9.622  68.546  1.00  0.00    -0.153 C  
HETATM    9  C   UNL     1      -9.972  10.868  68.308  1.00  0.00    -0.187 C  
HETATM   10  H   UNL     1     -10.681   8.475  72.241  1.00  0.00     0.000 HD 
HETATM   11  O   UNL     1     -10.148   9.257  72.164  1.00  0.00    -0.064 OA 
HETATM   12  C   UNL     1     -10.429   8.561  69.609  1.00  0.00    -0.221 C  
HETATM   13  C   UNL     1     -10.193  11.608  66.976  1.00  0.00    -0.212 C  
HETATM   14  C   UNL     1     -10.242   9.708  70.807  1.00  0.00    -0.260 C  
HETATM   15  C   UNL     1      -8.923  12.345  66.665  1.00  0.00    -0.184 C  
HETATM   16  O   UNL     1     -10.377  10.828  65.804  1.00  0.00    -0.251 OA 
HETATM   17  C   UNL     1      -9.368  10.987  70.682  1.00  0.00     3.384 C  
HETATM   18  C   UNL     1      -8.716  13.496  67.615  1.00  0.00    -0.194 C  
HETATM   19  C   UNL     1      -9.703  11.861  69.457  1.00  0.00     0.956 C  
HETATM   20  H   UNL     1     -10.514  11.284  64.982  1.00  0.00     0.000 HD 
HETATM   21  C   UNL     1      -8.886  14.244  70.022  1.00  0.00     1.383 C  
HETATM   22  C   UNL     1      -7.594  14.347  66.993  1.00  0.00     0.149 C  
HETATM   23  C   UNL     1      -8.571  13.031  69.101  1.00  0.00     0.654 C  
HETATM   24  C   UNL     1      -6.155  14.052  67.373  1.00  0.00     0.231 C  
HETATM   25  C   UNL     1      -7.072  12.637  69.359  1.00  0.00     0.183 C  
HETATM   26  H   UNL     1      -4.629  12.967  66.696  1.00  0.00     0.000 HD 
HETATM   27  O   UNL     1      -5.530  13.151  66.459  1.00  0.00     0.830 OA 
HETATM   28  C   UNL     1      -5.982  13.599  68.812  1.00  0.00    -0.084 C  
ENDROOT
BRANCH   6  29
HETATM   29  C   UNL     1      -7.247   5.362  66.909  1.00  0.00    -0.078 C  
BRANCH  29  30
HETATM   30  C   UNL     1      -6.509   4.508  65.919  1.00  0.00    -0.037 C  
HETATM   31  O   UNL     1      -5.286   4.439  65.912  1.00  0.00    -0.008 OA 
HETATM   32  N   UNL     1      -7.314   3.844  65.010  1.00  0.00    -0.067 N  
HETATM   33  H   UNL     1      -8.328   3.910  65.097  1.00  0.00     0.000 HD 
BRANCH  32  34
HETATM   34  C   UNL     1      -6.741   3.058  63.942  1.00  0.00    -0.035 C  
BRANCH  34  35
HETATM   35  C   UNL     1      -7.825   2.414  63.078  1.00  0.00    -0.063 C  
HETATM   36  S   UNL     1      -9.370   2.393  63.951  1.00  0.00    -0.121 S  
HETATM   37  O   UNL     1     -10.244   1.590  62.855  1.00  0.00    -0.098 OA 
HETATM   38  O   UNL     1      -9.908   3.728  64.061  1.00  0.00    -0.156 OA 
HETATM   39  O   UNL     1      -9.258   1.507  65.090  1.00  0.00    -0.124 OA 
ENDBRANCH  34  35
ENDBRANCH  32  34
ENDBRANCH  29  30
ENDBRANCH   6  29
TORSDOF 4
ENDMDL
MODEL      163
REMARK 921   NORMALIZED FREE ENERGY PREDICTED BY IDOCK:    5.14 KCAL/MOL
REMARK 922        TOTAL FREE ENERGY PREDICTED BY IDOCK:    5.52 KCAL/MOL
REMARK 923 INTER-LIGAND FREE ENERGY PREDICTED BY IDOCK:    7.11 KCAL/MOL
REMARK 924 INTRA-LIGAND FREE ENERGY PREDICTED BY IDOCK:   -1.59 KCAL/MOL
REMARK 927      BINDING AFFINITY PREDICTED BY RF-SCORE:    0.00 PKD
ROOT
HETATM    1  C   UNL     1     -12.217  11.139  70.160  1.00  0.00    -0.417 C  
HETATM    2  C   UNL     1     -12.367  12.818  70.576  1.00  0.00    -0.355 C  
HETATM    3  C   UNL     1     -10.819  11.107  70.773  1.00  0.00     1.322 C  
HETATM    4  C   UNL     1     -13.634  13.554  70.995  1.00  0.00     0.148 C  
HETATM    5  C   UNL     1     -11.211  10.714  72.206  1.00  0.00     3.976 C  
HETATM    6  C   UNL     1     -11.378  13.838  69.820  1.00  0.00    -0.200 C  
HETATM    7  C   UNL     1     -14.273  10.031  71.429  1.00  0.00     0.540 C  
HETATM    8  C   UNL     1     -11.688   9.326  71.966  1.00  0.00    -0.336 C  
HETATM    9  C   UNL     1     -10.468   8.477  71.333  1.00  0.00    -0.305 C  
HETATM   10  H   UNL     1     -14.997   8.203  70.281  1.00  0.00     0.000 HD 
HETATM   11  O   UNL     1     -14.321   7.625  69.948  1.00  0.00     2.726 OA 
HETATM   12  C   UNL     1     -12.863   9.626  70.927  1.00  0.00    -0.265 C  
HETATM   13  C   UNL     1      -9.142   8.608  72.105  1.00  0.00    -0.231 C  
HETATM   14  C   UNL     1     -13.085   8.013  70.560  1.00  0.00     0.811 C  
HETATM   15  C   UNL     1      -8.040   8.232  71.157  1.00  0.00    -0.124 C  
HETATM   16  O   UNL     1      -8.741   9.904  72.524  1.00  0.00     2.360 OA 
HETATM   17  C   UNL     1     -11.979   7.068  70.013  1.00  0.00    -0.053 C  
HETATM   18  C   UNL     1      -8.065   6.756  70.853  1.00  0.00    -0.118 C  
HETATM   19  C   UNL     1     -10.705   7.023  70.879  1.00  0.00    -0.259 C  
HETATM   20  H   UNL     1      -7.924   9.985  73.002  1.00  0.00     0.000 HD 
HETATM   21  C   UNL     1      -9.549   4.775  70.351  1.00  0.00    -0.267 C  
HETATM   22  C   UNL     1      -6.721   6.456  70.164  1.00  0.00    -0.050 C  
HETATM   23  C   UNL     1      -9.388   6.309  70.149  1.00  0.00    -0.165 C  
HETATM   24  C   UNL     1      -6.637   6.549  68.652  1.00  0.00    -0.051 C  
HETATM   25  C   UNL     1      -9.241   6.556  68.605  1.00  0.00    -0.127 C  
HETATM   26  H   UNL     1      -6.144   7.893  67.269  1.00  0.00     0.000 HD 
HETATM   27  O   UNL     1      -6.197   7.835  68.215  1.00  0.00    -0.042 OA 
HETATM   28  C   UNL     1      -7.907   6.119  67.940  1.00  0.00    -0.106 C  
ENDROOT
BRANCH   6  29
HETATM   29  C   UNL     1     -11.362  13.929  68.303  1.00  0.00    -0.325 C  
BRANCH  29  30
HETATM   30  C   UNL     1      -9.978  13.901  67.724  1.00  0.00    -0.241 C  
HETATM   31  O   UNL     1      -9.231  14.870  67.792  1.00  0.00    -0.182 OA 
HETATM   32  N   UNL     1      -9.637  12.721  67.088  1.00  0.00    -0.213 N  
HETATM   33  H   UNL     1     -10.289  11.936  67.103  1.00  0.00     0.000 HD 
BRANCH  32  34
HETATM   34  C   UNL     1      -8.372  12.580  66.404  1.00  0.00     0.273 C  
BRANCH  34  35
HETATM   35  C   UNL     1      -8.157  11.149  65.914  1.00  0.00    -0.017 C  
HETATM   36  S   UNL     1      -9.505  10.117  66.430  1.00  0.00    -0.185 S  
HETATM   37  O   UNL     1      -8.948   8.709  65.868  1.00  0.00    -0.177 OA 
HETATM   38  O   UNL     1     -10.704  10.446  65.698  1.00  0.00    -0.093 OA 
HETATM   39  O   UNL     1      -9.487   9.999  67.873  1.00  0.00    -0.143 OA 
ENDBRANCH  34  35
ENDBRANCH  32  34
ENDBRANCH  29  30
ENDBRANCH   6  29
TORSDOF 4
ENDMDL
MODEL      164
REMARK 921   NORMALIZED FREE ENERGY PREDICTED BY IDOCK:    5.79 KCAL/MOL
REMARK 922        TOTAL FREE ENERGY PREDICTED BY IDOCK:    6.32 KCAL/MOL
REMARK 923 INTER-LIGAND FREE ENERGY PREDICTED BY IDOCK:    5.65 KCAL/MOL
REMARK 924 INTRA-LIGAND FREE ENERGY PREDICTED BY IDOCK:    0.67 KCAL/MOL
REMARK 927      BINDING AFFINITY PREDICTED BY RF-SCORE:    0.00 PKD
ROOT
HETATM    1  C   UNL     1      -9.950  14.273  66.987  1.00  0.00    -0.258 C  
HETATM    2  C   UNL     1     -10.538  15.190  65.634  1.00  0.00    -0.370 C  
HETATM    3  C   UNL     1     -10.415  12.981  66.319  1.00  0.00    -0.285 C  
HETATM    4  C   UNL     1      -9.937  16.464  65.053  1.00  0.00     0.579 C  
HETATM    5  C   UNL     1      -9.128  12.654  65.543  1.00  0.00     0.453 C  
HETATM    6  C   UNL     1     -12.131  15.194  65.406  1.00  0.00     0.145 C  
HETATM    7  C   UNL     1      -7.369  14.907  67.052  1.00  0.00     0.115 C  
HETATM    8  C   UNL     1      -8.221  12.338  66.678  1.00  0.00     0.022 C  
HETATM    9  C   UNL     1      -8.858  11.101  67.500  1.00  0.00    -0.139 C  
HETATM   10  H   UNL     1      -6.602  14.808  69.193  1.00  0.00     0.000 HD 
HETATM   11  O   UNL     1      -6.885  14.059  69.704  1.00  0.00    -0.101 OA 
HETATM   12  C   UNL     1      -8.286  13.727  67.464  1.00  0.00    -0.197 C  
HETATM   13  C   UNL     1      -9.275   9.908  66.621  1.00  0.00    -0.153 C  
HETATM   14  C   UNL     1      -7.484  13.124  68.797  1.00  0.00    -0.050 C  
HETATM   15  C   UNL     1     -10.283   9.115  67.402  1.00  0.00    -0.310 C  
HETATM   16  O   UNL     1      -9.982  10.182  65.420  1.00  0.00    -0.290 OA 
HETATM   17  C   UNL     1      -7.947  11.899  69.633  1.00  0.00     1.049 C  
HETATM   18  C   UNL     1      -9.636   8.414  68.569  1.00  0.00    -0.155 C  
HETATM   19  C   UNL     1      -8.182  10.623  68.802  1.00  0.00    -0.142 C  
HETATM   20  H   UNL     1     -10.239   9.446  64.877  1.00  0.00     0.000 HD 
HETATM   21  C   UNL     1      -7.952   8.639  70.438  1.00  0.00    -0.101 C  
HETATM   22  C   UNL     1     -10.679   7.397  69.067  1.00  0.00    -0.164 C  
HETATM   23  C   UNL     1      -9.007   9.412  69.597  1.00  0.00    -0.181 C  
HETATM   24  C   UNL     1     -11.662   7.824  70.142  1.00  0.00     0.137 C  
HETATM   25  C   UNL     1     -10.130   9.883  70.588  1.00  0.00    -0.146 C  
HETATM   26  H   UNL     1     -13.501   8.578  70.263  1.00  0.00     0.000 HD 
HETATM   27  O   UNL     1     -12.885   8.311  69.591  1.00  0.00     2.317 OA 
HETATM   28  C   UNL     1     -11.079   8.792  71.156  1.00  0.00    -0.340 C  
ENDROOT
BRANCH   6  29
HETATM   29  C   UNL     1     -13.073  15.674  66.496  1.00  0.00     3.436 C  
BRANCH  29  30
HETATM   30  C   UNL     1     -12.519  15.492  67.879  1.00  0.00     1.054 C  
HETATM   31  O   UNL     1     -11.492  16.054  68.242  1.00  0.00    -0.355 OA 
HETATM   32  N   UNL     1     -13.237  14.624  68.683  1.00  0.00     1.515 N  
HETATM   33  H   UNL     1     -14.107  14.222  68.336  1.00  0.00     0.000 HD 
BRANCH  32  34
HETATM   34  C   UNL     1     -12.774  14.280  70.008  1.00  0.00    -0.117 C  
BRANCH  34  35
HETATM   35  C   UNL     1     -13.700  14.839  71.087  1.00  0.00    -0.351 C  
HETATM   36  S   UNL     1     -12.749  15.420  72.468  1.00  0.00    -0.433 S  
HETATM   37  O   UNL     1     -13.975  15.835  73.435  1.00  0.00    -0.196 OA 
HETATM   38  O   UNL     1     -12.030  16.621  72.119  1.00  0.00    -0.388 OA 
HETATM   39  O   UNL     1     -12.107  14.292  73.109  1.00  0.00     0.043 OA 
ENDBRANCH  34  35
ENDBRANCH  32  34
ENDBRANCH  29  30
ENDBRANCH   6  29
TORSDOF 4
ENDMDL
MODEL      165
REMARK 921   NORMALIZED FREE ENERGY PREDICTED BY IDOCK:    5.97 KCAL/MOL
REMARK 922        TOTAL FREE ENERGY PREDICTED BY IDOCK:    6.54 KCAL/MOL
REMARK 923 INTER-LIGAND FREE ENERGY PREDICTED BY IDOCK:    4.56 KCAL/MOL
REMARK 924 INTRA-LIGAND FREE ENERGY PREDICTED BY IDOCK:    1.98 KCAL/MOL
REMARK 927      BINDING AFFINITY PREDICTED BY RF-SCORE:    0.00 PKD
ROOT
HETATM    1  C   UNL     1      -8.106  11.317  69.185  1.00  0.00     0.019 C  
HETATM    2  C   UNL     1      -8.042  10.071  70.393  1.00  0.00     0.116 C  
HETATM    3  C   UNL     1      -9.608  11.089  69.025  1.00  0.00    -0.136 C  
HETATM    4  C   UNL     1      -7.142  10.024  71.622  1.00  0.00     1.328 C  
HETATM    5  C   UNL     1     -10.100  12.092  70.081  1.00  0.00     2.559 C  
HETATM    6  C   UNL     1      -8.353   8.571  69.898  1.00  0.00    -0.123 C  
HETATM    7  C   UNL     1      -7.195  13.447  70.486  1.00  0.00     1.897 C  
HETATM    8  C   UNL     1      -9.710  13.366  69.422  1.00  0.00     0.794 C  
HETATM    9  C   UNL     1     -10.466  13.447  67.996  1.00  0.00    -0.243 C  
HETATM   10  H   UNL     1      -6.148  14.852  69.033  1.00  0.00     0.000 HD 
HETATM   11  O   UNL     1      -6.586  14.997  68.203  1.00  0.00    -0.104 OA 
HETATM   12  C   UNL     1      -8.136  13.128  69.297  1.00  0.00     0.647 C  
HETATM   13  C   UNL     1     -11.977  13.163  68.067  1.00  0.00    -0.304 C  
HETATM   14  C   UNL     1      -7.911  14.462  68.320  1.00  0.00    -0.140 C  
HETATM   15  C   UNL     1     -12.416  12.760  66.689  1.00  0.00     0.303 C  
HETATM   16  O   UNL     1     -12.411  12.060  68.849  1.00  0.00    -0.062 OA 
HETATM   17  C   UNL     1      -8.628  14.698  66.961  1.00  0.00    -0.249 C  
HETATM   18  C   UNL     1     -12.376  13.932  65.742  1.00  0.00    -0.518 C  
HETATM   19  C   UNL     1     -10.164  14.618  67.039  1.00  0.00    -0.261 C  
HETATM   20  H   UNL     1     -13.344  11.886  68.894  1.00  0.00     0.000 HD 
HETATM   21  C   UNL     1     -11.063  15.968  65.029  1.00  0.00    -0.345 C  
HETATM   22  C   UNL     1     -13.150  13.476  64.492  1.00  0.00     0.353 C  
HETATM   23  C   UNL     1     -10.935  14.514  65.564  1.00  0.00    -0.337 C  
HETATM   24  C   UNL     1     -12.388  12.810  63.361  1.00  0.00    -0.437 C  
HETATM   25  C   UNL     1     -10.192  13.681  64.459  1.00  0.00    -0.253 C  
HETATM   26  H   UNL     1     -11.912  10.969  62.769  1.00  0.00     0.000 HD 
HETATM   27  O   UNL     1     -12.389  11.387  63.477  1.00  0.00    -0.185 OA 
HETATM   28  C   UNL     1     -10.985  13.355  63.164  1.00  0.00     1.319 C  
ENDROOT
BRANCH   6  29
HETATM   29  C   UNL     1      -7.532   7.929  68.793  1.00  0.00    -0.095 C  
BRANCH  29  30
HETATM   30  C   UNL     1      -6.817   8.928  67.930  1.00  0.00    -0.070 C  
HETATM   31  O   UNL     1      -6.515  10.040  68.346  1.00  0.00    -0.053 OA 
HETATM   32  N   UNL     1      -6.565   8.505  66.637  1.00  0.00    -0.059 N  
HETATM   33  H   UNL     1      -6.805   7.551  66.366  1.00  0.00     0.000 HD 
BRANCH  32  34
HETATM   34  C   UNL     1      -5.967   9.391  65.666  1.00  0.00    -0.059 C  
BRANCH  34  35
HETATM   35  C   UNL     1      -6.408   9.042  64.244  1.00  0.00    -0.075 C  
HETATM   36  S   UNL     1      -8.097   8.495  64.245  1.00  0.00    -0.140 S  
HETATM   37  O   UNL     1      -8.220   8.121  62.678  1.00  0.00    -0.172 OA 
HETATM   38  O   UNL     1      -8.987   9.599  64.512  1.00  0.00    -0.214 OA 
HETATM   39  O   UNL     1      -8.187   7.238  64.957  1.00  0.00    -0.137 OA 
ENDBRANCH  34  35
ENDBRANCH  32  34
ENDBRANCH  29  30
ENDBRANCH   6  29
TORSDOF 4
ENDMDL
MODEL      166
REMARK 921   NORMALIZED FREE ENERGY PREDICTED BY IDOCK:    7.41 KCAL/MOL
REMARK 922        TOTAL FREE ENERGY PREDICTED BY IDOCK:    8.32 KCAL/MOL
REMARK 923 INTER-LIGAND FREE ENERGY PREDICTED BY IDOCK:    8.39 KCAL/MOL
REMARK 924 INTRA-LIGAND FREE ENERGY PREDICTED BY IDOCK:   -0.08 KCAL/MOL
REMARK 927      BINDING AFFINITY PREDICTED BY RF-SCORE:    0.00 PKD
ROOT
HETATM    1  C   UNL     1      -8.874  12.152  68.971  1.00  0.00     0.386 C  
HETATM    2  C   UNL     1      -9.734  10.690  69.340  1.00  0.00    -0.141 C  
HETATM    3  C   UNL     1     -10.195  12.912  68.882  1.00  0.00    -0.007 C  
HETATM    4  C   UNL     1      -9.282   9.562  70.259  1.00  0.00    -0.303 C  
HETATM    5  C   UNL     1     -10.302  13.350  70.352  1.00  0.00     2.573 C  
HETATM    6  C   UNL     1     -10.672  10.093  68.176  1.00  0.00    -0.285 C  
HETATM    7  C   UNL     1      -7.285  12.451  71.080  1.00  0.00     4.630 C  
HETATM    8  C   UNL     1      -9.170  14.312  70.412  1.00  0.00     2.275 C  
HETATM    9  C   UNL     1      -9.443  15.480  69.328  1.00  0.00    -0.263 C  
HETATM   10  H   UNL     1      -5.372  13.521  70.463  1.00  0.00     0.000 HD 
HETATM   11  O   UNL     1      -5.479  14.265  69.882  1.00  0.00    -0.093 OA 
HETATM   12  C   UNL     1      -7.971  13.336  70.009  1.00  0.00     2.220 C  
HETATM   13  C   UNL     1     -10.852  16.094  69.407  1.00  0.00    -0.320 C  
HETATM   14  C   UNL     1      -6.876  14.585  69.849  1.00  0.00    -0.097 C  
HETATM   15  C   UNL     1     -11.129  16.736  68.078  1.00  0.00    -0.220 C  
HETATM   16  O   UNL     1     -11.957  15.213  69.545  1.00  0.00    -0.312 OA 
HETATM   17  C   UNL     1      -7.051  15.802  68.899  1.00  0.00    -0.139 C  
HETATM   18  C   UNL     1     -10.278  17.963  67.879  1.00  0.00    -0.375 C  
HETATM   19  C   UNL     1      -8.375  16.566  69.092  1.00  0.00    -0.157 C  
HETATM   20  H   UNL     1     -12.827  15.592  69.595  1.00  0.00     0.000 HD 
HETATM   21  C   UNL     1      -7.974  18.951  68.188  1.00  0.00    -0.330 C  
HETATM   22  C   UNL     1     -10.886  18.694  66.668  1.00  0.00    -0.175 C  
HETATM   23  C   UNL     1      -8.747  17.640  67.873  1.00  0.00    -0.245 C  
HETATM   24  C   UNL     1     -10.365  18.369  65.280  1.00  0.00     0.707 C  
HETATM   25  C   UNL     1      -8.335  17.201  66.422  1.00  0.00    -0.315 C  
HETATM   26  H   UNL     1     -10.812  17.150  63.770  1.00  0.00     0.000 HD 
HETATM   27  O   UNL     1     -11.137  17.354  64.639  1.00  0.00    -1.029 OA 
HETATM   28  C   UNL     1      -8.881  18.051  65.242  1.00  0.00     1.987 C  
ENDROOT
BRANCH   6  29
HETATM   29  C   UNL     1     -10.095   9.738  66.816  1.00  0.00    -0.295 C  
BRANCH  29  30
HETATM   30  C   UNL     1      -9.805   8.273  66.661  1.00  0.00    -0.267 C  
HETATM   31  O   UNL     1     -10.588   7.416  67.051  1.00  0.00    -0.313 OA 
HETATM   32  N   UNL     1      -8.583   7.981  66.081  1.00  0.00    -0.140 N  
HETATM   33  H   UNL     1      -7.995   8.741  65.739  1.00  0.00     0.000 HD 
BRANCH  32  34
HETATM   34  C   UNL     1      -8.127   6.616  65.950  1.00  0.00    -0.126 C  
BRANCH  34  35
HETATM   35  C   UNL     1      -7.980   5.942  67.314  1.00  0.00    -0.102 C  
HETATM   36  S   UNL     1      -7.845   4.184  67.115  1.00  0.00    -0.096 S  
HETATM   37  O   UNL     1      -7.809   3.777  68.678  1.00  0.00    -0.063 OA 
HETATM   38  O   UNL     1      -6.571   3.836  66.534  1.00  0.00    -0.040 OA 
HETATM   39  O   UNL     1      -9.097   3.668  66.603  1.00  0.00    -0.139 OA 
ENDBRANCH  34  35
ENDBRANCH  32  34
ENDBRANCH  29  30
ENDBRANCH   6  29
TORSDOF 4
ENDMDL
MODEL      167
REMARK 921   NORMALIZED FREE ENERGY PREDICTED BY IDOCK:    8.83 KCAL/MOL
REMARK 922        TOTAL FREE ENERGY PREDICTED BY IDOCK:   10.07 KCAL/MOL
REMARK 923 INTER-LIGAND FREE ENERGY PREDICTED BY IDOCK:    8.15 KCAL/MOL
REMARK 924 INTRA-LIGAND FREE ENERGY PREDICTED BY IDOCK:    1.92 KCAL/MOL
REMARK 927      BINDING AFFINITY PREDICTED BY RF-SCORE:    0.00 PKD
ROOT
HETATM    1  C   UNL     1      -7.856  11.979  67.930  1.00  0.00    -0.144 C  
HETATM    2  C   UNL     1      -6.367  11.118  68.175  1.00  0.00    -0.053 C  
HETATM    3  C   UNL     1      -7.732  12.598  69.320  1.00  0.00     0.454 C  
HETATM    4  C   UNL     1      -5.315  10.779  67.127  1.00  0.00    -0.044 C  
HETATM    5  C   UNL     1      -6.943  13.860  68.934  1.00  0.00    -0.110 C  
HETATM    6  C   UNL     1      -6.371   9.985  69.319  1.00  0.00    -0.045 C  
HETATM    7  C   UNL     1      -7.350  13.424  65.758  1.00  0.00     5.036 C  
HETATM    8  C   UNL     1      -7.982  14.579  68.152  1.00  0.00    -0.133 C  
HETATM    9  C   UNL     1      -9.251  14.835  69.118  1.00  0.00    -0.089 C  
HETATM   10  H   UNL     1      -9.272  13.760  64.586  1.00  0.00     0.000 HD 
HETATM   11  O   UNL     1     -10.039  13.988  65.099  1.00  0.00    -0.357 OA 
HETATM   12  C   UNL     1      -8.256  13.493  67.013  1.00  0.00    -0.050 C  
HETATM   13  C   UNL     1      -8.890  15.451  70.482  1.00  0.00     1.417 C  
HETATM   14  C   UNL     1      -9.591  14.302  66.424  1.00  0.00    -0.298 C  
HETATM   15  C   UNL     1     -10.023  15.143  71.419  1.00  0.00     1.786 C  
HETATM   16  O   UNL     1      -7.776  14.915  71.181  1.00  0.00     0.955 OA 
HETATM   17  C   UNL     1     -10.845  14.674  67.262  1.00  0.00    -0.305 C  
HETATM   18  C   UNL     1     -11.258  15.927  71.054  1.00  0.00    -0.371 C  
HETATM   19  C   UNL     1     -10.532  15.472  68.542  1.00  0.00    -0.238 C  
HETATM   20  H   UNL     1      -7.553  15.295  72.022  1.00  0.00     0.000 HD 
HETATM   21  C   UNL     1     -12.693  16.750  69.146  1.00  0.00     3.173 C  
HETATM   22  C   UNL     1     -12.207  15.783  72.258  1.00  0.00    -0.555 C  
HETATM   23  C   UNL     1     -11.793  15.577  69.627  1.00  0.00    -0.384 C  
HETATM   24  C   UNL     1     -13.200  14.635  72.274  1.00  0.00    -0.378 C  
HETATM   25  C   UNL     1     -12.713  14.308  69.736  1.00  0.00    -0.003 C  
HETATM   26  H   UNL     1     -13.311  12.772  72.969  1.00  0.00     0.000 HD 
HETATM   27  O   UNL     1     -12.689  13.491  72.959  1.00  0.00    -0.143 OA 
HETATM   28  C   UNL     1     -13.738  14.273  70.902  1.00  0.00    -0.023 C  
ENDROOT
BRANCH   6  29
HETATM   29  C   UNL     1      -7.354   8.829  69.267  1.00  0.00    -0.070 C  
BRANCH  29  30
HETATM   30  C   UNL     1      -7.656   8.371  67.869  1.00  0.00    -0.099 C  
HETATM   31  O   UNL     1      -7.640   7.185  67.561  1.00  0.00    -0.104 OA 
HETATM   32  N   UNL     1      -7.915   9.388  66.967  1.00  0.00    -0.102 N  
HETATM   33  H   UNL     1      -7.954  10.353  67.297  1.00  0.00     0.000 HD 
BRANCH  32  34
HETATM   34  C   UNL     1      -8.131   9.106  65.567  1.00  0.00    -0.115 C  
BRANCH  34  35
HETATM   35  C   UNL     1      -6.954   8.339  64.963  1.00  0.00    -0.074 C  
HETATM   36  S   UNL     1      -6.478   9.070  63.417  1.00  0.00    -0.090 S  
HETATM   37  O   UNL     1      -5.329   8.012  63.005  1.00  0.00    -0.050 OA 
HETATM   38  O   UNL     1      -5.848  10.351  63.635  1.00  0.00    -0.140 OA 
HETATM   39  O   UNL     1      -7.545   8.886  62.457  1.00  0.00    -0.107 OA 
ENDBRANCH  34  35
ENDBRANCH  32  34
ENDBRANCH  29  30
ENDBRANCH   6  29
TORSDOF 4
ENDMDL
MODEL      168
REMARK 921   NORMALIZED FREE ENERGY PREDICTED BY IDOCK:    9.05 KCAL/MOL
REMARK 922        TOTAL FREE ENERGY PREDICTED BY IDOCK:   10.34 KCAL/MOL
REMARK 923 INTER-LIGAND FREE ENERGY PREDICTED BY IDOCK:   11.47 KCAL/MOL
REMARK 924 INTRA-LIGAND FREE ENERGY PREDICTED BY IDOCK:   -1.13 KCAL/MOL
REMARK 927      BINDING AFFINITY PREDICTED BY RF-SCORE:    0.00 PKD
ROOT
HETATM    1  C   UNL     1     -12.201  11.426  70.526  1.00  0.00    -0.478 C  
HETATM    2  C   UNL     1     -12.314  13.105  70.954  1.00  0.00    -0.393 C  
HETATM    3  C   UNL     1     -10.802  11.361  71.134  1.00  0.00     2.974 C  
HETATM    4  C   UNL     1     -13.563  13.865  71.382  1.00  0.00    -0.287 C  
HETATM    5  C   UNL     1     -11.198  10.966  72.566  1.00  0.00     6.220 C  
HETATM    6  C   UNL     1     -11.306  14.109  70.201  1.00  0.00    -0.147 C  
HETATM    7  C   UNL     1     -14.275  10.353  71.795  1.00  0.00     0.703 C  
HETATM    8  C   UNL     1     -11.704   9.590  72.319  1.00  0.00     0.220 C  
HETATM    9  C   UNL     1     -10.504   8.720  71.676  1.00  0.00    -0.387 C  
HETATM   10  H   UNL     1     -15.042   8.549  70.637  1.00  0.00     0.000 HD 
HETATM   11  O   UNL     1     -14.379   7.959  70.297  1.00  0.00     1.262 OA 
HETATM   12  C   UNL     1     -12.876   9.922  71.285  1.00  0.00    -0.486 C  
HETATM   13  C   UNL     1      -9.174   8.818  72.444  1.00  0.00    -0.065 C  
HETATM   14  C   UNL     1     -13.133   8.317  70.908  1.00  0.00     0.245 C  
HETATM   15  C   UNL     1      -8.083   8.425  71.490  1.00  0.00    -0.172 C  
HETATM   16  O   UNL     1      -8.744  10.102  72.871  1.00  0.00     4.690 OA 
HETATM   17  C   UNL     1     -12.049   7.352  70.352  1.00  0.00     0.006 C  
HETATM   18  C   UNL     1      -8.140   6.952  71.176  1.00  0.00    -0.110 C  
HETATM   19  C   UNL     1     -10.774   7.274  71.213  1.00  0.00    -0.243 C  
HETATM   20  H   UNL     1      -7.924  10.163  73.346  1.00  0.00     0.000 HD 
HETATM   21  C   UNL     1      -9.667   5.006  70.666  1.00  0.00    -0.266 C  
HETATM   22  C   UNL     1      -6.805   6.628  70.481  1.00  0.00    -0.062 C  
HETATM   23  C   UNL     1      -9.474   6.537  70.474  1.00  0.00    -0.173 C  
HETATM   24  C   UNL     1      -6.723   6.729  68.970  1.00  0.00    -0.059 C  
HETATM   25  C   UNL     1      -9.327   6.792  68.931  1.00  0.00    -0.129 C  
HETATM   26  H   UNL     1      -6.206   8.072  67.593  1.00  0.00     0.000 HD 
HETATM   27  O   UNL     1      -6.258   8.008  68.540  1.00  0.00    -0.042 OA 
HETATM   28  C   UNL     1      -8.004   6.331  68.259  1.00  0.00    -0.108 C  
ENDROOT
BRANCH   6  29
HETATM   29  C   UNL     1     -11.293  14.210  68.686  1.00  0.00    -0.306 C  
BRANCH  29  30
HETATM   30  C   UNL     1     -10.742  12.984  68.016  1.00  0.00    -0.232 C  
HETATM   31  O   UNL     1     -11.473  12.147  67.500  1.00  0.00    -0.298 OA 
HETATM   32  N   UNL     1      -9.364  12.866  68.061  1.00  0.00    -0.207 N  
HETATM   33  H   UNL     1      -8.809  13.619  68.469  1.00  0.00     0.000 HD 
BRANCH  32  34
HETATM   34  C   UNL     1      -8.698  11.695  67.540  1.00  0.00    -0.156 C  
BRANCH  34  35
HETATM   35  C   UNL     1      -7.206  11.706  67.872  1.00  0.00    -0.083 C  
HETATM   36  S   UNL     1      -6.739  13.283  68.538  1.00  0.00    -0.102 S  
HETATM   37  O   UNL     1      -5.153  13.013  68.682  1.00  0.00    -0.061 OA 
HETATM   38  O   UNL     1      -7.284  13.455  69.863  1.00  0.00     0.381 OA 
HETATM   39  O   UNL     1      -6.875  14.291  67.509  1.00  0.00    -0.182 OA 
ENDBRANCH  34  35
ENDBRANCH  32  34
ENDBRANCH  29  30
ENDBRANCH   6  29
TORSDOF 4
ENDMDL
MODEL      169
REMARK 921   NORMALIZED FREE ENERGY PREDICTED BY IDOCK:    9.78 KCAL/MOL
REMARK 922        TOTAL FREE ENERGY PREDICTED BY IDOCK:   11.24 KCAL/MOL
REMARK 923 INTER-LIGAND FREE ENERGY PREDICTED BY IDOCK:   12.17 KCAL/MOL
REMARK 924 INTRA-LIGAND FREE ENERGY PREDICTED BY IDOCK:   -0.93 KCAL/MOL
REMARK 927      BINDING AFFINITY PREDICTED BY RF-SCORE:    0.00 PKD
ROOT
HETATM    1  C   UNL     1     -12.201  11.426  70.526  1.00  0.00    -0.478 C  
HETATM    2  C   UNL     1     -12.354  13.107  70.931  1.00  0.00    -0.393 C  
HETATM    3  C   UNL     1     -10.801  11.402  71.137  1.00  0.00     2.974 C  
HETATM    4  C   UNL     1     -13.622  13.843  71.348  1.00  0.00    -0.287 C  
HETATM    5  C   UNL     1     -11.190  11.017  72.573  1.00  0.00     6.691 C  
HETATM    6  C   UNL     1     -11.369  14.125  70.166  1.00  0.00    -0.147 C  
HETATM    7  C   UNL     1     -14.251  10.321  71.806  1.00  0.00     0.581 C  
HETATM    8  C   UNL     1     -11.664   9.627  72.344  1.00  0.00     0.663 C  
HETATM    9  C   UNL     1     -10.442   8.777  71.714  1.00  0.00    -0.417 C  
HETATM   10  H   UNL     1     -14.973   8.484  70.672  1.00  0.00     0.000 HD 
HETATM   11  O   UNL     1     -14.296   7.905  70.341  1.00  0.00     0.913 OA 
HETATM   12  C   UNL     1     -12.841   9.917  71.304  1.00  0.00    -0.486 C  
HETATM   13  C   UNL     1      -9.116   8.916  72.483  1.00  0.00     0.283 C  
HETATM   14  C   UNL     1     -13.059   8.301  70.948  1.00  0.00     0.245 C  
HETATM   15  C   UNL     1      -8.015   8.536  71.535  1.00  0.00    -0.169 C  
HETATM   16  O   UNL     1      -8.717  10.216  72.893  1.00  0.00     4.690 OA 
HETATM   17  C   UNL     1     -11.953   7.355  70.406  1.00  0.00    -0.056 C  
HETATM   18  C   UNL     1      -8.036   7.058  71.241  1.00  0.00    -0.108 C  
HETATM   19  C   UNL     1     -10.677   7.319  71.270  1.00  0.00    -0.243 C  
HETATM   20  H   UNL     1      -7.899  10.302  73.368  1.00  0.00     0.000 HD 
HETATM   21  C   UNL     1      -9.516   5.070  70.754  1.00  0.00    -0.230 C  
HETATM   22  C   UNL     1      -6.693   6.757  70.552  1.00  0.00    -0.053 C  
HETATM   23  C   UNL     1      -9.359   6.603  70.542  1.00  0.00    -0.167 C  
HETATM   24  C   UNL     1      -6.611   6.840  69.039  1.00  0.00    -0.041 C  
HETATM   25  C   UNL     1      -9.216   6.840  68.996  1.00  0.00    -0.136 C  
HETATM   26  H   UNL     1      -6.124   8.176  67.646  1.00  0.00     0.000 HD 
HETATM   27  O   UNL     1      -6.176   8.124  68.593  1.00  0.00    -0.042 OA 
HETATM   28  C   UNL     1      -7.882   6.403  68.332  1.00  0.00    -0.105 C  
ENDROOT
BRANCH   6  29
HETATM   29  C   UNL     1     -11.356  14.206  68.650  1.00  0.00    -0.306 C  
BRANCH  29  30
HETATM   30  C   UNL     1      -9.972  14.178  68.068  1.00  0.00    -0.226 C  
HETATM   31  O   UNL     1      -9.505  13.164  67.563  1.00  0.00    -0.199 OA 
HETATM   32  N   UNL     1      -9.271  15.365  68.179  1.00  0.00    -0.184 N  
HETATM   33  H   UNL     1      -9.733  16.186  68.571  1.00  0.00     0.000 HD 
BRANCH  32  34
HETATM   34  C   UNL     1      -7.896  15.462  67.747  1.00  0.00    -0.143 C  
BRANCH  34  35
HETATM   35  C   UNL     1      -7.385  16.901  67.825  1.00  0.00    -0.155 C  
HETATM   36  S   UNL     1      -8.690  17.986  68.345  1.00  0.00    -0.289 S  
HETATM   37  O   UNL     1      -7.887  19.383  68.233  1.00  0.00    -0.304 OA 
HETATM   38  O   UNL     1      -9.010  17.765  69.734  1.00  0.00     0.780 OA 
HETATM   39  O   UNL     1      -9.705  18.031  67.315  1.00  0.00    -0.283 OA 
ENDBRANCH  34  35
ENDBRANCH  32  34
ENDBRANCH  29  30
ENDBRANCH   6  29
TORSDOF 4
ENDMDL
MODEL      170
REMARK 921   NORMALIZED FREE ENERGY PREDICTED BY IDOCK:   10.39 KCAL/MOL
REMARK 922        TOTAL FREE ENERGY PREDICTED BY IDOCK:   11.99 KCAL/MOL
REMARK 923 INTER-LIGAND FREE ENERGY PREDICTED BY IDOCK:   11.35 KCAL/MOL
REMARK 924 INTRA-LIGAND FREE ENERGY PREDICTED BY IDOCK:    0.65 KCAL/MOL
REMARK 927      BINDING AFFINITY PREDICTED BY RF-SCORE:    0.00 PKD
ROOT
HETATM    1  C   UNL     1      -9.821   4.558  68.026  1.00  0.00    -0.154 C  
HETATM    2  C   UNL     1     -10.952   4.724  66.719  1.00  0.00     0.695 C  
HETATM    3  C   UNL     1     -10.195   5.950  68.531  1.00  0.00    -0.240 C  
HETATM    4  C   UNL     1     -11.794   3.625  66.083  1.00  0.00     7.460 C  
HETATM    5  C   UNL     1     -11.339   5.546  69.475  1.00  0.00     0.665 C  
HETATM    6  C   UNL     1     -10.620   5.851  65.618  1.00  0.00     0.895 C  
HETATM    7  C   UNL     1     -10.692   2.386  69.286  1.00  0.00     3.665 C  
HETATM    8  C   UNL     1     -10.565   4.822  70.517  1.00  0.00     0.072 C  
HETATM    9  C   UNL     1      -9.488   5.848  71.148  1.00  0.00    -0.183 C  
HETATM   10  H   UNL     1      -8.943   1.307  70.266  1.00  0.00     0.000 HD 
HETATM   11  O   UNL     1      -8.314   1.856  70.718  1.00  0.00    -0.048 OA 
HETATM   12  C   UNL     1      -9.907   3.682  69.613  1.00  0.00     0.013 C  
HETATM   13  C   UNL     1     -10.083   7.203  71.573  1.00  0.00    -0.186 C  
HETATM   14  C   UNL     1      -8.891   3.164  70.831  1.00  0.00    -0.082 C  
HETATM   15  C   UNL     1      -8.949   8.185  71.627  1.00  0.00    -0.212 C  
HETATM   16  O   UNL     1     -10.985   7.843  70.682  1.00  0.00    -0.238 OA 
HETATM   17  C   UNL     1      -7.861   4.063  71.570  1.00  0.00    -0.065 C  
HETATM   18  C   UNL     1      -8.027   7.887  72.782  1.00  0.00    -0.175 C  
HETATM   19  C   UNL     1      -8.467   5.339  72.185  1.00  0.00    -0.126 C  
HETATM   20  H   UNL     1     -11.353   8.679  70.945  1.00  0.00     0.000 HD 
HETATM   21  C   UNL     1      -6.871   6.058  74.083  1.00  0.00    -0.080 C  
HETATM   22  C   UNL     1      -7.130   9.131  72.923  1.00  0.00     0.564 C  
HETATM   23  C   UNL     1      -7.352   6.481  72.667  1.00  0.00    -0.090 C  
HETATM   24  C   UNL     1      -5.816   9.175  72.164  1.00  0.00    -0.048 C  
HETATM   25  C   UNL     1      -6.072   6.613  71.767  1.00  0.00    -0.038 C  
HETATM   26  H   UNL     1      -5.126   9.849  70.422  1.00  0.00     0.000 HD 
HETATM   27  O   UNL     1      -5.948   9.820  70.898  1.00  0.00    -0.075 OA 
HETATM   28  C   UNL     1      -5.137   7.824  72.037  1.00  0.00    -0.035 C  
ENDROOT
BRANCH   6  29
HETATM   29  C   UNL     1      -9.310   5.827  64.850  1.00  0.00     0.487 C  
BRANCH  29  30
HETATM   30  C   UNL     1      -8.494   7.074  65.034  1.00  0.00     0.028 C  
HETATM   31  O   UNL     1      -8.022   7.380  66.123  1.00  0.00    -0.102 OA 
HETATM   32  N   UNL     1      -8.350   7.849  63.897  1.00  0.00    -0.377 N  
HETATM   33  H   UNL     1      -8.731   7.516  63.012  1.00  0.00     0.000 HD 
BRANCH  32  34
HETATM   34  C   UNL     1      -7.668   9.121  63.944  1.00  0.00    -0.122 C  
BRANCH  34  35
HETATM   35  C   UNL     1      -8.370  10.098  64.888  1.00  0.00    -0.164 C  
HETATM   36  S   UNL     1      -7.311  10.490  66.258  1.00  0.00    -0.138 S  
HETATM   37  O   UNL     1      -8.341  11.420  67.086  1.00  0.00    -0.143 OA 
HETATM   38  O   UNL     1      -6.210  11.317  65.827  1.00  0.00     0.008 OA 
HETATM   39  O   UNL     1      -7.119   9.303  67.063  1.00  0.00    -0.084 OA 
ENDBRANCH  34  35
ENDBRANCH  32  34
ENDBRANCH  29  30
ENDBRANCH   6  29
TORSDOF 4
ENDMDL
MODEL      171
REMARK 921   NORMALIZED FREE ENERGY PREDICTED BY IDOCK:   10.39 KCAL/MOL
REMARK 922        TOTAL FREE ENERGY PREDICTED BY IDOCK:   12.00 KCAL/MOL
REMARK 923 INTER-LIGAND FREE ENERGY PREDICTED BY IDOCK:    3.36 KCAL/MOL
REMARK 924 INTRA-LIGAND FREE ENERGY PREDICTED BY IDOCK:    8.64 KCAL/MOL
REMARK 927      BINDING AFFINITY PREDICTED BY RF-SCORE:    0.00 PKD
ROOT
HETATM    1  C   UNL     1      -9.594  12.941  67.579  1.00  0.00    -0.200 C  
HETATM    2  C   UNL     1     -10.891  12.008  68.260  1.00  0.00    -0.263 C  
HETATM    3  C   UNL     1     -10.024  14.150  68.406  1.00  0.00    -0.235 C  
HETATM    4  C   UNL     1     -10.884  10.518  68.582  1.00  0.00    -0.276 C  
HETATM    5  C   UNL     1      -9.170  13.881  69.656  1.00  0.00     1.130 C  
HETATM    6  C   UNL     1     -12.386  12.470  67.882  1.00  0.00     0.413 C  
HETATM    7  C   UNL     1      -7.440  11.539  68.255  1.00  0.00    -0.103 C  
HETATM    8  C   UNL     1      -7.814  14.113  69.091  1.00  0.00     0.063 C  
HETATM    9  C   UNL     1      -7.754  15.628  68.534  1.00  0.00    -0.131 C  
HETATM   10  H   UNL     1      -5.812  11.817  66.689  1.00  0.00     0.000 HD 
HETATM   11  O   UNL     1      -5.680  12.705  66.377  1.00  0.00     0.435 OA 
HETATM   12  C   UNL     1      -7.816  13.008  67.937  1.00  0.00    -0.149 C  
HETATM   13  C   UNL     1      -8.255  16.687  69.532  1.00  0.00     0.322 C  
HETATM   14  C   UNL     1      -6.406  13.579  67.252  1.00  0.00     0.275 C  
HETATM   15  C   UNL     1      -8.630  17.903  68.735  1.00  0.00    -0.208 C  
HETATM   16  O   UNL     1      -9.456  16.418  70.241  1.00  0.00     0.777 OA 
HETATM   17  C   UNL     1      -6.191  15.030  66.741  1.00  0.00     1.567 C  
HETATM   18  C   UNL     1      -7.409  18.580  68.169  1.00  0.00    -0.276 C  
HETATM   19  C   UNL     1      -6.495  16.117  67.790  1.00  0.00    -0.168 C  
HETATM   20  H   UNL     1      -9.765  17.071  70.858  1.00  0.00     0.000 HD 
HETATM   21  C   UNL     1      -5.165  18.211  67.070  1.00  0.00    -0.138 C  
HETATM   22  C   UNL     1      -7.892  19.957  67.678  1.00  0.00    -0.325 C  
HETATM   23  C   UNL     1      -6.616  17.664  67.180  1.00  0.00    -0.188 C  
HETATM   24  C   UNL     1      -8.370  20.097  66.245  1.00  0.00    -0.216 C  
HETATM   25  C   UNL     1      -7.264  17.790  65.754  1.00  0.00    -0.154 C  
HETATM   26  H   UNL     1     -10.083  20.014  65.233  1.00  0.00     0.000 HD 
HETATM   27  O   UNL     1      -9.783  19.927  66.130  1.00  0.00    -0.410 OA 
HETATM   28  C   UNL     1      -7.618  19.219  65.260  1.00  0.00     0.493 C  
ENDROOT
BRANCH   6  29
HETATM   29  C   UNL     1     -12.834  12.549  66.432  1.00  0.00     1.599 C  
BRANCH  29  30
HETATM   30  C   UNL     1     -11.886  13.323  65.562  1.00  0.00    -0.370 C  
HETATM   31  O   UNL     1     -10.714  12.991  65.431  1.00  0.00    -0.281 OA 
HETATM   32  N   UNL     1     -12.432  14.442  64.959  1.00  0.00    -0.502 N  
HETATM   33  H   UNL     1     -13.427  14.639  65.075  1.00  0.00     0.000 HD 
BRANCH  32  34
HETATM   34  C   UNL     1     -11.618  15.335  64.167  1.00  0.00    -0.067 C  
BRANCH  34  35
HETATM   35  C   UNL     1     -10.461  15.910  64.984  1.00  0.00    -0.266 C  
HETATM   36  S   UNL     1     -10.948  17.440  65.740  1.00  0.00     0.372 S  
HETATM   37  O   UNL     1      -9.532  17.824  66.417  1.00  0.00    -0.281 OA 
HETATM   38  O   UNL     1     -11.899  17.202  66.799  1.00  0.00     1.465 OA 
HETATM   39  O   UNL     1     -11.171  18.429  64.707  1.00  0.00    -0.344 OA 
ENDBRANCH  34  35
ENDBRANCH  32  34
ENDBRANCH  29  30
ENDBRANCH   6  29
TORSDOF 4
ENDMDL
MODEL      172
REMARK 921   NORMALIZED FREE ENERGY PREDICTED BY IDOCK:   11.62 KCAL/MOL
REMARK 922        TOTAL FREE ENERGY PREDICTED BY IDOCK:   13.51 KCAL/MOL
REMARK 923 INTER-LIGAND FREE ENERGY PREDICTED BY IDOCK:    7.88 KCAL/MOL
REMARK 924 INTRA-LIGAND FREE ENERGY PREDICTED BY IDOCK:    5.63 KCAL/MOL
REMARK 927      BINDING AFFINITY PREDICTED BY RF-SCORE:    0.00 PKD
ROOT
HETATM    1  C   UNL     1     -10.095   6.775  69.756  1.00  0.00    -0.198 C  
HETATM    2  C   UNL     1     -10.595   5.134  69.491  1.00  0.00    -0.130 C  
HETATM    3  C   UNL     1      -9.983   6.990  68.249  1.00  0.00    -0.165 C  
HETATM    4  C   UNL     1     -11.583   4.325  70.322  1.00  0.00     6.030 C  
HETATM    5  C   UNL     1     -11.418   7.473  67.984  1.00  0.00     0.830 C  
HETATM    6  C   UNL     1      -9.503   4.145  68.842  1.00  0.00    -0.238 C  
HETATM    7  C   UNL     1     -12.134   7.800  71.118  1.00  0.00    -0.306 C  
HETATM    8  C   UNL     1     -11.377   8.784  68.684  1.00  0.00     0.610 C  
HETATM    9  C   UNL     1     -10.217   9.681  68.006  1.00  0.00    -0.235 C  
HETATM   10  H   UNL     1     -11.389   9.443  72.508  1.00  0.00     0.000 HD 
HETATM   11  O   UNL     1     -10.758  10.048  72.137  1.00  0.00     1.261 OA 
HETATM   12  C   UNL     1     -11.018   8.285  70.159  1.00  0.00    -0.222 C  
HETATM   13  C   UNL     1     -10.286   9.742  66.469  1.00  0.00    -0.219 C  
HETATM   14  C   UNL     1     -10.736   9.831  70.720  1.00  0.00    -0.323 C  
HETATM   15  C   UNL     1      -8.920  10.131  65.981  1.00  0.00    -0.174 C  
HETATM   16  O   UNL     1     -10.518   8.531  65.764  1.00  0.00     0.135 OA 
HETATM   17  C   UNL     1      -9.703  10.821  70.115  1.00  0.00     0.804 C  
HETATM   18  C   UNL     1      -8.608  11.565  66.324  1.00  0.00    -0.133 C  
HETATM   19  C   UNL     1      -9.872  11.060  68.602  1.00  0.00    -0.197 C  
HETATM   20  H   UNL     1     -10.561   8.569  64.816  1.00  0.00     0.000 HD 
HETATM   21  C   UNL     1      -8.783  13.348  68.104  1.00  0.00    -0.179 C  
HETATM   22  C   UNL     1      -7.362  11.924  65.495  1.00  0.00     1.740 C  
HETATM   23  C   UNL     1      -8.586  11.824  67.866  1.00  0.00    -0.156 C  
HETATM   24  C   UNL     1      -5.989  11.703  66.103  1.00  0.00     0.336 C  
HETATM   25  C   UNL     1      -7.162  11.453  68.416  1.00  0.00    -0.087 C  
HETATM   26  H   UNL     1      -4.586  10.290  66.139  1.00  0.00     0.000 HD 
HETATM   27  O   UNL     1      -5.446  10.429  65.758  1.00  0.00    -0.062 OA 
HETATM   28  C   UNL     1      -5.936  11.948  67.600  1.00  0.00    -0.084 C  
ENDROOT
BRANCH   6  29
HETATM   29  C   UNL     1      -8.159   3.920  69.513  1.00  0.00    -0.062 C  
BRANCH  29  30
HETATM   30  C   UNL     1      -7.985   4.719  70.772  1.00  0.00    -0.081 C  
HETATM   31  O   UNL     1      -6.878   4.941  71.247  1.00  0.00    -0.040 OA 
HETATM   32  N   UNL     1      -9.164   5.147  71.356  1.00  0.00    -0.143 N  
HETATM   33  H   UNL     1     -10.052   4.966  70.887  1.00  0.00     0.000 HD 
BRANCH  32  34
HETATM   34  C   UNL     1      -9.159   5.848  72.619  1.00  0.00    -0.130 C  
BRANCH  34  35
HETATM   35  C   UNL     1      -9.053   7.360  72.420  1.00  0.00    -0.132 C  
HETATM   36  S   UNL     1      -7.349   7.853  72.375  1.00  0.00    -0.097 S  
HETATM   37  O   UNL     1      -7.573   9.449  72.262  1.00  0.00     0.052 OA 
HETATM   38  O   UNL     1      -6.723   7.402  71.155  1.00  0.00    -0.046 OA 
HETATM   39  O   UNL     1      -6.757   7.629  73.677  1.00  0.00    -0.078 OA 
ENDBRANCH  34  35
ENDBRANCH  32  34
ENDBRANCH  29  30
ENDBRANCH   6  29
TORSDOF 4
ENDMDL
MODEL      173
REMARK 921   NORMALIZED FREE ENERGY PREDICTED BY IDOCK:   13.63 KCAL/MOL
REMARK 922        TOTAL FREE ENERGY PREDICTED BY IDOCK:   15.99 KCAL/MOL
REMARK 923 INTER-LIGAND FREE ENERGY PREDICTED BY IDOCK:   15.32 KCAL/MOL
REMARK 924 INTRA-LIGAND FREE ENERGY PREDICTED BY IDOCK:    0.68 KCAL/MOL
REMARK 927      BINDING AFFINITY PREDICTED BY RF-SCORE:    0.00 PKD
ROOT
HETATM    1  C   UNL     1      -9.453  12.976  66.016  1.00  0.00    -0.108 C  
HETATM    2  C   UNL     1      -8.912  12.060  64.643  1.00  0.00     0.692 C  
HETATM    3  C   UNL     1      -8.353  14.006  65.767  1.00  0.00     2.197 C  
HETATM    4  C   UNL     1      -9.771  11.250  63.679  1.00  0.00    -0.351 C  
HETATM    5  C   UNL     1      -9.134  14.947  64.835  1.00  0.00     2.308 C  
HETATM    6  C   UNL     1      -7.452  11.391  64.755  1.00  0.00     1.358 C  
HETATM    7  C   UNL     1     -11.979  13.523  65.402  1.00  0.00    -0.406 C  
HETATM    8  C   UNL     1     -10.126  15.491  65.799  1.00  0.00    -0.388 C  
HETATM    9  C   UNL     1      -9.319  16.224  66.992  1.00  0.00    -0.235 C  
HETATM   10  H   UNL     1     -13.219  13.695  67.303  1.00  0.00     0.000 HD 
HETATM   11  O   UNL     1     -12.823  14.182  68.017  1.00  0.00     0.616 OA 
HETATM   12  C   UNL     1     -10.833  14.131  66.249  1.00  0.00    -0.300 C  
HETATM   13  C   UNL     1      -8.241  17.210  66.509  1.00  0.00    -0.273 C  
HETATM   14  C   UNL     1     -11.678  14.863  67.487  1.00  0.00    -0.308 C  
HETATM   15  C   UNL     1      -7.269  17.390  67.640  1.00  0.00    -0.176 C  
HETATM   16  O   UNL     1      -7.388  16.799  65.450  1.00  0.00     0.852 OA 
HETATM   17  C   UNL     1     -11.031  15.658  68.655  1.00  0.00    -0.294 C  
HETATM   18  C   UNL     1      -7.893  18.161  68.775  1.00  0.00    -0.268 C  
HETATM   19  C   UNL     1     -10.093  16.792  68.199  1.00  0.00    -0.282 C  
HETATM   20  H   UNL     1      -6.723  17.408  65.152  1.00  0.00     0.000 HD 
HETATM   21  C   UNL     1      -9.984  18.474  70.156  1.00  0.00     1.252 C  
HETATM   22  C   UNL     1      -6.723  18.558  69.694  1.00  0.00    -0.062 C  
HETATM   23  C   UNL     1      -9.123  17.423  69.399  1.00  0.00     0.348 C  
HETATM   24  C   UNL     1      -6.331  17.625  70.825  1.00  0.00     1.254 C  
HETATM   25  C   UNL     1      -8.602  16.399  70.470  1.00  0.00     2.884 C  
HETATM   26  H   UNL     1      -5.047  16.139  71.151  1.00  0.00     0.000 HD 
HETATM   27  O   UNL     1      -5.293  16.723  70.443  1.00  0.00    -0.195 OA 
HETATM   28  C   UNL     1      -7.505  16.896  71.451  1.00  0.00     6.614 C  
ENDROOT
BRANCH   6  29
HETATM   29  C   UNL     1      -7.121  10.425  65.879  1.00  0.00    -0.135 C  
BRANCH  29  30
HETATM   30  C   UNL     1      -8.160  10.400  66.963  1.00  0.00    -0.116 C  
HETATM   31  O   UNL     1      -9.223   9.807  66.823  1.00  0.00    -0.144 OA 
HETATM   32  N   UNL     1      -7.833  11.120  68.098  1.00  0.00    -0.112 N  
HETATM   33  H   UNL     1      -6.914  11.556  68.169  1.00  0.00     0.000 HD 
BRANCH  32  34
HETATM   34  C   UNL     1      -8.773  11.263  69.186  1.00  0.00     0.135 C  
BRANCH  34  35
HETATM   35  C   UNL     1      -9.316   9.907  69.639  1.00  0.00    -0.228 C  
HETATM   36  S   UNL     1     -11.089   9.950  69.705  1.00  0.00    -0.245 S  
HETATM   37  O   UNL     1     -11.334   8.464  70.290  1.00  0.00    -0.234 OA 
HETATM   38  O   UNL     1     -11.645  10.003  68.375  1.00  0.00    -0.068 OA 
HETATM   39  O   UNL     1     -11.501  10.859  70.753  1.00  0.00    -0.268 OA 
ENDBRANCH  34  35
ENDBRANCH  32  34
ENDBRANCH  29  30
ENDBRANCH   6  29
TORSDOF 4
ENDMDL
MODEL      174
REMARK 921   NORMALIZED FREE ENERGY PREDICTED BY IDOCK:   16.15 KCAL/MOL
REMARK 922        TOTAL FREE ENERGY PREDICTED BY IDOCK:   19.10 KCAL/MOL
REMARK 923 INTER-LIGAND FREE ENERGY PREDICTED BY IDOCK:   17.57 KCAL/MOL
REMARK 924 INTRA-LIGAND FREE ENERGY PREDICTED BY IDOCK:    1.53 KCAL/MOL
REMARK 927      BINDING AFFINITY PREDICTED BY RF-SCORE:    0.00 PKD
ROOT
HETATM    1  C   UNL     1     -10.506   7.016  69.661  1.00  0.00    -0.238 C  
HETATM    2  C   UNL     1     -11.177   5.515  69.103  1.00  0.00     0.440 C  
HETATM    3  C   UNL     1     -10.512   7.554  68.232  1.00  0.00    -0.223 C  
HETATM    4  C   UNL     1     -12.157   4.612  69.843  1.00  0.00     8.825 C  
HETATM    5  C   UNL     1     -11.915   8.184  68.236  1.00  0.00     3.009 C  
HETATM    6  C   UNL     1     -10.244   4.622  68.142  1.00  0.00    -0.003 C  
HETATM    7  C   UNL     1     -12.311   7.850  71.425  1.00  0.00    -0.334 C  
HETATM    8  C   UNL     1     -11.690   9.298  69.193  1.00  0.00     0.701 C  
HETATM    9  C   UNL     1     -10.518  10.241  68.603  1.00  0.00    -0.215 C  
HETATM   10  H   UNL     1     -11.296   9.083  73.047  1.00  0.00     0.000 HD 
HETATM   11  O   UNL     1     -10.648   9.711  72.750  1.00  0.00     1.993 OA 
HETATM   12  C   UNL     1     -11.246   8.458  70.477  1.00  0.00    -0.252 C  
HETATM   13  C   UNL     1     -10.720  10.649  67.132  1.00  0.00    -0.272 C  
HETATM   14  C   UNL     1     -10.774   9.815  71.326  1.00  0.00    -0.134 C  
HETATM   15  C   UNL     1      -9.374  11.041  66.594  1.00  0.00    -0.196 C  
HETATM   16  O   UNL     1     -11.125   9.647  66.212  1.00  0.00     0.344 OA 
HETATM   17  C   UNL     1      -9.713  10.841  70.840  1.00  0.00     2.978 C  
HETATM   18  C   UNL     1      -8.901  12.336  67.203  1.00  0.00    -0.194 C  
HETATM   19  C   UNL     1      -9.995  11.424  69.442  1.00  0.00     0.207 C  
HETATM   20  H   UNL     1     -11.250   9.899  65.305  1.00  0.00     0.000 HD 
HETATM   21  C   UNL     1      -8.749  13.683  69.334  1.00  0.00     0.872 C  
HETATM   22  C   UNL     1      -7.707  12.784  66.340  1.00  0.00     0.931 C  
HETATM   23  C   UNL     1      -8.716  12.241  68.753  1.00  0.00     0.134 C  
HETATM   24  C   UNL     1      -6.311  12.337  66.734  1.00  0.00     0.247 C  
HETATM   25  C   UNL     1      -7.289  11.658  69.052  1.00  0.00    -0.074 C  
HETATM   26  H   UNL     1      -5.047  10.858  66.312  1.00  0.00     0.000 HD 
HETATM   27  O   UNL     1      -5.921  11.138  66.066  1.00  0.00    -0.135 OA 
HETATM   28  C   UNL     1      -6.101  12.237  68.234  1.00  0.00    -0.054 C  
ENDROOT
BRANCH   6  29
HETATM   29  C   UNL     1      -8.872   4.159  68.599  1.00  0.00    -0.141 C  
BRANCH  29  30
HETATM   30  C   UNL     1      -8.745   4.070  70.093  1.00  0.00    -0.071 C  
HETATM   31  O   UNL     1      -7.844   4.640  70.698  1.00  0.00    -0.060 OA 
HETATM   32  N   UNL     1      -9.695   3.277  70.711  1.00  0.00    -0.158 N  
HETATM   33  H   UNL     1     -10.444   2.865  70.154  1.00  0.00     0.000 HD 
BRANCH  32  34
HETATM   34  C   UNL     1      -9.645   3.024  72.132  1.00  0.00    -0.140 C  
BRANCH  34  35
HETATM   35  C   UNL     1      -8.524   3.818  72.803  1.00  0.00    -0.094 C  
HETATM   36  S   UNL     1      -7.283   2.715  73.430  1.00  0.00    -0.041 S  
HETATM   37  O   UNL     1      -6.333   3.813  74.138  1.00  0.00    -0.029 OA 
HETATM   38  O   UNL     1      -6.543   2.116  72.346  1.00  0.00    -0.014 OA 
HETATM   39  O   UNL     1      -7.849   1.930  74.507  1.00  0.00    -0.039 OA 
ENDBRANCH  34  35
ENDBRANCH  32  34
ENDBRANCH  29  30
ENDBRANCH   6  29
TORSDOF 4
ENDMDL
MODEL      175
REMARK 921   NORMALIZED FREE ENERGY PREDICTED BY IDOCK:   17.52 KCAL/MOL
REMARK 922        TOTAL FREE ENERGY PREDICTED BY IDOCK:   20.80 KCAL/MOL
REMARK 923 INTER-LIGAND FREE ENERGY PREDICTED BY IDOCK:   20.42 KCAL/MOL
REMARK 924 INTRA-LIGAND FREE ENERGY PREDICTED BY IDOCK:    0.38 KCAL/MOL
REMARK 927      BINDING AFFINITY PREDICTED BY RF-SCORE:    0.00 PKD
ROOT
HETATM    1  C   UNL     1     -10.370  14.424  66.827  1.00  0.00    -0.273 C  
HETATM    2  C   UNL     1     -10.963  13.995  65.252  1.00  0.00    -0.335 C  
HETATM    3  C   UNL     1     -11.697  13.995  67.447  1.00  0.00    -0.421 C  
HETATM    4  C   UNL     1     -10.161  13.418  64.091  1.00  0.00     0.217 C  
HETATM    5  C   UNL     1     -11.351  12.523  67.723  1.00  0.00    -0.351 C  
HETATM    6  C   UNL     1     -12.184  14.872  64.678  1.00  0.00    -0.351 C  
HETATM    7  C   UNL     1      -8.207  12.902  67.079  1.00  0.00    -0.086 C  
HETATM    8  C   UNL     1     -10.329  12.698  68.788  1.00  0.00    -0.132 C  
HETATM    9  C   UNL     1     -11.018  13.481  70.022  1.00  0.00     0.394 C  
HETATM   10  H   UNL     1      -6.675  13.945  68.401  1.00  0.00     0.000 HD 
HETATM   11  O   UNL     1      -7.015  14.362  69.184  1.00  0.00    -0.112 OA 
HETATM   12  C   UNL     1      -9.262  13.579  67.989  1.00  0.00    -0.209 C  
HETATM   13  C   UNL     1     -12.363  12.885  70.474  1.00  0.00    -0.283 C  
HETATM   14  C   UNL     1      -8.366  13.913  69.356  1.00  0.00     0.604 C  
HETATM   15  C   UNL     1     -13.099  13.966  71.212  1.00  0.00    -0.385 C  
HETATM   16  O   UNL     1     -13.301  12.522  69.471  1.00  0.00     1.782 OA 
HETATM   17  C   UNL     1      -8.921  14.595  70.637  1.00  0.00     2.199 C  
HETATM   18  C   UNL     1     -12.444  14.262  72.536  1.00  0.00    -0.242 C  
HETATM   19  C   UNL     1     -10.160  13.899  71.234  1.00  0.00     5.025 C  
HETATM   20  H   UNL     1     -14.131  12.153  69.749  1.00  0.00     0.000 HD 
HETATM   21  C   UNL     1     -10.237  14.568  73.727  1.00  0.00     6.063 C  
HETATM   22  C   UNL     1     -13.460  15.117  73.316  1.00  0.00    -0.354 C  
HETATM   23  C   UNL     1     -10.980  14.791  72.379  1.00  0.00     1.074 C  
HETATM   24  C   UNL     1     -13.397  16.627  73.188  1.00  0.00     0.671 C  
HETATM   25  C   UNL     1     -11.032  16.341  72.133  1.00  0.00     1.024 C  
HETATM   26  H   UNL     1     -14.225  18.064  72.087  1.00  0.00     0.000 HD 
HETATM   27  O   UNL     1     -14.265  17.118  72.167  1.00  0.00     4.362 OA 
HETATM   28  C   UNL     1     -11.988  17.170  73.035  1.00  0.00     0.513 C  
ENDROOT
BRANCH   6  29
HETATM   29  C   UNL     1     -12.057  16.378  64.524  1.00  0.00     0.803 C  
BRANCH  29  30
HETATM   30  C   UNL     1     -10.903  16.956  65.292  1.00  0.00    -0.104 C  
HETATM   31  O   UNL     1      -9.756  16.913  64.862  1.00  0.00     0.522 OA 
HETATM   32  N   UNL     1     -11.235  17.500  66.519  1.00  0.00     0.507 N  
HETATM   33  H   UNL     1     -12.215  17.543  66.801  1.00  0.00     0.000 HD 
BRANCH  32  34
HETATM   34  C   UNL     1     -10.218  18.010  67.409  1.00  0.00    -0.363 C  
BRANCH  34  35
HETATM   35  C   UNL     1      -9.427  19.147  66.762  1.00  0.00    -0.330 C  
HETATM   36  S   UNL     1      -7.688  18.907  67.021  1.00  0.00    -0.235 S  
HETATM   37  O   UNL     1      -7.161  20.272  66.335  1.00  0.00    -0.261 OA 
HETATM   38  O   UNL     1      -7.206  17.797  66.235  1.00  0.00    -0.243 OA 
HETATM   39  O   UNL     1      -7.398  19.039  68.433  1.00  0.00    -0.271 OA 
ENDBRANCH  34  35
ENDBRANCH  32  34
ENDBRANCH  29  30
ENDBRANCH   6  29
TORSDOF 4
ENDMDL
MODEL      176
REMARK 921   NORMALIZED FREE ENERGY PREDICTED BY IDOCK:   17.72 KCAL/MOL
REMARK 922        TOTAL FREE ENERGY PREDICTED BY IDOCK:   21.03 KCAL/MOL
REMARK 923 INTER-LIGAND FREE ENERGY PREDICTED BY IDOCK:   20.15 KCAL/MOL
REMARK 924 INTRA-LIGAND FREE ENERGY PREDICTED BY IDOCK:    0.88 KCAL/MOL
REMARK 927      BINDING AFFINITY PREDICTED BY RF-SCORE:    0.00 PKD
ROOT
HETATM    1  C   UNL     1      -8.264  14.395  67.876  1.00  0.00    -0.157 C  
HETATM    2  C   UNL     1      -7.964  12.698  68.093  1.00  0.00    -0.158 C  
HETATM    3  C   UNL     1      -7.356  14.710  69.062  1.00  0.00    -0.134 C  
HETATM    4  C   UNL     1      -7.869  11.633  67.007  1.00  0.00    -0.164 C  
HETATM    5  C   UNL     1      -6.029  14.850  68.298  1.00  0.00    -0.125 C  
HETATM    6  C   UNL     1      -8.526  12.035  69.448  1.00  0.00     0.930 C  
HETATM    7  C   UNL     1      -7.435  14.827  65.388  1.00  0.00     7.801 C  
HETATM    8  C   UNL     1      -6.308  16.093  67.531  1.00  0.00    -0.195 C  
HETATM    9  C   UNL     1      -6.618  17.277  68.586  1.00  0.00    -0.186 C  
HETATM   10  H   UNL     1      -8.634  16.522  64.456  1.00  0.00     0.000 HD 
HETATM   11  O   UNL     1      -8.785  17.280  65.008  1.00  0.00     1.482 OA 
HETATM   12  C   UNL     1      -7.594  15.616  66.713  1.00  0.00    -0.125 C  
HETATM   13  C   UNL     1      -5.578  17.402  69.714  1.00  0.00    -0.219 C  
HETATM   14  C   UNL     1      -7.931  17.151  66.153  1.00  0.00    -0.262 C  
HETATM   15  C   UNL     1      -6.241  18.132  70.847  1.00  0.00     0.995 C  
HETATM   16  O   UNL     1      -5.136  16.211  70.349  1.00  0.00    -0.149 OA 
HETATM   17  C   UNL     1      -8.177  18.391  67.057  1.00  0.00    -0.253 C  
HETATM   18  C   UNL     1      -6.478  19.579  70.496  1.00  0.00     0.022 C  
HETATM   19  C   UNL     1      -7.050  18.664  68.071  1.00  0.00    -0.251 C  
HETATM   20  H   UNL     1      -4.494  16.289  71.045  1.00  0.00     0.000 HD 
HETATM   21  C   UNL     1      -7.211  21.169  68.676  1.00  0.00     1.075 C  
HETATM   22  C   UNL     1      -6.838  20.270  71.824  1.00  0.00     0.636 C  
HETATM   23  C   UNL     1      -7.438  19.752  69.273  1.00  0.00    -0.206 C  
HETATM   24  C   UNL     1      -8.297  20.351  72.235  1.00  0.00     2.541 C  
HETATM   25  C   UNL     1      -8.921  19.703  69.790  1.00  0.00     0.599 C  
HETATM   26  H   UNL     1      -9.593  19.315  73.335  1.00  0.00     0.000 HD 
HETATM   27  O   UNL     1      -8.680  19.264  73.077  1.00  0.00     4.577 OA 
HETATM   28  C   UNL     1      -9.253  20.521  71.068  1.00  0.00     2.054 C  
ENDROOT
BRANCH   6  29
HETATM   29  C   UNL     1     -10.004  12.102  69.794  1.00  0.00     1.527 C  
BRANCH  29  30
HETATM   30  C   UNL     1     -10.553  10.797  70.294  1.00  0.00     0.245 C  
HETATM   31  O   UNL     1     -11.753  10.551  70.269  1.00  0.00    -0.278 OA 
HETATM   32  N   UNL     1      -9.608   9.926  70.806  1.00  0.00    -0.264 N  
HETATM   33  H   UNL     1      -8.619  10.174  70.758  1.00  0.00     0.000 HD 
BRANCH  32  34
HETATM   34  C   UNL     1      -9.998   8.671  71.406  1.00  0.00    -0.254 C  
BRANCH  34  35
HETATM   35  C   UNL     1     -11.519   8.535  71.480  1.00  0.00    -0.287 C  
HETATM   36  S   UNL     1     -12.029   6.987  70.778  1.00  0.00    -0.314 S  
HETATM   37  O   UNL     1     -13.626   7.188  70.910  1.00  0.00    -0.139 OA 
HETATM   38  O   UNL     1     -11.644   5.891  71.635  1.00  0.00    -0.241 OA 
HETATM   39  O   UNL     1     -11.747   6.995  69.359  1.00  0.00     0.031 OA 
ENDBRANCH  34  35
ENDBRANCH  32  34
ENDBRANCH  29  30
ENDBRANCH   6  29
TORSDOF 4
ENDMDL
MODEL      177
REMARK 921   NORMALIZED FREE ENERGY PREDICTED BY IDOCK:   20.47 KCAL/MOL
REMARK 922        TOTAL FREE ENERGY PREDICTED BY IDOCK:   24.43 KCAL/MOL
REMARK 923 INTER-LIGAND FREE ENERGY PREDICTED BY IDOCK:   25.21 KCAL/MOL
REMARK 924 INTRA-LIGAND FREE ENERGY PREDICTED BY IDOCK:   -0.79 KCAL/MOL
REMARK 927      BINDING AFFINITY PREDICTED BY RF-SCORE:    0.00 PKD
ROOT
HETATM    1  C   UNL     1     -10.104   6.215  66.550  1.00  0.00    -0.179 C  
HETATM    2  C   UNL     1     -10.302   4.651  67.278  1.00  0.00    -0.051 C  
HETATM    3  C   UNL     1      -8.834   6.439  67.367  1.00  0.00    -0.104 C  
HETATM    4  C   UNL     1     -10.872   3.397  66.627  1.00  0.00     3.352 C  
HETATM    5  C   UNL     1      -7.821   5.852  66.371  1.00  0.00    -0.101 C  
HETATM    6  C   UNL     1     -10.613   4.626  68.857  1.00  0.00     0.561 C  
HETATM    7  C   UNL     1      -9.961   5.646  63.958  1.00  0.00     2.071 C  
HETATM    8  C   UNL     1      -7.911   6.867  65.289  1.00  0.00    -0.118 C  
HETATM    9  C   UNL     1      -7.505   8.302  65.911  1.00  0.00    -0.081 C  
HETATM   10  H   UNL     1     -10.788   7.380  62.738  1.00  0.00     0.000 HD 
HETATM   11  O   UNL     1     -10.522   8.249  63.014  1.00  0.00     6.640 OA 
HETATM   12  C   UNL     1      -9.463   6.741  64.936  1.00  0.00     1.429 C  
HETATM   13  C   UNL     1      -6.193   8.292  66.715  1.00  0.00    -0.055 C  
HETATM   14  C   UNL     1      -9.452   8.090  63.955  1.00  0.00     2.573 C  
HETATM   15  C   UNL     1      -6.225   9.483  67.629  1.00  0.00    -0.053 C  
HETATM   16  O   UNL     1      -5.979   7.225  67.628  1.00  0.00    -0.031 OA 
HETATM   17  C   UNL     1      -9.017   9.512  64.407  1.00  0.00    -0.255 C  
HETATM   18  C   UNL     1      -6.090  10.767  66.852  1.00  0.00    -0.071 C  
HETATM   19  C   UNL     1      -7.613   9.569  65.039  1.00  0.00    -0.113 C  
HETATM   20  H   UNL     1      -5.169   7.218  68.123  1.00  0.00     0.000 HD 
HETATM   21  C   UNL     1      -6.793  12.002  64.764  1.00  0.00     4.421 C  
HETATM   22  C   UNL     1      -5.804  11.855  67.904  1.00  0.00    -0.054 C  
HETATM   23  C   UNL     1      -7.265  10.987  65.843  1.00  0.00     0.037 C  
HETATM   24  C   UNL     1      -6.972  12.601  68.522  1.00  0.00    -0.094 C  
HETATM   25  C   UNL     1      -8.464  11.654  66.609  1.00  0.00    -0.165 C  
HETATM   26  H   UNL     1      -8.139  12.468  70.130  1.00  0.00     0.000 HD 
HETATM   27  O   UNL     1      -7.408  12.001  69.742  1.00  0.00     0.335 OA 
HETATM   28  C   UNL     1      -8.128  12.830  67.566  1.00  0.00    -0.180 C  
ENDROOT
BRANCH   6  29
HETATM   29  C   UNL     1     -11.822   5.350  69.425  1.00  0.00     3.352 C  
BRANCH  29  30
HETATM   30  C   UNL     1     -11.460   6.408  70.427  1.00  0.00    -0.393 C  
HETATM   31  O   UNL     1     -11.841   6.352  71.590  1.00  0.00    -0.310 OA 
HETATM   32  N   UNL     1     -10.703   7.451  69.923  1.00  0.00    -0.240 N  
HETATM   33  H   UNL     1     -10.383   7.416  68.955  1.00  0.00     0.000 HD 
BRANCH  32  34
HETATM   34  C   UNL     1     -10.357   8.586  70.746  1.00  0.00    -0.198 C  
BRANCH  34  35
HETATM   35  C   UNL     1     -11.600   9.236  71.354  1.00  0.00    -0.367 C  
HETATM   36  S   UNL     1     -12.544  10.049  70.090  1.00  0.00     0.207 S  
HETATM   37  O   UNL     1     -13.686  10.694  71.034  1.00  0.00     0.140 OA 
HETATM   38  O   UNL     1     -13.174   9.080  69.226  1.00  0.00     3.581 OA 
HETATM   39  O   UNL     1     -11.782  11.166  69.574  1.00  0.00    -0.273 OA 
ENDBRANCH  34  35
ENDBRANCH  32  34
ENDBRANCH  29  30
ENDBRANCH   6  29
TORSDOF 4
ENDMDL
MODEL      178
REMARK 921   NORMALIZED FREE ENERGY PREDICTED BY IDOCK:   21.39 KCAL/MOL
REMARK 922        TOTAL FREE ENERGY PREDICTED BY IDOCK:   25.57 KCAL/MOL
REMARK 923 INTER-LIGAND FREE ENERGY PREDICTED BY IDOCK:   17.59 KCAL/MOL
REMARK 924 INTRA-LIGAND FREE ENERGY PREDICTED BY IDOCK:    7.97 KCAL/MOL
REMARK 927      BINDING AFFINITY PREDICTED BY RF-SCORE:    0.00 PKD
ROOT
HETATM    1  C   UNL     1      -7.403   8.562  70.043  1.00  0.00    -0.055 C  
HETATM    2  C   UNL     1      -6.773   8.811  71.643  1.00  0.00    -0.078 C  
HETATM    3  C   UNL     1      -6.927   9.955  69.635  1.00  0.00    -0.086 C  
HETATM    4  C   UNL     1      -6.155   7.765  72.562  1.00  0.00    -0.041 C  
HETATM    5  C   UNL     1      -5.523   9.575  69.138  1.00  0.00    -0.036 C  
HETATM    6  C   UNL     1      -7.486   9.951  72.527  1.00  0.00     2.818 C  
HETATM    7  C   UNL     1      -6.098   6.396  69.226  1.00  0.00    -0.026 C  
HETATM    8  C   UNL     1      -5.885   8.791  67.928  1.00  0.00    -0.042 C  
HETATM    9  C   UNL     1      -6.725   9.754  66.938  1.00  0.00    -0.075 C  
HETATM   10  H   UNL     1      -7.389   5.219  67.768  1.00  0.00     0.000 HD 
HETATM   11  O   UNL     1      -7.850   5.729  67.112  1.00  0.00    -0.100 OA 
HETATM   12  C   UNL     1      -6.770   7.649  68.608  1.00  0.00    -0.054 C  
HETATM   13  C   UNL     1      -6.066  11.121  66.680  1.00  0.00    -0.133 C  
HETATM   14  C   UNL     1      -7.310   7.056  67.145  1.00  0.00    -0.090 C  
HETATM   15  C   UNL     1      -7.148  12.052  66.217  1.00  0.00     0.650 C  
HETATM   16  O   UNL     1      -5.529  11.822  67.792  1.00  0.00    -0.047 OA 
HETATM   17  C   UNL     1      -8.065   7.891  66.074  1.00  0.00    -0.112 C  
HETATM   18  C   UNL     1      -7.626  11.685  64.835  1.00  0.00     1.825 C  
HETATM   19  C   UNL     1      -7.330   9.175  65.643  1.00  0.00    -0.086 C  
HETATM   20  H   UNL     1      -5.122  12.665  67.633  1.00  0.00     0.000 HD 
HETATM   21  C   UNL     1      -8.230   9.774  63.298  1.00  0.00    -0.155 C  
HETATM   22  C   UNL     1      -8.465  12.885  64.358  1.00  0.00     4.133 C  
HETATM   23  C   UNL     1      -8.257  10.256  64.777  1.00  0.00    -0.163 C  
HETATM   24  C   UNL     1      -9.956  12.894  64.640  1.00  0.00    -0.129 C  
HETATM   25  C   UNL     1      -9.767  10.357  65.199  1.00  0.00    -0.353 C  
HETATM   26  H   UNL     1     -11.204  13.584  66.029  1.00  0.00     0.000 HD 
HETATM   27  O   UNL     1     -10.270  13.578  65.853  1.00  0.00    -0.289 OA 
HETATM   28  C   UNL     1     -10.597  11.519  64.589  1.00  0.00    -0.369 C  
ENDROOT
BRANCH   6  29
HETATM   29  C   UNL     1      -8.975   9.893  72.822  1.00  0.00     5.533 C  
BRANCH  29  30
HETATM   30  C   UNL     1      -9.807   9.604  71.606  1.00  0.00     0.776 C  
HETATM   31  O   UNL     1      -9.427   8.834  70.732  1.00  0.00    -0.175 OA 
HETATM   32  N   UNL     1     -11.003  10.297  71.542  1.00  0.00     0.259 N  
HETATM   33  H   UNL     1     -11.280  10.892  72.323  1.00  0.00     0.000 HD 
BRANCH  32  34
HETATM   34  C   UNL     1     -11.865  10.192  70.388  1.00  0.00    -0.288 C  
BRANCH  34  35
HETATM   35  C   UNL     1     -11.061  10.160  69.089  1.00  0.00    -0.212 C  
HETATM   36  S   UNL     1     -11.817  11.211  67.875  1.00  0.00     0.088 S  
HETATM   37  O   UNL     1     -10.827  10.888  66.641  1.00  0.00    -0.252 OA 
HETATM   38  O   UNL     1     -11.649  12.599  68.232  1.00  0.00    -0.289 OA 
HETATM   39  O   UNL     1     -13.102  10.657  67.505  1.00  0.00     5.247 OA 
ENDBRANCH  34  35
ENDBRANCH  32  34
ENDBRANCH  29  30
ENDBRANCH   6  29
TORSDOF 4
ENDMDL
MODEL      179
REMARK 921   NORMALIZED FREE ENERGY PREDICTED BY IDOCK:   25.99 KCAL/MOL
REMARK 922        TOTAL FREE ENERGY PREDICTED BY IDOCK:   31.24 KCAL/MOL
REMARK 923 INTER-LIGAND FREE ENERGY PREDICTED BY IDOCK:   31.41 KCAL/MOL
REMARK 924 INTRA-LIGAND FREE ENERGY PREDICTED BY IDOCK:   -0.17 KCAL/MOL
REMARK 927      BINDING AFFINITY PREDICTED BY RF-SCORE:    0.00 PKD
ROOT
HETATM    1  C   UNL     1     -11.011  14.364  69.883  1.00  0.00    -0.103 C  
HETATM    2  C   UNL     1     -12.322  13.233  69.753  1.00  0.00    -0.189 C  
HETATM    3  C   UNL     1     -11.686  15.270  68.855  1.00  0.00    -0.362 C  
HETATM    4  C   UNL     1     -12.900  12.362  70.862  1.00  0.00    -0.176 C  
HETATM    5  C   UNL     1     -12.517  16.128  69.824  1.00  0.00     0.472 C  
HETATM    6  C   UNL     1     -12.489  12.484  68.339  1.00  0.00     0.665 C  
HETATM    7  C   UNL     1     -11.032  15.000  72.463  1.00  0.00     0.703 C  
HETATM    8  C   UNL     1     -11.424  16.868  70.508  1.00  0.00     0.667 C  
HETATM    9  C   UNL     1     -10.603  17.698  69.391  1.00  0.00     0.191 C  
HETATM   10  H   UNL     1      -8.925  15.518  73.150  1.00  0.00     0.000 HD 
HETATM   11  O   UNL     1      -8.418  16.069  72.565  1.00  0.00    10.147 OA 
HETATM   12  C   UNL     1     -10.609  15.635  71.114  1.00  0.00     0.253 C  
HETATM   13  C   UNL     1     -11.489  18.530  68.447  1.00  0.00     1.665 C  
HETATM   14  C   UNL     1      -9.320  16.588  71.578  1.00  0.00     6.472 C  
HETATM   15  C   UNL     1     -10.686  18.794  67.206  1.00  0.00    -0.490 C  
HETATM   16  O   UNL     1     -12.656  17.919  67.918  1.00  0.00     2.956 OA 
HETATM   17  C   UNL     1      -8.491  17.488  70.621  1.00  0.00     4.957 C  
HETATM   18  C   UNL     1      -9.558  19.755  67.483  1.00  0.00    -0.470 C  
HETATM   19  C   UNL     1      -9.338  18.480  69.800  1.00  0.00     0.861 C  
HETATM   20  H   UNL     1     -13.204  18.432  67.336  1.00  0.00     0.000 HD 
HETATM   21  C   UNL     1      -7.751  20.401  69.124  1.00  0.00     0.484 C  
HETATM   22  C   UNL     1      -9.041  20.191  66.100  1.00  0.00    -0.308 C  
HETATM   23  C   UNL     1      -8.536  19.199  68.528  1.00  0.00    -0.399 C  
HETATM   24  C   UNL     1      -7.921  19.396  65.453  1.00  0.00     0.557 C  
HETATM   25  C   UNL     1      -7.493  18.297  67.776  1.00  0.00    -0.224 C  
HETATM   26  H   UNL     1      -7.714  17.881  64.178  1.00  0.00     0.000 HD 
HETATM   27  O   UNL     1      -8.415  18.379  64.583  1.00  0.00     3.308 OA 
HETATM   28  C   UNL     1      -6.911  18.844  66.444  1.00  0.00    -0.244 C  
ENDROOT
BRANCH   6  29
HETATM   29  C   UNL     1     -11.354  11.661  67.753  1.00  0.00    -0.356 C  
BRANCH  29  30
HETATM   30  C   UNL     1     -11.432  10.205  68.115  1.00  0.00     0.041 C  
HETATM   31  O   UNL     1     -11.481   9.330  67.259  1.00  0.00     0.604 OA 
HETATM   32  N   UNL     1     -11.477   9.946  69.473  1.00  0.00    -0.435 N  
HETATM   33  H   UNL     1     -11.389  10.717  70.135  1.00  0.00     0.000 HD 
BRANCH  32  34
HETATM   34  C   UNL     1     -11.644   8.599  69.970  1.00  0.00     0.172 C  
BRANCH  34  35
HETATM   35  C   UNL     1     -10.323   8.020  70.474  1.00  0.00    -0.202 C  
HETATM   36  S   UNL     1     -10.346   7.893  72.244  1.00  0.00    -0.278 S  
HETATM   37  O   UNL     1      -8.834   7.367  72.459  1.00  0.00    -0.123 OA 
HETATM   38  O   UNL     1     -11.247   6.847  72.665  1.00  0.00    -0.261 OA 
HETATM   39  O   UNL     1     -10.385   9.223  72.813  1.00  0.00     0.852 OA 
ENDBRANCH  34  35
ENDBRANCH  32  34
ENDBRANCH  29  30
ENDBRANCH   6  29
TORSDOF 4
ENDMDL
MODEL      180
REMARK 921   NORMALIZED FREE ENERGY PREDICTED BY IDOCK:   26.73 KCAL/MOL
REMARK 922        TOTAL FREE ENERGY PREDICTED BY IDOCK:   32.16 KCAL/MOL
REMARK 923 INTER-LIGAND FREE ENERGY PREDICTED BY IDOCK:   17.15 KCAL/MOL
REMARK 924 INTRA-LIGAND FREE ENERGY PREDICTED BY IDOCK:   15.01 KCAL/MOL
REMARK 927      BINDING AFFINITY PREDICTED BY RF-SCORE:    0.00 PKD
ROOT
HETATM    1  C   UNL     1      -9.911  14.772  66.662  1.00  0.00    -0.272 C  
HETATM    2  C   UNL     1     -10.737  16.109  65.922  1.00  0.00    -0.261 C  
HETATM    3  C   UNL     1     -11.132  13.884  66.429  1.00  0.00    -0.309 C  
HETATM    4  C   UNL     1     -10.122  17.218  65.077  1.00  0.00     1.071 C  
HETATM    5  C   UNL     1     -10.754  13.345  65.040  1.00  0.00    -0.354 C  
HETATM    6  C   UNL     1     -12.027  16.677  66.699  1.00  0.00     2.031 C  
HETATM    7  C   UNL     1      -7.741  14.509  65.151  1.00  0.00     8.690 C  
HETATM    8  C   UNL     1      -9.582  12.505  65.404  1.00  0.00    -0.015 C  
HETATM    9  C   UNL     1     -10.073  11.388  66.462  1.00  0.00    -0.250 C  
HETATM   10  H   UNL     1      -6.023  13.688  66.399  1.00  0.00     0.000 HD 
HETATM   11  O   UNL     1      -6.239  12.975  66.988  1.00  0.00    -0.220 OA 
HETATM   12  C   UNL     1      -8.644  13.626  66.050  1.00  0.00     0.964 C  
HETATM   13  C   UNL     1     -11.338  10.624  66.030  1.00  0.00     0.628 C  
HETATM   14  C   UNL     1      -7.551  12.513  66.639  1.00  0.00     0.377 C  
HETATM   15  C   UNL     1     -11.949  10.043  67.272  1.00  0.00     2.833 C  
HETATM   16  O   UNL     1     -12.417  11.373  65.493  1.00  0.00     0.739 OA 
HETATM   17  C   UNL     1      -7.903  11.347  67.604  1.00  0.00    -0.122 C  
HETATM   18  C   UNL     1     -11.100   8.927  67.825  1.00  0.00     0.235 C  
HETATM   19  C   UNL     1      -9.041  10.437  67.102  1.00  0.00    -0.152 C  
HETATM   20  H   UNL     1     -13.198  10.902  65.225  1.00  0.00     0.000 HD 
HETATM   21  C   UNL     1      -8.738   8.170  68.300  1.00  0.00    -0.133 C  
HETATM   22  C   UNL     1     -11.983   8.216  68.867  1.00  0.00     2.218 C  
HETATM   23  C   UNL     1      -9.675   9.410  68.252  1.00  0.00    -0.162 C  
HETATM   24  C   UNL     1     -11.933   8.682  70.310  1.00  0.00     0.277 C  
HETATM   25  C   UNL     1      -9.756   9.982  69.712  1.00  0.00    -0.259 C  
HETATM   26  H   UNL     1     -12.913   9.940  71.502  1.00  0.00     0.000 HD 
HETATM   27  O   UNL     1     -12.943   9.648  70.598  1.00  0.00    -0.142 OA 
HETATM   28  C   UNL     1     -10.561   9.156  70.753  1.00  0.00    -0.324 C  
ENDROOT
BRANCH   6  29
HETATM   29  C   UNL     1     -11.918  17.177  68.130  1.00  0.00     1.441 C  
BRANCH  29  30
HETATM   30  C   UNL     1     -10.643  17.923  68.400  1.00  0.00    -0.265 C  
HETATM   31  O   UNL     1     -10.512  19.105  68.105  1.00  0.00    -0.390 OA 
HETATM   32  N   UNL     1      -9.636  17.165  68.970  1.00  0.00    -0.231 N  
HETATM   33  H   UNL     1      -9.823  16.196  69.231  1.00  0.00     0.000 HD 
BRANCH  32  34
HETATM   34  C   UNL     1      -8.324  17.722  69.203  1.00  0.00     0.116 C  
BRANCH  34  35
HETATM   35  C   UNL     1      -7.343  17.325  68.100  1.00  0.00    -0.199 C  
HETATM   36  S   UNL     1      -7.486  15.591  67.751  1.00  0.00    -0.167 S  
HETATM   37  O   UNL     1      -6.297  15.475  66.663  1.00  0.00     0.060 OA 
HETATM   38  O   UNL     1      -8.733  15.311  67.080  1.00  0.00    -0.200 OA 
HETATM   39  O   UNL     1      -7.041  14.837  68.903  1.00  0.00    -0.104 OA 
ENDBRANCH  34  35
ENDBRANCH  32  34
ENDBRANCH  29  30
ENDBRANCH   6  29
TORSDOF 4
ENDMDL
MODEL      181
REMARK 921   NORMALIZED FREE ENERGY PREDICTED BY IDOCK:   44.12 KCAL/MOL
REMARK 922        TOTAL FREE ENERGY PREDICTED BY IDOCK:   53.61 KCAL/MOL
REMARK 923 INTER-LIGAND FREE ENERGY PREDICTED BY IDOCK:   54.94 KCAL/MOL
REMARK 924 INTRA-LIGAND FREE ENERGY PREDICTED BY IDOCK:   -1.33 KCAL/MOL
REMARK 927      BINDING AFFINITY PREDICTED BY RF-SCORE:    0.00 PKD
ROOT
HETATM    1  C   UNL     1     -10.563   6.006  66.510  1.00  0.00    -0.238 C  
HETATM    2  C   UNL     1     -11.541   4.666  67.026  1.00  0.00     4.419 C  
HETATM    3  C   UNL     1      -9.801   5.963  67.833  1.00  0.00    -0.139 C  
HETATM    4  C   UNL     1     -12.110   3.552  66.156  1.00  0.00    10.055 C  
HETATM    5  C   UNL     1      -8.684   4.992  67.418  1.00  0.00    -0.103 C  
HETATM    6  C   UNL     1     -12.524   4.931  68.272  1.00  0.00    12.826 C  
HETATM    7  C   UNL     1      -9.444   5.095  64.278  1.00  0.00     0.389 C  
HETATM    8  C   UNL     1      -7.955   5.846  66.443  1.00  0.00    -0.102 C  
HETATM    9  C   UNL     1      -7.455   7.175  67.214  1.00  0.00    -0.099 C  
HETATM   10  H   UNL     1      -9.047   6.822  62.850  1.00  0.00     0.000 HD 
HETATM   11  O   UNL     1      -8.681   7.609  63.238  1.00  0.00     0.300 OA 
HETATM   12  C   UNL     1      -9.133   6.120  65.399  1.00  0.00     0.122 C  
HETATM   13  C   UNL     1      -6.725   6.896  68.540  1.00  0.00    -0.064 C  
HETATM   14  C   UNL     1      -8.262   7.275  64.568  1.00  0.00    -0.010 C  
HETATM   15  C   UNL     1      -6.798   8.154  69.357  1.00  0.00    -0.043 C  
HETATM   16  O   UNL     1      -7.289   5.938  69.422  1.00  0.00    -0.071 OA 
HETATM   17  C   UNL     1      -7.664   8.561  65.202  1.00  0.00    -0.102 C  
HETATM   18  C   UNL     1      -5.937   9.239  68.763  1.00  0.00    -0.044 C  
HETATM   19  C   UNL     1      -6.759   8.300  66.421  1.00  0.00    -0.062 C  
HETATM   20  H   UNL     1      -6.838   5.765  70.241  1.00  0.00     0.000 HD 
HETATM   21  C   UNL     1      -5.197  10.347  66.617  1.00  0.00    -0.043 C  
HETATM   22  C   UNL     1      -5.838  10.326  69.849  1.00  0.00    -0.051 C  
HETATM   23  C   UNL     1      -6.394   9.652  67.326  1.00  0.00    -0.068 C  
HETATM   24  C   UNL     1      -6.864  11.443  69.863  1.00  0.00     0.043 C  
HETATM   25  C   UNL     1      -7.538  10.721  67.452  1.00  0.00    -0.099 C  
HETATM   26  H   UNL     1      -8.610  11.851  70.729  1.00  0.00     0.000 HD 
HETATM   27  O   UNL     1      -7.967  11.151  70.721  1.00  0.00     2.110 OA 
HETATM   28  C   UNL     1      -7.327  11.866  68.480  1.00  0.00    -0.111 C  
ENDROOT
BRANCH   6  29
HETATM   29  C   UNL     1     -13.569   6.033  68.220  1.00  0.00    17.383 C  
BRANCH  29  30
HETATM   30  C   UNL     1     -13.358   7.096  69.259  1.00  0.00     6.732 C  
HETATM   31  O   UNL     1     -14.263   7.462  70.001  1.00  0.00     2.136 OA 
HETATM   32  N   UNL     1     -12.087   7.641  69.284  1.00  0.00     0.819 N  
HETATM   33  H   UNL     1     -11.367   7.263  68.669  1.00  0.00     0.000 HD 
BRANCH  32  34
HETATM   34  C   UNL     1     -11.762   8.737  70.168  1.00  0.00     0.165 C  
BRANCH  34  35
HETATM   35  C   UNL     1     -10.351   8.596  70.739  1.00  0.00    -0.204 C  
HETATM   36  S   UNL     1     -10.303   7.280  71.929  1.00  0.00    -0.188 S  
HETATM   37  O   UNL     1      -8.767   7.450  72.400  1.00  0.00    -0.117 OA 
HETATM   38  O   UNL     1     -10.429   6.000  71.274  1.00  0.00    -0.214 OA 
HETATM   39  O   UNL     1     -11.108   7.646  73.074  1.00  0.00    -0.387 OA 
ENDBRANCH  34  35
ENDBRANCH  32  34
ENDBRANCH  29  30
ENDBRANCH   6  29
TORSDOF 4
ENDMDL
MODEL      182
REMARK 921   NORMALIZED FREE ENERGY PREDICTED BY IDOCK:   44.26 KCAL/MOL
REMARK 922        TOTAL FREE ENERGY PREDICTED BY IDOCK:   53.78 KCAL/MOL
REMARK 923 INTER-LIGAND FREE ENERGY PREDICTED BY IDOCK:   52.48 KCAL/MOL
REMARK 924 INTRA-LIGAND FREE ENERGY PREDICTED BY IDOCK:    1.30 KCAL/MOL
REMARK 927      BINDING AFFINITY PREDICTED BY RF-SCORE:    0.00 PKD
ROOT
HETATM    1  C   UNL     1      -9.017  12.850  70.445  1.00  0.00     5.677 C  
HETATM    2  C   UNL     1      -9.536  11.634  71.571  1.00  0.00    12.035 C  
HETATM    3  C   UNL     1     -10.461  13.054  69.994  1.00  0.00     1.495 C  
HETATM    4  C   UNL     1      -8.942  11.333  72.941  1.00  0.00    19.305 C  
HETATM    5  C   UNL     1     -10.856  14.153  70.995  1.00  0.00     1.418 C  
HETATM    6  C   UNL     1     -10.144  10.283  70.941  1.00  0.00     0.802 C  
HETATM    7  C   UNL     1      -7.827  14.636  72.013  1.00  0.00     4.909 C  
HETATM    8  C   UNL     1     -10.009  15.268  70.494  1.00  0.00     0.358 C  
HETATM    9  C   UNL     1     -10.419  15.561  68.959  1.00  0.00    -0.231 C  
HETATM   10  H   UNL     1      -6.171  15.693  70.864  1.00  0.00     0.000 HD 
HETATM   11  O   UNL     1      -6.381  15.957  69.976  1.00  0.00    -0.169 OA 
HETATM   12  C   UNL     1      -8.568  14.596  70.652  1.00  0.00     2.199 C  
HETATM   13  C   UNL     1     -11.934  15.713  68.730  1.00  0.00    -0.229 C  
HETATM   14  C   UNL     1      -7.798  15.815  69.812  1.00  0.00     0.098 C  
HETATM   15  C   UNL     1     -12.188  15.453  67.273  1.00  0.00     0.699 C  
HETATM   16  O   UNL     1     -12.799  14.775  69.352  1.00  0.00    -0.497 OA 
HETATM   17  C   UNL     1      -8.142  16.246  68.360  1.00  0.00    -0.183 C  
HETATM   18  C   UNL     1     -11.642  16.568  66.418  1.00  0.00     1.056 C  
HETATM   19  C   UNL     1      -9.626  16.602  68.143  1.00  0.00    -0.228 C  
HETATM   20  H   UNL     1     -13.734  14.869  69.212  1.00  0.00     0.000 HD 
HETATM   21  C   UNL     1      -9.706  18.154  66.081  1.00  0.00    -0.217 C  
HETATM   22  C   UNL     1     -12.252  16.351  65.021  1.00  0.00     1.652 C  
HETATM   23  C   UNL     1     -10.091  16.721  66.547  1.00  0.00    -0.322 C  
HETATM   24  C   UNL     1     -11.497  15.500  64.017  1.00  0.00     0.148 C  
HETATM   25  C   UNL     1      -9.405  15.716  65.555  1.00  0.00    -0.072 C  
HETATM   26  H   UNL     1     -11.440  13.601  63.420  1.00  0.00     0.000 HD 
HETATM   27  O   UNL     1     -11.912  14.134  64.049  1.00  0.00    -0.416 OA 
HETATM   28  C   UNL     1      -9.988  15.629  64.118  1.00  0.00     3.284 C  
ENDROOT
BRANCH   6  29
HETATM   29  C   UNL     1      -9.332   9.438  69.975  1.00  0.00    -0.253 C  
BRANCH  29  30
HETATM   30  C   UNL     1      -8.408  10.249  69.113  1.00  0.00    -0.154 C  
HETATM   31  O   UNL     1      -8.744  10.646  68.003  1.00  0.00    -0.122 OA 
HETATM   32  N   UNL     1      -7.156  10.477  69.656  1.00  0.00    -0.127 N  
HETATM   33  H   UNL     1      -6.954  10.156  70.603  1.00  0.00     0.000 HD 
BRANCH  32  34
HETATM   34  C   UNL     1      -6.131  11.163  68.904  1.00  0.00    -0.045 C  
BRANCH  34  35
HETATM   35  C   UNL     1      -5.798  10.424  67.608  1.00  0.00    -0.044 C  
HETATM   36  S   UNL     1      -6.170  11.448  66.207  1.00  0.00     0.096 S  
HETATM   37  O   UNL     1      -5.819  10.384  65.043  1.00  0.00    -0.118 OA 
HETATM   38  O   UNL     1      -5.230  12.539  66.113  1.00  0.00     0.596 OA 
HETATM   39  O   UNL     1      -7.601  11.651  66.136  1.00  0.00     0.083 OA 
ENDBRANCH  34  35
ENDBRANCH  32  34
ENDBRANCH  29  30
ENDBRANCH   6  29
TORSDOF 4
ENDMDL
MODEL      183
REMARK 921   NORMALIZED FREE ENERGY PREDICTED BY IDOCK:   44.26 KCAL/MOL
REMARK 922        TOTAL FREE ENERGY PREDICTED BY IDOCK:   53.79 KCAL/MOL
REMARK 923 INTER-LIGAND FREE ENERGY PREDICTED BY IDOCK:   38.71 KCAL/MOL
REMARK 924 INTRA-LIGAND FREE ENERGY PREDICTED BY IDOCK:   15.07 KCAL/MOL
REMARK 927      BINDING AFFINITY PREDICTED BY RF-SCORE:    0.00 PKD
ROOT
HETATM    1  C   UNL     1     -10.098  10.302  65.158  1.00  0.00    -0.355 C  
HETATM    2  C   UNL     1     -11.444   9.446  64.471  1.00  0.00     8.210 C  
HETATM    3  C   UNL     1     -10.968  10.732  66.337  1.00  0.00    -0.108 C  
HETATM    4  C   UNL     1     -11.401   8.150  63.671  1.00  0.00    17.744 C  
HETATM    5  C   UNL     1     -10.685   9.543  67.270  1.00  0.00    -0.269 C  
HETATM    6  C   UNL     1     -12.689  10.340  63.979  1.00  0.00     7.329 C  
HETATM    7  C   UNL     1      -8.274   8.392  65.453  1.00  0.00    -0.144 C  
HETATM    8  C   UNL     1      -9.254   9.799  67.580  1.00  0.00    -0.145 C  
HETATM    9  C   UNL     1      -9.142  11.255  68.273  1.00  0.00    -0.173 C  
HETATM   10  H   UNL     1      -6.186   9.279  65.263  1.00  0.00     0.000 HD 
HETATM   11  O   UNL     1      -6.040  10.102  65.714  1.00  0.00    -0.080 OA 
HETATM   12  C   UNL     1      -8.650   9.748  66.102  1.00  0.00    -0.138 C  
HETATM   13  C   UNL     1     -10.131  11.478  69.431  1.00  0.00     0.258 C  
HETATM   14  C   UNL     1      -7.158  10.318  66.585  1.00  0.00    -0.108 C  
HETATM   15  C   UNL     1     -10.278  12.963  69.605  1.00  0.00     1.039 C  
HETATM   16  O   UNL     1     -11.478  11.068  69.246  1.00  0.00    -0.246 OA 
HETATM   17  C   UNL     1      -6.919  11.664  67.322  1.00  0.00    -0.131 C  
HETATM   18  C   UNL     1      -9.018  13.571  70.165  1.00  0.00     3.296 C  
HETATM   19  C   UNL     1      -7.753  11.835  68.607  1.00  0.00    -0.126 C  
HETATM   20  H   UNL     1     -12.088  11.206  69.961  1.00  0.00     0.000 HD 
HETATM   21  C   UNL     1      -6.494  13.554  70.066  1.00  0.00     0.025 C  
HETATM   22  C   UNL     1      -9.408  14.995  70.602  1.00  0.00     1.391 C  
HETATM   23  C   UNL     1      -7.787  13.385  69.218  1.00  0.00     0.445 C  
HETATM   24  C   UNL     1      -9.261  16.132  69.607  1.00  0.00     0.077 C  
HETATM   25  C   UNL     1      -7.794  14.542  68.156  1.00  0.00    -0.135 C  
HETATM   26  H   UNL     1     -10.377  17.088  68.264  1.00  0.00     0.000 HD 
HETATM   27  O   UNL     1     -10.469  16.376  68.886  1.00  0.00    -0.246 OA 
HETATM   28  C   UNL     1      -8.073  15.979  68.674  1.00  0.00    -0.187 C  
ENDROOT
BRANCH   6  29
HETATM   29  C   UNL     1     -12.501  11.437  62.945  1.00  0.00     0.679 C  
BRANCH  29  30
HETATM   30  C   UNL     1     -11.466  12.451  63.340  1.00  0.00    -0.448 C  
HETATM   31  O   UNL     1     -11.716  13.650  63.367  1.00  0.00    -0.195 OA 
HETATM   32  N   UNL     1     -10.221  11.926  63.634  1.00  0.00    -0.401 N  
HETATM   33  H   UNL     1     -10.090  10.914  63.635  1.00  0.00     0.000 HD 
BRANCH  32  34
HETATM   34  C   UNL     1      -9.102  12.787  63.941  1.00  0.00     1.993 C  
BRANCH  34  35
HETATM   35  C   UNL     1      -8.986  13.039  65.444  1.00  0.00     1.039 C  
HETATM   36  S   UNL     1     -10.527  13.649  66.082  1.00  0.00    -0.303 S  
HETATM   37  O   UNL     1     -10.061  13.903  67.608  1.00  0.00    -0.236 OA 
HETATM   38  O   UNL     1     -11.522  12.605  66.087  1.00  0.00    -0.324 OA 
HETATM   39  O   UNL     1     -10.783  14.960  65.526  1.00  0.00    -0.312 OA 
ENDBRANCH  34  35
ENDBRANCH  32  34
ENDBRANCH  29  30
ENDBRANCH   6  29
TORSDOF 4
ENDMDL
MODEL      184
REMARK 921   NORMALIZED FREE ENERGY PREDICTED BY IDOCK:   65.25 KCAL/MOL
REMARK 922        TOTAL FREE ENERGY PREDICTED BY IDOCK:   79.68 KCAL/MOL
REMARK 923 INTER-LIGAND FREE ENERGY PREDICTED BY IDOCK:   60.35 KCAL/MOL
REMARK 924 INTRA-LIGAND FREE ENERGY PREDICTED BY IDOCK:   19.33 KCAL/MOL
REMARK 927      BINDING AFFINITY PREDICTED BY RF-SCORE:    0.00 PKD
ROOT
HETATM    1  C   UNL     1      -8.902  13.064  70.490  1.00  0.00     6.343 C  
HETATM    2  C   UNL     1      -9.251  11.585  71.330  1.00  0.00     9.802 C  
HETATM    3  C   UNL     1     -10.369  13.183  70.081  1.00  0.00     2.033 C  
HETATM    4  C   UNL     1      -8.601  11.078  72.611  1.00  0.00    15.169 C  
HETATM    5  C   UNL     1     -10.873  13.991  71.287  1.00  0.00     2.219 C  
HETATM    6  C   UNL     1      -9.705  10.334  70.425  1.00  0.00     0.318 C  
HETATM    7  C   UNL     1      -7.906  14.612  72.407  1.00  0.00     5.822 C  
HETATM    8  C   UNL     1     -10.175  15.280  71.039  1.00  0.00     0.649 C  
HETATM    9  C   UNL     1     -10.645  15.837  69.597  1.00  0.00    -0.295 C  
HETATM   10  H   UNL     1      -6.409  16.078  71.519  1.00  0.00     0.000 HD 
HETATM   11  O   UNL     1      -6.665  16.495  70.705  1.00  0.00     0.896 OA 
HETATM   12  C   UNL     1      -8.661  14.769  71.063  1.00  0.00     3.064 C  
HETATM   13  C   UNL     1     -12.171  15.850  69.394  1.00  0.00    -0.062 C  
HETATM   14  C   UNL     1      -8.058  16.221  70.504  1.00  0.00     2.636 C  
HETATM   15  C   UNL     1     -12.419  15.872  67.913  1.00  0.00     1.379 C  
HETATM   16  O   UNL     1     -12.906  14.704  69.798  1.00  0.00    -0.571 OA 
HETATM   17  C   UNL     1      -8.478  16.903  69.172  1.00  0.00    -0.057 C  
HETATM   18  C   UNL     1     -12.026  17.199  67.316  1.00  0.00     2.054 C  
HETATM   19  C   UNL     1      -9.997  17.114  69.025  1.00  0.00    -0.273 C  
HETATM   20  H   UNL     1     -13.848  14.713  69.674  1.00  0.00     0.000 HD 
HETATM   21  C   UNL     1     -10.300  19.043  67.335  1.00  0.00    -0.504 C  
HETATM   22  C   UNL     1     -12.631  17.209  65.900  1.00  0.00     6.224 C  
HETATM   23  C   UNL     1     -10.503  17.509  67.486  1.00  0.00    -0.355 C  
HETATM   24  C   UNL     1     -11.798  16.684  64.745  1.00  0.00     0.899 C  
HETATM   25  C   UNL     1      -9.719  16.824  66.309  1.00  0.00    -0.318 C  
HETATM   26  H   UNL     1     -11.525  14.975  63.763  1.00  0.00     0.000 HD 
HETATM   27  O   UNL     1     -12.046  15.303  64.486  1.00  0.00    -0.372 OA 
HETATM   28  C   UNL     1     -10.313  16.971  64.882  1.00  0.00     0.685 C  
ENDROOT
BRANCH   6  29
HETATM   29  C   UNL     1      -8.815   9.815  69.309  1.00  0.00    -0.171 C  
BRANCH  29  30
HETATM   30  C   UNL     1      -9.468   9.872  67.958  1.00  0.00    -0.134 C  
HETATM   31  O   UNL     1      -9.912   8.868  67.414  1.00  0.00    -0.178 OA 
HETATM   32  N   UNL     1      -9.492  11.127  67.377  1.00  0.00    -0.164 N  
HETATM   33  H   UNL     1      -9.143  11.930  67.902  1.00  0.00     0.000 HD 
BRANCH  32  34
HETATM   34  C   UNL     1     -10.005  11.321  66.041  1.00  0.00    -0.231 C  
BRANCH  34  35
HETATM   35  C   UNL     1     -10.714  10.068  65.527  1.00  0.00     0.442 C  
HETATM   36  S   UNL     1      -9.821   8.615  66.018  1.00  0.00     0.023 S  
HETATM   37  O   UNL     1     -10.735   7.516  65.264  1.00  0.00     3.720 OA 
HETATM   38  O   UNL     1      -9.946   8.400  67.440  1.00  0.00    -0.177 OA 
HETATM   39  O   UNL     1      -8.542   8.594  65.342  1.00  0.00    -0.165 OA 
ENDBRANCH  34  35
ENDBRANCH  32  34
ENDBRANCH  29  30
ENDBRANCH   6  29
TORSDOF 4
ENDMDL
MODEL      185
REMARK 921   NORMALIZED FREE ENERGY PREDICTED BY IDOCK:   65.62 KCAL/MOL
REMARK 922        TOTAL FREE ENERGY PREDICTED BY IDOCK:   80.14 KCAL/MOL
REMARK 923 INTER-LIGAND FREE ENERGY PREDICTED BY IDOCK:   71.34 KCAL/MOL
REMARK 924 INTRA-LIGAND FREE ENERGY PREDICTED BY IDOCK:    8.80 KCAL/MOL
REMARK 927      BINDING AFFINITY PREDICTED BY RF-SCORE:    0.00 PKD
ROOT
HETATM    1  C   UNL     1     -10.680  11.119  71.872  1.00  0.00     6.209 C  
HETATM    2  C   UNL     1     -10.319  12.481  72.888  1.00  0.00    17.804 C  
HETATM    3  C   UNL     1      -9.305  10.527  72.172  1.00  0.00     8.220 C  
HETATM    4  C   UNL     1     -11.292  13.261  73.764  1.00  0.00     7.823 C  
HETATM    5  C   UNL     1      -9.682   9.699  73.411  1.00  0.00     6.023 C  
HETATM    6  C   UNL     1      -9.143  13.460  72.388  1.00  0.00    15.908 C  
HETATM    7  C   UNL     1     -12.862  10.104  73.000  1.00  0.00     2.161 C  
HETATM    8  C   UNL     1     -10.547   8.670  72.775  1.00  0.00     0.092 C  
HETATM    9  C   UNL     1      -9.666   7.886  71.670  1.00  0.00    -0.207 C  
HETATM   10  H   UNL     1     -14.156   9.102  71.418  1.00  0.00     0.000 HD 
HETATM   11  O   UNL     1     -13.697   8.565  70.783  1.00  0.00     0.209 OA 
HETATM   12  C   UNL     1     -11.665   9.620  72.142  1.00  0.00     0.155 C  
HETATM   13  C   UNL     1      -8.303   7.392  72.187  1.00  0.00    -0.109 C  
HETATM   14  C   UNL     1     -12.358   8.383  71.263  1.00  0.00    -0.266 C  
HETATM   15  C   UNL     1      -7.426   7.180  70.987  1.00  0.00    -0.077 C  
HETATM   16  O   UNL     1      -7.523   8.285  72.968  1.00  0.00    -0.129 OA 
HETATM   17  C   UNL     1     -11.608   7.505  70.223  1.00  0.00    -0.114 C  
HETATM   18  C   UNL     1      -7.888   5.994  70.179  1.00  0.00    -0.101 C  
HETATM   19  C   UNL     1     -10.337   6.829  70.771  1.00  0.00    -0.227 C  
HETATM   20  H   UNL     1      -6.682   7.980  73.288  1.00  0.00     0.000 HD 
HETATM   21  C   UNL     1      -9.903   4.774  69.268  1.00  0.00    -0.269 C  
HETATM   22  C   UNL     1      -6.739   5.691  69.200  1.00  0.00    -0.060 C  
HETATM   23  C   UNL     1      -9.333   6.180  69.609  1.00  0.00    -0.156 C  
HETATM   24  C   UNL     1      -6.746   6.354  67.835  1.00  0.00    -0.064 C  
HETATM   25  C   UNL     1      -9.240   6.978  68.260  1.00  0.00    -0.128 C  
HETATM   26  H   UNL     1      -6.001   7.984  66.968  1.00  0.00     0.000 HD 
HETATM   27  O   UNL     1      -5.997   7.569  67.822  1.00  0.00    -0.036 OA 
HETATM   28  C   UNL     1      -8.136   6.547  67.255  1.00  0.00    -0.113 C  
ENDROOT
BRANCH   6  29
HETATM   29  C   UNL     1      -9.217  14.139  71.031  1.00  0.00     4.825 C  
BRANCH  29  30
HETATM   30  C   UNL     1      -8.191  15.220  70.854  1.00  0.00     2.402 C  
HETATM   31  O   UNL     1      -8.485  16.321  70.403  1.00  0.00     1.523 OA 
HETATM   32  N   UNL     1      -6.902  14.861  71.206  1.00  0.00     0.475 N  
HETATM   33  H   UNL     1      -6.731  13.943  71.616  1.00  0.00     0.000 HD 
BRANCH  32  34
HETATM   34  C   UNL     1      -5.794  15.766  71.005  1.00  0.00     0.308 C  
BRANCH  34  35
HETATM   35  C   UNL     1      -5.674  16.186  69.540  1.00  0.00    -0.140 C  
HETATM   36  S   UNL     1      -7.059  17.195  69.077  1.00  0.00    -0.208 S  
HETATM   37  O   UNL     1      -6.700  17.377  67.513  1.00  0.00    -0.145 OA 
HETATM   38  O   UNL     1      -6.976  18.490  69.708  1.00  0.00    -0.010 OA 
HETATM   39  O   UNL     1      -8.263  16.392  69.113  1.00  0.00    -0.240 OA 
ENDBRANCH  34  35
ENDBRANCH  32  34
ENDBRANCH  29  30
ENDBRANCH   6  29
TORSDOF 4
ENDMDL
MODEL      186
REMARK 921   NORMALIZED FREE ENERGY PREDICTED BY IDOCK:   67.37 KCAL/MOL
REMARK 922        TOTAL FREE ENERGY PREDICTED BY IDOCK:   82.30 KCAL/MOL
REMARK 923 INTER-LIGAND FREE ENERGY PREDICTED BY IDOCK:   79.98 KCAL/MOL
REMARK 924 INTRA-LIGAND FREE ENERGY PREDICTED BY IDOCK:    2.32 KCAL/MOL
REMARK 927      BINDING AFFINITY PREDICTED BY RF-SCORE:    0.00 PKD
ROOT
HETATM    1  C   UNL     1      -7.515  12.066  71.956  1.00  0.00    10.844 C  
HETATM    2  C   UNL     1      -7.464  10.804  73.148  1.00  0.00     8.894 C  
HETATM    3  C   UNL     1      -9.036  12.125  72.079  1.00  0.00    20.212 C  
HETATM    4  C   UNL     1      -6.378  10.564  74.191  1.00  0.00     1.936 C  
HETATM    5  C   UNL     1      -9.130  13.179  73.194  1.00  0.00    18.485 C  
HETATM    6  C   UNL     1      -8.135   9.399  72.739  1.00  0.00     1.816 C  
HETATM    7  C   UNL     1      -5.999  13.961  73.039  1.00  0.00     0.507 C  
HETATM    8  C   UNL     1      -8.637  14.372  72.457  1.00  0.00     8.393 C  
HETATM    9  C   UNL     1      -9.613  14.623  71.194  1.00  0.00     2.912 C  
HETATM   10  H   UNL     1      -4.993  15.178  71.399  1.00  0.00     0.000 HD 
HETATM   11  O   UNL     1      -5.541  15.419  70.662  1.00  0.00    -0.138 OA 
HETATM   12  C   UNL     1      -7.185  13.848  72.047  1.00  0.00     4.526 C  
HETATM   13  C   UNL     1     -11.111  14.623  71.546  1.00  0.00     0.514 C  
HETATM   14  C   UNL     1      -6.898  15.137  71.028  1.00  0.00     0.924 C  
HETATM   15  C   UNL     1     -11.863  14.338  70.278  1.00  0.00    -0.377 C  
HETATM   16  O   UNL     1     -11.593  13.604  72.410  1.00  0.00     1.113 OA 
HETATM   17  C   UNL     1      -7.795  15.531  69.822  1.00  0.00    -0.031 C  
HETATM   18  C   UNL     1     -11.780  15.502  69.324  1.00  0.00    -0.380 C  
HETATM   19  C   UNL     1      -9.279  15.737  70.182  1.00  0.00     0.572 C  
HETATM   20  H   UNL     1     -12.518  13.604  72.628  1.00  0.00     0.000 HD 
HETATM   21  C   UNL     1     -10.263  17.274  68.355  1.00  0.00    -0.358 C  
HETATM   22  C   UNL     1     -12.841  15.226  68.244  1.00  0.00     1.571 C  
HETATM   23  C   UNL     1     -10.313  15.810  68.876  1.00  0.00    -0.224 C  
HETATM   24  C   UNL     1     -12.438  14.454  67.002  1.00  0.00     0.088 C  
HETATM   25  C   UNL     1      -9.954  14.877  67.664  1.00  0.00    -0.226 C  
HETATM   26  H   UNL     1     -12.431  12.570  66.356  1.00  0.00     0.000 HD 
HETATM   27  O   UNL     1     -12.683  13.054  67.134  1.00  0.00     0.090 OA 
HETATM   28  C   UNL     1     -11.018  14.733  66.542  1.00  0.00    -0.325 C  
ENDROOT
BRANCH   6  29
HETATM   29  C   UNL     1      -7.665   8.639  71.510  1.00  0.00    -0.152 C  
BRANCH  29  30
HETATM   30  C   UNL     1      -6.908   9.497  70.538  1.00  0.00    -0.112 C  
HETATM   31  O   UNL     1      -6.520  10.621  70.835  1.00  0.00    -0.350 OA 
HETATM   32  N   UNL     1      -6.721   8.933  69.288  1.00  0.00    -0.049 N  
HETATM   33  H   UNL     1      -7.032   7.977  69.118  1.00  0.00     0.000 HD 
BRANCH  32  34
HETATM   34  C   UNL     1      -6.092   9.676  68.221  1.00  0.00    -0.051 C  
BRANCH  34  35
HETATM   35  C   UNL     1      -6.898   9.587  66.926  1.00  0.00    -0.080 C  
HETATM   36  S   UNL     1      -8.503  10.308  67.154  1.00  0.00    -0.125 S  
HETATM   37  O   UNL     1      -9.116   9.976  65.696  1.00  0.00    -0.163 OA 
HETATM   38  O   UNL     1      -8.402  11.742  67.279  1.00  0.00    -0.147 OA 
HETATM   39  O   UNL     1      -9.256   9.501  68.091  1.00  0.00    -0.130 OA 
ENDBRANCH  34  35
ENDBRANCH  32  34
ENDBRANCH  29  30
ENDBRANCH   6  29
TORSDOF 4
ENDMDL
MODEL      187
REMARK 921   NORMALIZED FREE ENERGY PREDICTED BY IDOCK:   71.08 KCAL/MOL
REMARK 922        TOTAL FREE ENERGY PREDICTED BY IDOCK:   86.88 KCAL/MOL
REMARK 923 INTER-LIGAND FREE ENERGY PREDICTED BY IDOCK:   74.99 KCAL/MOL
REMARK 924 INTRA-LIGAND FREE ENERGY PREDICTED BY IDOCK:   11.89 KCAL/MOL
REMARK 927      BINDING AFFINITY PREDICTED BY RF-SCORE:    0.00 PKD
ROOT
HETATM    1  C   UNL     1     -10.670  11.121  71.925  1.00  0.00     6.209 C  
HETATM    2  C   UNL     1     -10.440  12.304  73.176  1.00  0.00    19.313 C  
HETATM    3  C   UNL     1      -9.279  10.555  72.199  1.00  0.00     8.349 C  
HETATM    4  C   UNL     1     -11.499  12.871  74.114  1.00  0.00    11.256 C  
HETATM    5  C   UNL     1      -9.666   9.508  73.256  1.00  0.00     4.682 C  
HETATM    6  C   UNL     1      -9.301  13.412  72.918  1.00  0.00    16.016 C  
HETATM    7  C   UNL     1     -12.840   9.819  72.737  1.00  0.00     0.397 C  
HETATM    8  C   UNL     1     -10.437   8.563  72.405  1.00  0.00    -0.367 C  
HETATM    9  C   UNL     1      -9.459   8.026  71.236  1.00  0.00    -0.190 C  
HETATM   10  H   UNL     1     -13.995   9.042  70.936  1.00  0.00     0.000 HD 
HETATM   11  O   UNL     1     -13.475   8.646  70.246  1.00  0.00     1.126 OA 
HETATM   12  C   UNL     1     -11.577   9.550  71.880  1.00  0.00    -0.268 C  
HETATM   13  C   UNL     1      -8.096   7.519  71.740  1.00  0.00    -0.102 C  
HETATM   14  C   UNL     1     -12.153   8.451  70.764  1.00  0.00    -0.055 C  
HETATM   15  C   UNL     1      -7.151   7.561  70.573  1.00  0.00    -0.056 C  
HETATM   16  O   UNL     1      -7.408   8.301  72.704  1.00  0.00    -0.109 OA 
HETATM   17  C   UNL     1     -11.303   7.804  69.636  1.00  0.00     0.146 C  
HETATM   18  C   UNL     1      -7.502   6.511  69.551  1.00  0.00    -0.093 C  
HETATM   19  C   UNL     1     -10.022   7.108  70.133  1.00  0.00    -0.190 C  
HETATM   20  H   UNL     1      -6.567   7.988  73.016  1.00  0.00     0.000 HD 
HETATM   21  C   UNL     1      -9.396   5.368  68.331  1.00  0.00    -0.138 C  
HETATM   22  C   UNL     1      -6.292   6.439  68.602  1.00  0.00    -0.038 C  
HETATM   23  C   UNL     1      -8.926   6.720  68.938  1.00  0.00    -0.131 C  
HETATM   24  C   UNL     1      -6.272   7.326  67.371  1.00  0.00    -0.050 C  
HETATM   25  C   UNL     1      -8.816   7.743  67.751  1.00  0.00    -0.126 C  
HETATM   26  H   UNL     1      -5.583   9.117  66.838  1.00  0.00     0.000 HD 
HETATM   27  O   UNL     1      -5.596   8.561  67.608  1.00  0.00    -0.038 OA 
HETATM   28  C   UNL     1      -7.641   7.547  66.754  1.00  0.00    -0.101 C  
ENDROOT
BRANCH   6  29
HETATM   29  C   UNL     1      -9.349  14.309  71.694  1.00  0.00     6.354 C  
BRANCH  29  30
HETATM   30  C   UNL     1     -10.238  13.779  70.607  1.00  0.00     3.008 C  
HETATM   31  O   UNL     1      -9.870  13.730  69.439  1.00  0.00     0.264 OA 
HETATM   32  N   UNL     1     -11.498  13.389  71.024  1.00  0.00     0.210 N  
HETATM   33  H   UNL     1     -11.728  13.415  72.018  1.00  0.00     0.000 HD 
BRANCH  32  34
HETATM   34  C   UNL     1     -12.493  12.944  70.076  1.00  0.00    -0.015 C  
BRANCH  34  35
HETATM   35  C   UNL     1     -12.724  13.982  68.978  1.00  0.00     0.645 C  
HETATM   36  S   UNL     1     -11.276  14.130  67.962  1.00  0.00    -0.296 S  
HETATM   37  O   UNL     1     -11.786  15.327  67.005  1.00  0.00    -0.133 OA 
HETATM   38  O   UNL     1     -11.105  12.950  67.149  1.00  0.00    -0.259 OA 
HETATM   39  O   UNL     1     -10.199  14.688  68.752  1.00  0.00    -0.231 OA 
ENDBRANCH  34  35
ENDBRANCH  32  34
ENDBRANCH  29  30
ENDBRANCH   6  29
TORSDOF 4
ENDMDL
MODEL      188
REMARK 921   NORMALIZED FREE ENERGY PREDICTED BY IDOCK:   71.09 KCAL/MOL
REMARK 922        TOTAL FREE ENERGY PREDICTED BY IDOCK:   86.89 KCAL/MOL
REMARK 923 INTER-LIGAND FREE ENERGY PREDICTED BY IDOCK:   84.83 KCAL/MOL
REMARK 924 INTRA-LIGAND FREE ENERGY PREDICTED BY IDOCK:    2.06 KCAL/MOL
REMARK 927      BINDING AFFINITY PREDICTED BY RF-SCORE:    0.00 PKD
ROOT
HETATM    1  C   UNL     1     -11.028  14.390  69.893  1.00  0.00    -0.103 C  
HETATM    2  C   UNL     1     -12.346  13.271  70.045  1.00  0.00    -0.269 C  
HETATM    3  C   UNL     1     -11.725  15.058  68.710  1.00  0.00    -0.360 C  
HETATM    4  C   UNL     1     -12.900  12.667  71.330  1.00  0.00    -0.344 C  
HETATM    5  C   UNL     1     -12.527  16.113  69.488  1.00  0.00     0.538 C  
HETATM    6  C   UNL     1     -12.553  12.234  68.831  1.00  0.00     0.803 C  
HETATM    7  C   UNL     1     -10.980  15.572  72.273  1.00  0.00     0.253 C  
HETATM    8  C   UNL     1     -11.414  16.974  69.969  1.00  0.00     0.919 C  
HETATM    9  C   UNL     1     -10.618  17.533  68.679  1.00  0.00    -0.288 C  
HETATM   10  H   UNL     1      -8.854  16.206  72.781  1.00  0.00     0.000 HD 
HETATM   11  O   UNL     1      -8.360  16.612  72.077  1.00  0.00    10.126 OA 
HETATM   12  C   UNL     1     -10.589  15.895  70.809  1.00  0.00     0.093 C  
HETATM   13  C   UNL     1     -11.524  18.149  67.597  1.00  0.00     0.919 C  
HETATM   14  C   UNL     1      -9.285  16.913  71.024  1.00  0.00     5.331 C  
HETATM   15  C   UNL     1     -10.752  18.128  66.310  1.00  0.00    -0.157 C  
HETATM   16  O   UNL     1     -12.708  17.448  67.243  1.00  0.00     3.982 OA 
HETATM   17  C   UNL     1      -8.477  17.575  69.873  1.00  0.00     1.707 C  
HETATM   18  C   UNL     1      -9.614  19.116  66.344  1.00  0.00    -0.402 C  
HETATM   19  C   UNL     1      -9.340  18.373  68.877  1.00  0.00    -0.228 C  
HETATM   20  H   UNL     1     -13.268  17.829  66.576  1.00  0.00     0.000 HD 
HETATM   21  C   UNL     1      -7.762  20.086  67.761  1.00  0.00    -0.327 C  
HETATM   22  C   UNL     1      -9.130  19.235  64.887  1.00  0.00     3.135 C  
HETATM   23  C   UNL     1      -8.567  18.790  67.460  1.00  0.00    -0.292 C  
HETATM   24  C   UNL     1      -8.030  18.308  64.402  1.00  0.00     6.500 C  
HETATM   25  C   UNL     1      -7.548  17.736  66.898  1.00  0.00    -0.238 C  
HETATM   26  H   UNL     1      -7.863  16.550  63.482  1.00  0.00     0.000 HD 
HETATM   27  O   UNL     1      -8.551  17.131  63.786  1.00  0.00    10.628 OA 
HETATM   28  C   UNL     1      -6.998  17.975  65.465  1.00  0.00    -0.045 C  
ENDROOT
BRANCH   6  29
HETATM   29  C   UNL     1     -11.437  11.292  68.412  1.00  0.00    -0.377 C  
BRANCH  29  30
HETATM   30  C   UNL     1     -10.628  10.782  69.570  1.00  0.00    -0.196 C  
HETATM   31  O   UNL     1     -10.471   9.582  69.768  1.00  0.00    -0.204 OA 
HETATM   32  N   UNL     1     -10.114  11.764  70.398  1.00  0.00     2.042 N  
HETATM   33  H   UNL     1     -10.246  12.745  70.154  1.00  0.00     0.000 HD 
BRANCH  32  34
HETATM   34  C   UNL     1      -9.393  11.421  71.602  1.00  0.00    11.879 C  
BRANCH  34  35
HETATM   35  C   UNL     1      -7.889  11.638  71.434  1.00  0.00     8.650 C  
HETATM   36  S   UNL     1      -7.369  13.058  72.362  1.00  0.00    10.431 S  
HETATM   37  O   UNL     1      -5.818  13.074  71.910  1.00  0.00    -0.269 OA 
HETATM   38  O   UNL     1      -7.418  12.784  73.778  1.00  0.00     7.318 OA 
HETATM   39  O   UNL     1      -7.960  14.245  71.783  1.00  0.00     3.676 OA 
ENDBRANCH  34  35
ENDBRANCH  32  34
ENDBRANCH  29  30
ENDBRANCH   6  29
TORSDOF 4
ENDMDL
MODEL      189
REMARK 921   NORMALIZED FREE ENERGY PREDICTED BY IDOCK:   74.33 KCAL/MOL
REMARK 922        TOTAL FREE ENERGY PREDICTED BY IDOCK:   90.89 KCAL/MOL
REMARK 923 INTER-LIGAND FREE ENERGY PREDICTED BY IDOCK:   87.16 KCAL/MOL
REMARK 924 INTRA-LIGAND FREE ENERGY PREDICTED BY IDOCK:    3.73 KCAL/MOL
REMARK 927      BINDING AFFINITY PREDICTED BY RF-SCORE:    0.00 PKD
ROOT
HETATM    1  C   UNL     1      -9.823  12.440  66.922  1.00  0.00    -0.219 C  
HETATM    2  C   UNL     1     -11.285  11.519  66.749  1.00  0.00    -0.350 C  
HETATM    3  C   UNL     1     -10.379  13.094  68.185  1.00  0.00    -0.247 C  
HETATM    4  C   UNL     1     -11.424  10.103  66.204  1.00  0.00     1.510 C  
HETATM    5  C   UNL     1      -9.856  12.077  69.212  1.00  0.00     0.464 C  
HETATM    6  C   UNL     1     -12.626  12.351  66.432  1.00  0.00     0.944 C  
HETATM    7  C   UNL     1      -7.956  10.557  67.087  1.00  0.00    -0.116 C  
HETATM    8  C   UNL     1      -8.397  12.340  69.109  1.00  0.00     0.522 C  
HETATM    9  C   UNL     1      -8.137  13.890  69.486  1.00  0.00     0.648 C  
HETATM   10  H   UNL     1      -5.994  11.335  66.234  1.00  0.00     0.000 HD 
HETATM   11  O   UNL     1      -5.752  12.219  66.483  1.00  0.00    -0.192 OA 
HETATM   12  C   UNL     1      -8.178  12.016  67.560  1.00  0.00    -0.159 C  
HETATM   13  C   UNL     1      -8.809  14.341  70.795  1.00  0.00     3.602 C  
HETATM   14  C   UNL     1      -6.622  12.616  67.551  1.00  0.00    -0.156 C  
HETATM   15  C   UNL     1      -8.930  15.837  70.737  1.00  0.00     2.348 C  
HETATM   16  O   UNL     1     -10.154  13.945  71.024  1.00  0.00     2.521 OA 
HETATM   17  C   UNL     1      -6.226  14.062  67.959  1.00  0.00    -0.145 C  
HETATM   18  C   UNL     1      -7.579  16.495  70.852  1.00  0.00     4.010 C  
HETATM   19  C   UNL     1      -6.717  14.478  69.359  1.00  0.00    -0.142 C  
HETATM   20  H   UNL     1     -10.569  14.223  71.832  1.00  0.00     0.000 HD 
HETATM   21  C   UNL     1      -5.160  16.385  70.136  1.00  0.00    -0.163 C  
HETATM   22  C   UNL     1      -7.869  17.985  71.115  1.00  0.00     6.649 C  
HETATM   23  C   UNL     1      -6.620  16.111  69.678  1.00  0.00    -0.182 C  
HETATM   24  C   UNL     1      -7.991  18.926  69.931  1.00  0.00     0.927 C  
HETATM   25  C   UNL     1      -6.908  17.066  68.464  1.00  0.00    -0.179 C  
HETATM   26  H   UNL     1      -9.420  19.668  68.759  1.00  0.00     0.000 HD 
HETATM   27  O   UNL     1      -9.343  19.078  69.500  1.00  0.00     0.043 OA 
HETATM   28  C   UNL     1      -7.070  18.579  68.775  1.00  0.00    -0.310 C  
ENDROOT
BRANCH   6  29
HETATM   29  C   UNL     1     -12.717  13.246  65.208  1.00  0.00    -0.474 C  
BRANCH  29  30
HETATM   30  C   UNL     1     -11.534  13.117  64.292  1.00  0.00    -0.384 C  
HETATM   31  O   UNL     1     -11.201  12.037  63.818  1.00  0.00    -0.367 OA 
HETATM   32  N   UNL     1     -10.847  14.295  64.061  1.00  0.00    -0.306 N  
HETATM   33  H   UNL     1     -11.201  15.168  64.452  1.00  0.00     0.000 HD 
BRANCH  32  34
HETATM   34  C   UNL     1      -9.635  14.309  63.275  1.00  0.00     8.426 C  
BRANCH  34  35
HETATM   35  C   UNL     1      -8.650  13.239  63.745  1.00  0.00     6.531 C  
HETATM   36  S   UNL     1      -7.161  13.998  64.342  1.00  0.00    21.407 S  
HETATM   37  O   UNL     1      -6.324  12.651  64.654  1.00  0.00     6.872 OA 
HETATM   38  O   UNL     1      -7.403  14.673  65.594  1.00  0.00     4.223 OA 
HETATM   39  O   UNL     1      -6.480  14.638  63.237  1.00  0.00    19.607 OA 
ENDBRANCH  34  35
ENDBRANCH  32  34
ENDBRANCH  29  30
ENDBRANCH   6  29
TORSDOF 4
ENDMDL
MODEL      190
REMARK 921   NORMALIZED FREE ENERGY PREDICTED BY IDOCK:   91.29 KCAL/MOL
REMARK 922        TOTAL FREE ENERGY PREDICTED BY IDOCK:  111.81 KCAL/MOL
REMARK 923 INTER-LIGAND FREE ENERGY PREDICTED BY IDOCK:   86.85 KCAL/MOL
REMARK 924 INTRA-LIGAND FREE ENERGY PREDICTED BY IDOCK:   24.97 KCAL/MOL
REMARK 927      BINDING AFFINITY PREDICTED BY RF-SCORE:    0.00 PKD
ROOT
HETATM    1  C   UNL     1     -10.554  11.131  72.304  1.00  0.00     9.182 C  
HETATM    2  C   UNL     1     -10.082  12.391  73.403  1.00  0.00    22.759 C  
HETATM    3  C   UNL     1      -9.134  10.572  72.329  1.00  0.00     9.021 C  
HETATM    4  C   UNL     1     -10.933  13.027  74.495  1.00  0.00    12.716 C  
HETATM    5  C   UNL     1      -9.296   9.599  73.509  1.00  0.00     5.846 C  
HETATM    6  C   UNL     1      -9.023  13.469  72.849  1.00  0.00    15.039 C  
HETATM    7  C   UNL     1     -12.511   9.904  73.619  1.00  0.00     6.848 C  
HETATM    8  C   UNL     1     -10.218   8.608  72.895  1.00  0.00     0.182 C  
HETATM    9  C   UNL     1      -9.493   7.987  71.591  1.00  0.00    -0.213 C  
HETATM   10  H   UNL     1     -14.001   9.021  72.142  1.00  0.00     0.000 HD 
HETATM   11  O   UNL     1     -13.629   8.576  71.390  1.00  0.00    -0.310 OA 
HETATM   12  C   UNL     1     -11.445   9.568  72.545  1.00  0.00     1.028 C  
HETATM   13  C   UNL     1      -8.054   7.501  71.842  1.00  0.00    -0.094 C  
HETATM   14  C   UNL     1     -12.229   8.404  71.643  1.00  0.00    -0.315 C  
HETATM   15  C   UNL     1      -7.364   7.459  70.509  1.00  0.00    -0.076 C  
HETATM   16  O   UNL     1      -7.190   8.339  72.595  1.00  0.00    -0.104 OA 
HETATM   17  C   UNL     1     -11.621   7.677  70.412  1.00  0.00    -0.138 C  
HETATM   18  C   UNL     1      -7.909   6.348  69.649  1.00  0.00    -0.108 C  
HETATM   19  C   UNL     1     -10.263   7.003  70.686  1.00  0.00    -0.205 C  
HETATM   20  H   UNL     1      -6.302   8.038  72.751  1.00  0.00     0.000 HD 
HETATM   21  C   UNL     1     -10.004   5.144  68.913  1.00  0.00    -0.245 C  
HETATM   22  C   UNL     1      -6.914   6.203  68.484  1.00  0.00    -0.076 C  
HETATM   23  C   UNL     1      -9.428   6.529  69.323  1.00  0.00    -0.141 C  
HETATM   24  C   UNL     1      -7.146   7.008  67.218  1.00  0.00    -0.084 C  
HETATM   25  C   UNL     1      -9.563   7.471  68.074  1.00  0.00    -0.156 C  
HETATM   26  H   UNL     1      -6.587   8.753  66.441  1.00  0.00     0.000 HD 
HETATM   27  O   UNL     1      -6.441   8.249  67.233  1.00  0.00    -0.055 OA 
HETATM   28  C   UNL     1      -8.612   7.200  66.876  1.00  0.00    -0.124 C  
ENDROOT
BRANCH   6  29
HETATM   29  C   UNL     1      -9.321  14.285  71.603  1.00  0.00     6.354 C  
BRANCH  29  30
HETATM   30  C   UNL     1     -10.768  14.666  71.478  1.00  0.00     1.263 C  
HETATM   31  O   UNL     1     -11.540  14.587  72.426  1.00  0.00     0.030 OA 
HETATM   32  N   UNL     1     -11.154  15.074  70.214  1.00  0.00    -0.352 N  
HETATM   33  H   UNL     1     -10.453  15.158  69.478  1.00  0.00     0.000 HD 
BRANCH  32  34
HETATM   34  C   UNL     1     -12.534  15.384  69.919  1.00  0.00    -0.240 C  
BRANCH  34  35
HETATM   35  C   UNL     1     -13.489  14.562  70.785  1.00  0.00    -0.111 C  
HETATM   36  S   UNL     1     -12.570  13.542  71.910  1.00  0.00    -0.031 S  
HETATM   37  O   UNL     1     -13.813  12.758  72.579  1.00  0.00    -0.518 OA 
HETATM   38  O   UNL     1     -11.948  14.349  72.932  1.00  0.00     0.025 OA 
HETATM   39  O   UNL     1     -11.836  12.548  71.156  1.00  0.00     0.252 OA 
ENDBRANCH  34  35
ENDBRANCH  32  34
ENDBRANCH  29  30
ENDBRANCH   6  29
TORSDOF 4
ENDMDL
MODEL      191
REMARK 921   NORMALIZED FREE ENERGY PREDICTED BY IDOCK:   92.65 KCAL/MOL
REMARK 922        TOTAL FREE ENERGY PREDICTED BY IDOCK:  113.49 KCAL/MOL
REMARK 923 INTER-LIGAND FREE ENERGY PREDICTED BY IDOCK:   94.97 KCAL/MOL
REMARK 924 INTRA-LIGAND FREE ENERGY PREDICTED BY IDOCK:   18.52 KCAL/MOL
REMARK 927      BINDING AFFINITY PREDICTED BY RF-SCORE:    0.00 PKD
ROOT
HETATM    1  C   UNL     1     -10.554  11.131  72.304  1.00  0.00     9.182 C  
HETATM    2  C   UNL     1     -10.082  12.391  73.403  1.00  0.00    22.759 C  
HETATM    3  C   UNL     1      -9.134  10.572  72.329  1.00  0.00     9.021 C  
HETATM    4  C   UNL     1     -10.933  13.027  74.495  1.00  0.00    12.716 C  
HETATM    5  C   UNL     1      -9.296   9.599  73.509  1.00  0.00     5.846 C  
HETATM    6  C   UNL     1      -9.023  13.469  72.849  1.00  0.00    15.039 C  
HETATM    7  C   UNL     1     -12.511   9.904  73.619  1.00  0.00     6.848 C  
HETATM    8  C   UNL     1     -10.218   8.608  72.895  1.00  0.00     0.182 C  
HETATM    9  C   UNL     1      -9.493   7.987  71.591  1.00  0.00    -0.213 C  
HETATM   10  H   UNL     1     -14.001   9.021  72.142  1.00  0.00     0.000 HD 
HETATM   11  O   UNL     1     -13.629   8.576  71.390  1.00  0.00    -0.310 OA 
HETATM   12  C   UNL     1     -11.445   9.568  72.545  1.00  0.00     1.028 C  
HETATM   13  C   UNL     1      -8.054   7.501  71.842  1.00  0.00    -0.094 C  
HETATM   14  C   UNL     1     -12.229   8.404  71.643  1.00  0.00    -0.315 C  
HETATM   15  C   UNL     1      -7.364   7.459  70.509  1.00  0.00    -0.076 C  
HETATM   16  O   UNL     1      -7.190   8.339  72.595  1.00  0.00    -0.104 OA 
HETATM   17  C   UNL     1     -11.621   7.677  70.412  1.00  0.00    -0.138 C  
HETATM   18  C   UNL     1      -7.909   6.348  69.649  1.00  0.00    -0.108 C  
HETATM   19  C   UNL     1     -10.263   7.003  70.686  1.00  0.00    -0.205 C  
HETATM   20  H   UNL     1      -6.302   8.038  72.751  1.00  0.00     0.000 HD 
HETATM   21  C   UNL     1     -10.004   5.144  68.913  1.00  0.00    -0.245 C  
HETATM   22  C   UNL     1      -6.914   6.203  68.484  1.00  0.00    -0.076 C  
HETATM   23  C   UNL     1      -9.428   6.529  69.323  1.00  0.00    -0.141 C  
HETATM   24  C   UNL     1      -7.146   7.008  67.218  1.00  0.00    -0.084 C  
HETATM   25  C   UNL     1      -9.563   7.471  68.074  1.00  0.00    -0.156 C  
HETATM   26  H   UNL     1      -6.587   8.753  66.441  1.00  0.00     0.000 HD 
HETATM   27  O   UNL     1      -6.441   8.249  67.233  1.00  0.00    -0.055 OA 
HETATM   28  C   UNL     1      -8.612   7.200  66.876  1.00  0.00    -0.124 C  
ENDROOT
BRANCH   6  29
HETATM   29  C   UNL     1      -9.321  14.285  71.603  1.00  0.00     6.354 C  
BRANCH  29  30
HETATM   30  C   UNL     1      -8.614  13.776  70.380  1.00  0.00     3.554 C  
HETATM   31  O   UNL     1      -8.113  12.659  70.343  1.00  0.00     3.182 OA 
HETATM   32  N   UNL     1      -8.551  14.674  69.330  1.00  0.00    -0.380 N  
HETATM   33  H   UNL     1      -9.026  15.573  69.409  1.00  0.00     0.000 HD 
BRANCH  32  34
HETATM   34  C   UNL     1      -7.824  14.358  68.122  1.00  0.00    -0.138 C  
BRANCH  34  35
HETATM   35  C   UNL     1      -6.646  13.425  68.405  1.00  0.00    -0.094 C  
HETATM   36  S   UNL     1      -6.609  12.994  70.126  1.00  0.00     0.472 S  
HETATM   37  O   UNL     1      -5.249  12.122  70.117  1.00  0.00    -0.079 OA 
HETATM   38  O   UNL     1      -7.703  12.110  70.451  1.00  0.00     2.060 OA 
HETATM   39  O   UNL     1      -6.313  14.177  70.905  1.00  0.00    -0.139 OA 
ENDBRANCH  34  35
ENDBRANCH  32  34
ENDBRANCH  29  30
ENDBRANCH   6  29
TORSDOF 4
ENDMDL
MODEL      192
REMARK 921   NORMALIZED FREE ENERGY PREDICTED BY IDOCK:  100.83 KCAL/MOL
REMARK 922        TOTAL FREE ENERGY PREDICTED BY IDOCK:  123.58 KCAL/MOL
REMARK 923 INTER-LIGAND FREE ENERGY PREDICTED BY IDOCK:  120.17 KCAL/MOL
REMARK 924 INTRA-LIGAND FREE ENERGY PREDICTED BY IDOCK:    3.41 KCAL/MOL
REMARK 927      BINDING AFFINITY PREDICTED BY RF-SCORE:    0.00 PKD
ROOT
HETATM    1  C   UNL     1     -11.110  13.477  69.496  1.00  0.00    -0.111 C  
HETATM    2  C   UNL     1     -10.113  14.709  68.785  1.00  0.00    -0.235 C  
HETATM    3  C   UNL     1      -9.889  12.574  69.653  1.00  0.00     1.497 C  
HETATM    4  C   UNL     1     -10.273  16.218  68.923  1.00  0.00    -0.256 C  
HETATM    5  C   UNL     1      -9.454  13.027  71.057  1.00  0.00     9.745 C  
HETATM    6  C   UNL     1      -9.454  14.366  67.357  1.00  0.00    -0.207 C  
HETATM    7  C   UNL     1     -12.158  14.711  71.604  1.00  0.00    -0.404 C  
HETATM    8  C   UNL     1     -10.586  12.491  71.858  1.00  0.00     9.849 C  
HETATM    9  C   UNL     1     -10.641  10.890  71.642  1.00  0.00     4.377 C  
HETATM   10  H   UNL     1     -14.214  13.849  72.062  1.00  0.00     0.000 HD 
HETATM   11  O   UNL     1     -14.288  12.902  72.023  1.00  0.00     0.102 OA 
HETATM   12  C   UNL     1     -11.795  13.270  71.163  1.00  0.00     0.419 C  
HETATM   13  C   UNL     1      -9.287  10.182  71.833  1.00  0.00     4.417 C  
HETATM   14  C   UNL     1     -12.958  12.372  71.953  1.00  0.00    -0.302 C  
HETATM   15  C   UNL     1      -9.372   8.867  71.113  1.00  0.00    -0.326 C  
HETATM   16  O   UNL     1      -8.139  10.770  71.240  1.00  0.00     2.325 OA 
HETATM   17  C   UNL     1     -13.079  10.824  71.889  1.00  0.00    -0.557 C  
HETATM   18  C   UNL     1     -10.307   7.920  71.819  1.00  0.00    -0.260 C  
HETATM   19  C   UNL     1     -11.788  10.075  72.271  1.00  0.00     0.823 C  
HETATM   20  H   UNL     1      -7.303  10.334  71.358  1.00  0.00     0.000 HD 
HETATM   21  C   UNL     1     -12.516   7.715  73.027  1.00  0.00     0.694 C  
HETATM   22  C   UNL     1     -10.046   6.539  71.189  1.00  0.00    -0.206 C  
HETATM   23  C   UNL     1     -11.775   8.455  71.877  1.00  0.00    -0.398 C  
HETATM   24  C   UNL     1     -10.869   6.116  69.986  1.00  0.00    -0.341 C  
HETATM   25  C   UNL     1     -12.502   8.069  70.539  1.00  0.00     0.373 C  
HETATM   26  H   UNL     1     -10.737   6.170  68.000  1.00  0.00     0.000 HD 
HETATM   27  O   UNL     1     -10.223   6.435  68.754  1.00  0.00    -0.155 OA 
HETATM   28  C   UNL     1     -12.300   6.621  70.015  1.00  0.00     0.389 C  
ENDROOT
BRANCH   6  29
HETATM   29  C   UNL     1     -10.323  13.993  66.167  1.00  0.00    -0.301 C  
BRANCH  29  30
HETATM   30  C   UNL     1      -9.935  14.707  64.905  1.00  0.00    -0.062 C  
HETATM   31  O   UNL     1     -10.626  15.602  64.432  1.00  0.00    -0.246 OA 
HETATM   32  N   UNL     1      -8.769  14.254  64.315  1.00  0.00     5.403 N  
HETATM   33  H   UNL     1      -8.217  13.534  64.782  1.00  0.00     0.000 HD 
BRANCH  32  34
HETATM   34  C   UNL     1      -8.319  14.783  63.048  1.00  0.00    21.027 C  
BRANCH  34  35
HETATM   35  C   UNL     1      -7.628  16.135  63.221  1.00  0.00    23.845 C  
HETATM   36  S   UNL     1      -8.807  17.366  63.717  1.00  0.00    16.409 S  
HETATM   37  O   UNL     1      -7.821  18.645  63.713  1.00  0.00     6.766 OA 
HETATM   38  O   UNL     1      -9.236  17.137  65.076  1.00  0.00     1.005 OA 
HETATM   39  O   UNL     1      -9.744  17.587  62.637  1.00  0.00    15.074 OA 
ENDBRANCH  34  35
ENDBRANCH  32  34
ENDBRANCH  29  30
ENDBRANCH   6  29
TORSDOF 4
ENDMDL
