MODEL        1
REMARK 921   NORMALIZED FREE ENERGY PREDICTED BY IDOCK:   -4.39 KCAL/MOL
REMARK 922        TOTAL FREE ENERGY PREDICTED BY IDOCK:   -4.87 KCAL/MOL
REMARK 923 INTER-LIGAND FREE ENERGY PREDICTED BY IDOCK:   -4.64 KCAL/MOL
REMARK 924 INTRA-LIGAND FREE ENERGY PREDICTED BY IDOCK:   -0.23 KCAL/MOL
REMARK 927      BINDING AFFINITY PREDICTED BY RF-SCORE:    0.00 PKD
ROOT
HETATM    1  N   UNL     1     -11.426  16.441  63.901  1.00  0.00    -1.618 NA 
HETATM    2  C   UNL     1     -10.750  15.882  65.074  1.00  0.00    -0.404 C  
HETATM    3  H1  UNL     1     -10.900  17.228  63.520  1.00  0.00     0.000 HD 
HETATM    4  H2  UNL     1     -12.390  16.698  64.109  1.00  0.00     0.000 HD 
ENDROOT
BRANCH   2   5
HETATM    5  C   UNL     1     -11.533  14.711  65.642  1.00  0.00    -0.340 C  
HETATM    6  S   UNL     1     -11.782  13.474  64.379  1.00  0.00    -0.421 S  
HETATM    7  O   UNL     1     -12.618  12.416  65.269  1.00  0.00    -0.636 OA 
HETATM    8  O   UNL     1     -12.711  13.964  63.387  1.00  0.00    -0.806 OA 
HETATM    9  O   UNL     1     -10.518  12.868  64.032  1.00  0.00    -0.415 OA 
ENDBRANCH   2   5
TORSDOF 1
ENDMDL
MODEL        2
REMARK 921   NORMALIZED FREE ENERGY PREDICTED BY IDOCK:   -4.24 KCAL/MOL
REMARK 922        TOTAL FREE ENERGY PREDICTED BY IDOCK:   -4.72 KCAL/MOL
REMARK 923 INTER-LIGAND FREE ENERGY PREDICTED BY IDOCK:   -4.49 KCAL/MOL
REMARK 924 INTRA-LIGAND FREE ENERGY PREDICTED BY IDOCK:   -0.23 KCAL/MOL
REMARK 927      BINDING AFFINITY PREDICTED BY RF-SCORE:    0.00 PKD
ROOT
HETATM    1  N   UNL     1     -11.545  16.269  63.923  1.00  0.00    -1.573 NA 
HETATM    2  C   UNL     1     -11.152  15.422  65.050  1.00  0.00    -0.418 C  
HETATM    3  H1  UNL     1     -11.867  17.181  64.249  1.00  0.00     0.000 HD 
HETATM    4  H2  UNL     1     -12.240  15.813  63.333  1.00  0.00     0.000 HD 
ENDROOT
BRANCH   2   5
HETATM    5  C   UNL     1     -10.672  14.064  64.564  1.00  0.00    -0.336 C  
HETATM    6  S   UNL     1     -12.071  13.043  64.131  1.00  0.00    -0.439 S  
HETATM    7  O   UNL     1     -11.251  11.725  63.684  1.00  0.00    -0.396 OA 
HETATM    8  O   UNL     1     -12.792  12.664  65.324  1.00  0.00    -0.656 OA 
HETATM    9  O   UNL     1     -12.726  13.581  62.962  1.00  0.00    -0.668 OA 
ENDBRANCH   2   5
TORSDOF 1
ENDMDL
MODEL        3
REMARK 921   NORMALIZED FREE ENERGY PREDICTED BY IDOCK:   -4.24 KCAL/MOL
REMARK 922        TOTAL FREE ENERGY PREDICTED BY IDOCK:   -4.72 KCAL/MOL
REMARK 923 INTER-LIGAND FREE ENERGY PREDICTED BY IDOCK:   -4.52 KCAL/MOL
REMARK 924 INTRA-LIGAND FREE ENERGY PREDICTED BY IDOCK:   -0.20 KCAL/MOL
REMARK 927      BINDING AFFINITY PREDICTED BY RF-SCORE:    0.00 PKD
ROOT
HETATM    1  N   UNL     1     -11.387  16.355  63.987  1.00  0.00    -1.539 NA 
HETATM    2  C   UNL     1     -10.643  15.781  65.110  1.00  0.00    -0.411 C  
HETATM    3  H1  UNL     1     -11.308  17.372  63.981  1.00  0.00     0.000 HD 
HETATM    4  H2  UNL     1     -12.360  16.052  63.985  1.00  0.00     0.000 HD 
ENDROOT
BRANCH   2   5
HETATM    5  C   UNL     1     -10.760  14.266  65.119  1.00  0.00    -0.394 C  
HETATM    6  S   UNL     1     -12.230  13.774  66.006  1.00  0.00    -0.461 S  
HETATM    7  O   UNL     1     -12.058  12.175  65.845  1.00  0.00    -0.594 OA 
HETATM    8  O   UNL     1     -12.065  14.040  67.416  1.00  0.00    -0.402 OA 
HETATM    9  O   UNL     1     -13.404  14.174  65.268  1.00  0.00    -0.715 OA 
ENDBRANCH   2   5
TORSDOF 1
ENDMDL
MODEL        4
REMARK 921   NORMALIZED FREE ENERGY PREDICTED BY IDOCK:   -3.87 KCAL/MOL
REMARK 922        TOTAL FREE ENERGY PREDICTED BY IDOCK:   -4.33 KCAL/MOL
REMARK 923 INTER-LIGAND FREE ENERGY PREDICTED BY IDOCK:   -3.94 KCAL/MOL
REMARK 924 INTRA-LIGAND FREE ENERGY PREDICTED BY IDOCK:   -0.39 KCAL/MOL
REMARK 927      BINDING AFFINITY PREDICTED BY RF-SCORE:    0.00 PKD
ROOT
HETATM    1  N   UNL     1     -12.037  11.483  63.105  1.00  0.00    -0.933 NA 
HETATM    2  C   UNL     1     -10.617  11.715  63.375  1.00  0.00    -0.409 C  
HETATM    3  H1  UNL     1     -12.162  10.685  62.482  1.00  0.00     0.000 HD 
HETATM    4  H2  UNL     1     -12.494  12.319  62.743  1.00  0.00     0.000 HD 
ENDROOT
BRANCH   2   5
HETATM    5  C   UNL     1     -10.430  12.904  64.304  1.00  0.00    -0.407 C  
HETATM    6  S   UNL     1     -12.016  13.619  64.704  1.00  0.00    -0.429 S  
HETATM    7  O   UNL     1     -11.485  14.812  65.655  1.00  0.00    -0.348 OA 
HETATM    8  O   UNL     1     -12.570  14.271  63.540  1.00  0.00    -0.814 OA 
HETATM    9  O   UNL     1     -12.775  12.701  65.520  1.00  0.00    -0.597 OA 
ENDBRANCH   2   5
TORSDOF 1
ENDMDL
MODEL        5
REMARK 921   NORMALIZED FREE ENERGY PREDICTED BY IDOCK:   -3.77 KCAL/MOL
REMARK 922        TOTAL FREE ENERGY PREDICTED BY IDOCK:   -4.22 KCAL/MOL
REMARK 923 INTER-LIGAND FREE ENERGY PREDICTED BY IDOCK:   -3.96 KCAL/MOL
REMARK 924 INTRA-LIGAND FREE ENERGY PREDICTED BY IDOCK:   -0.25 KCAL/MOL
REMARK 927      BINDING AFFINITY PREDICTED BY RF-SCORE:    0.00 PKD
ROOT
HETATM    1  N   UNL     1     -10.813  11.022  63.155  1.00  0.00    -0.781 NA 
HETATM    2  C   UNL     1      -9.999  12.170  63.559  1.00  0.00    -0.314 C  
HETATM    3  H1  UNL     1     -10.226  10.270  62.794  1.00  0.00     0.000 HD 
HETATM    4  H2  UNL     1     -11.536  11.288  62.488  1.00  0.00     0.000 HD 
ENDROOT
BRANCH   2   5
HETATM    5  C   UNL     1     -10.873  13.291  64.096  1.00  0.00    -0.343 C  
HETATM    6  S   UNL     1     -12.382  12.616  64.770  1.00  0.00    -0.471 S  
HETATM    7  O   UNL     1     -13.060  14.010  65.227  1.00  0.00    -0.782 OA 
HETATM    8  O   UNL     1     -13.215  12.113  63.703  1.00  0.00    -0.770 OA 
HETATM    9  O   UNL     1     -12.089  11.850  65.958  1.00  0.00    -0.500 OA 
ENDBRANCH   2   5
TORSDOF 1
ENDMDL
MODEL        6
REMARK 921   NORMALIZED FREE ENERGY PREDICTED BY IDOCK:   -3.74 KCAL/MOL
REMARK 922        TOTAL FREE ENERGY PREDICTED BY IDOCK:   -4.18 KCAL/MOL
REMARK 923 INTER-LIGAND FREE ENERGY PREDICTED BY IDOCK:   -3.95 KCAL/MOL
REMARK 924 INTRA-LIGAND FREE ENERGY PREDICTED BY IDOCK:   -0.24 KCAL/MOL
REMARK 927      BINDING AFFINITY PREDICTED BY RF-SCORE:    0.00 PKD
ROOT
HETATM    1  N   UNL     1     -12.402  14.842  63.609  1.00  0.00    -1.067 NA 
HETATM    2  C   UNL     1     -11.611  15.308  64.750  1.00  0.00    -0.322 C  
HETATM    3  H1  UNL     1     -12.339  15.498  62.831  1.00  0.00     0.000 HD 
HETATM    4  H2  UNL     1     -13.370  14.659  63.871  1.00  0.00     0.000 HD 
ENDROOT
BRANCH   2   5
HETATM    5  C   UNL     1     -11.704  14.331  65.909  1.00  0.00    -0.372 C  
HETATM    6  S   UNL     1     -11.937  12.673  65.290  1.00  0.00    -0.454 S  
HETATM    7  O   UNL     1     -12.004  11.914  66.716  1.00  0.00    -0.613 OA 
HETATM    8  O   UNL     1     -13.257  12.541  64.720  1.00  0.00    -0.839 OA 
HETATM    9  O   UNL     1     -10.743  12.234  64.605  1.00  0.00    -0.282 OA 
ENDBRANCH   2   5
TORSDOF 1
ENDMDL
MODEL        7
REMARK 921   NORMALIZED FREE ENERGY PREDICTED BY IDOCK:   -3.71 KCAL/MOL
REMARK 922        TOTAL FREE ENERGY PREDICTED BY IDOCK:   -4.16 KCAL/MOL
REMARK 923 INTER-LIGAND FREE ENERGY PREDICTED BY IDOCK:   -3.82 KCAL/MOL
REMARK 924 INTRA-LIGAND FREE ENERGY PREDICTED BY IDOCK:   -0.34 KCAL/MOL
REMARK 927      BINDING AFFINITY PREDICTED BY RF-SCORE:    0.00 PKD
ROOT
HETATM    1  N   UNL     1     -11.747  11.827  66.882  1.00  0.00    -0.584 NA 
HETATM    2  C   UNL     1     -11.783  13.185  67.426  1.00  0.00    -0.370 C  
HETATM    3  H1  UNL     1     -11.511  11.151  67.608  1.00  0.00     0.000 HD 
HETATM    4  H2  UNL     1     -11.116  11.757  66.084  1.00  0.00     0.000 HD 
ENDROOT
BRANCH   2   5
HETATM    5  C   UNL     1     -12.133  14.193  66.343  1.00  0.00    -0.451 C  
HETATM    6  S   UNL     1     -12.173  13.387  64.751  1.00  0.00    -0.413 S  
HETATM    7  O   UNL     1     -12.548  14.681  63.859  1.00  0.00    -0.834 OA 
HETATM    8  O   UNL     1     -10.834  13.018  64.353  1.00  0.00    -0.344 OA 
HETATM    9  O   UNL     1     -13.285  12.467  64.695  1.00  0.00    -0.822 OA 
ENDBRANCH   2   5
TORSDOF 1
ENDMDL
MODEL        8
REMARK 921   NORMALIZED FREE ENERGY PREDICTED BY IDOCK:   -3.66 KCAL/MOL
REMARK 922        TOTAL FREE ENERGY PREDICTED BY IDOCK:   -4.10 KCAL/MOL
REMARK 923 INTER-LIGAND FREE ENERGY PREDICTED BY IDOCK:   -3.71 KCAL/MOL
REMARK 924 INTRA-LIGAND FREE ENERGY PREDICTED BY IDOCK:   -0.39 KCAL/MOL
REMARK 927      BINDING AFFINITY PREDICTED BY RF-SCORE:    0.00 PKD
ROOT
HETATM    1  N   UNL     1      -9.932  14.220  64.652  1.00  0.00    -0.636 NA 
HETATM    2  C   UNL     1     -10.552  13.935  65.947  1.00  0.00    -0.293 C  
HETATM    3  H1  UNL     1      -9.071  14.754  64.772  1.00  0.00     0.000 HD 
HETATM    4  H2  UNL     1     -10.580  14.688  64.019  1.00  0.00     0.000 HD 
ENDROOT
BRANCH   2   5
HETATM    5  C   UNL     1     -11.835  13.140  65.770  1.00  0.00    -0.397 C  
HETATM    6  S   UNL     1     -12.100  12.792  64.039  1.00  0.00    -0.483 S  
HETATM    7  O   UNL     1     -13.490  11.981  64.190  1.00  0.00    -0.672 OA 
HETATM    8  O   UNL     1     -12.437  14.009  63.338  1.00  0.00    -0.826 OA 
HETATM    9  O   UNL     1     -11.094  11.871  63.565  1.00  0.00    -0.401 OA 
ENDBRANCH   2   5
TORSDOF 1
ENDMDL
MODEL        9
REMARK 921   NORMALIZED FREE ENERGY PREDICTED BY IDOCK:   -3.60 KCAL/MOL
REMARK 922        TOTAL FREE ENERGY PREDICTED BY IDOCK:   -4.03 KCAL/MOL
REMARK 923 INTER-LIGAND FREE ENERGY PREDICTED BY IDOCK:   -3.80 KCAL/MOL
REMARK 924 INTRA-LIGAND FREE ENERGY PREDICTED BY IDOCK:   -0.24 KCAL/MOL
REMARK 927      BINDING AFFINITY PREDICTED BY RF-SCORE:    0.00 PKD
ROOT
HETATM    1  N   UNL     1     -11.174  11.400  63.031  1.00  0.00    -0.844 NA 
HETATM    2  C   UNL     1     -12.525  11.875  63.334  1.00  0.00    -0.463 C  
HETATM    3  H1  UNL     1     -11.130  11.002  62.093  1.00  0.00     0.000 HD 
HETATM    4  H2  UNL     1     -10.838  10.744  63.735  1.00  0.00     0.000 HD 
ENDROOT
BRANCH   2   5
HETATM    5  C   UNL     1     -12.591  12.468  64.731  1.00  0.00    -0.413 C  
HETATM    6  S   UNL     1     -11.843  14.089  64.740  1.00  0.00    -0.427 S  
HETATM    7  O   UNL     1     -12.059  14.422  66.306  1.00  0.00    -0.409 OA 
HETATM    8  O   UNL     1     -10.415  13.973  64.562  1.00  0.00    -0.424 OA 
HETATM    9  O   UNL     1     -12.654  15.006  63.972  1.00  0.00    -0.817 OA 
ENDBRANCH   2   5
TORSDOF 1
ENDMDL
MODEL       10
REMARK 921   NORMALIZED FREE ENERGY PREDICTED BY IDOCK:   -3.58 KCAL/MOL
REMARK 922        TOTAL FREE ENERGY PREDICTED BY IDOCK:   -4.01 KCAL/MOL
REMARK 923 INTER-LIGAND FREE ENERGY PREDICTED BY IDOCK:   -3.66 KCAL/MOL
REMARK 924 INTRA-LIGAND FREE ENERGY PREDICTED BY IDOCK:   -0.36 KCAL/MOL
REMARK 927      BINDING AFFINITY PREDICTED BY RF-SCORE:    0.00 PKD
ROOT
HETATM    1  N   UNL     1     -12.489  13.499  63.132  1.00  0.00    -0.985 NA 
HETATM    2  C   UNL     1     -11.953  12.248  63.672  1.00  0.00    -0.543 C  
HETATM    3  H1  UNL     1     -12.576  13.448  62.117  1.00  0.00     0.000 HD 
HETATM    4  H2  UNL     1     -11.934  14.303  63.423  1.00  0.00     0.000 HD 
ENDROOT
BRANCH   2   5
HETATM    5  C   UNL     1     -11.823  12.323  65.184  1.00  0.00    -0.350 C  
HETATM    6  S   UNL     1     -12.235  13.966  65.750  1.00  0.00    -0.485 S  
HETATM    7  O   UNL     1     -11.996  13.720  67.329  1.00  0.00    -0.385 OA 
HETATM    8  O   UNL     1     -11.208  14.897  65.344  1.00  0.00    -0.338 OA 
HETATM    9  O   UNL     1     -13.642  14.216  65.544  1.00  0.00    -0.568 OA 
ENDBRANCH   2   5
TORSDOF 1
ENDMDL
MODEL       11
REMARK 921   NORMALIZED FREE ENERGY PREDICTED BY IDOCK:   -3.52 KCAL/MOL
REMARK 922        TOTAL FREE ENERGY PREDICTED BY IDOCK:   -3.95 KCAL/MOL
REMARK 923 INTER-LIGAND FREE ENERGY PREDICTED BY IDOCK:   -3.72 KCAL/MOL
REMARK 924 INTRA-LIGAND FREE ENERGY PREDICTED BY IDOCK:   -0.23 KCAL/MOL
REMARK 927      BINDING AFFINITY PREDICTED BY RF-SCORE:    0.00 PKD
ROOT
HETATM    1  N   UNL     1     -12.523  14.179  63.448  1.00  0.00    -1.116 NA 
HETATM    2  C   UNL     1     -11.737  13.604  64.541  1.00  0.00    -0.400 C  
HETATM    3  H1  UNL     1     -12.492  13.579  62.624  1.00  0.00     0.000 HD 
HETATM    4  H2  UNL     1     -12.227  15.131  63.232  1.00  0.00     0.000 HD 
ENDROOT
BRANCH   2   5
HETATM    5  C   UNL     1     -11.783  14.498  65.769  1.00  0.00    -0.344 C  
HETATM    6  S   UNL     1     -10.655  15.867  65.567  1.00  0.00    -0.396 S  
HETATM    7  O   UNL     1     -10.927  16.587  66.988  1.00  0.00    -0.177 OA 
HETATM    8  O   UNL     1      -9.291  15.394  65.628  1.00  0.00    -0.296 OA 
HETATM    9  O   UNL     1     -11.131  16.744  64.523  1.00  0.00    -0.989 OA 
ENDBRANCH   2   5
TORSDOF 1
ENDMDL
MODEL       12
REMARK 921   NORMALIZED FREE ENERGY PREDICTED BY IDOCK:   -3.51 KCAL/MOL
REMARK 922        TOTAL FREE ENERGY PREDICTED BY IDOCK:   -3.94 KCAL/MOL
REMARK 923 INTER-LIGAND FREE ENERGY PREDICTED BY IDOCK:   -3.71 KCAL/MOL
REMARK 924 INTRA-LIGAND FREE ENERGY PREDICTED BY IDOCK:   -0.23 KCAL/MOL
REMARK 927      BINDING AFFINITY PREDICTED BY RF-SCORE:    0.00 PKD
ROOT
HETATM    1  N   UNL     1      -9.615  12.316  63.503  1.00  0.00    -0.674 NA 
HETATM    2  C   UNL     1     -10.863  11.550  63.474  1.00  0.00    -0.398 C  
HETATM    3  H1  UNL     1      -8.811  11.705  63.363  1.00  0.00     0.000 HD 
HETATM    4  H2  UNL     1      -9.528  12.863  64.359  1.00  0.00     0.000 HD 
ENDROOT
BRANCH   2   5
HETATM    5  C   UNL     1     -12.061  12.460  63.684  1.00  0.00    -0.556 C  
HETATM    6  S   UNL     1     -11.992  13.194  65.309  1.00  0.00    -0.426 S  
HETATM    7  O   UNL     1     -13.355  14.057  65.219  1.00  0.00    -0.741 OA 
HETATM    8  O   UNL     1     -12.240  12.186  66.315  1.00  0.00    -0.604 OA 
HETATM    9  O   UNL     1     -10.883  14.115  65.384  1.00  0.00    -0.308 OA 
ENDBRANCH   2   5
TORSDOF 1
ENDMDL
MODEL       13
REMARK 921   NORMALIZED FREE ENERGY PREDICTED BY IDOCK:   -3.45 KCAL/MOL
REMARK 922        TOTAL FREE ENERGY PREDICTED BY IDOCK:   -3.88 KCAL/MOL
REMARK 923 INTER-LIGAND FREE ENERGY PREDICTED BY IDOCK:   -3.49 KCAL/MOL
REMARK 924 INTRA-LIGAND FREE ENERGY PREDICTED BY IDOCK:   -0.39 KCAL/MOL
REMARK 927      BINDING AFFINITY PREDICTED BY RF-SCORE:    0.00 PKD
ROOT
HETATM    1  N   UNL     1     -11.349  11.505  66.565  1.00  0.00    -0.376 NA 
HETATM    2  C   UNL     1     -10.221  11.959  65.749  1.00  0.00    -0.242 C  
HETATM    3  H1  UNL     1     -11.063  10.754  67.194  1.00  0.00     0.000 HD 
HETATM    4  H2  UNL     1     -12.145  11.233  65.990  1.00  0.00     0.000 HD 
ENDROOT
BRANCH   2   5
HETATM    5  C   UNL     1     -10.647  13.078  64.813  1.00  0.00    -0.362 C  
HETATM    6  S   UNL     1     -12.378  13.443  65.047  1.00  0.00    -0.438 S  
HETATM    7  O   UNL     1     -12.506  14.616  63.943  1.00  0.00    -0.813 OA 
HETATM    8  O   UNL     1     -13.183  12.352  64.547  1.00  0.00    -0.834 OA 
HETATM    9  O   UNL     1     -12.582  14.031  66.350  1.00  0.00    -0.428 OA 
ENDBRANCH   2   5
TORSDOF 1
ENDMDL
MODEL       14
REMARK 921   NORMALIZED FREE ENERGY PREDICTED BY IDOCK:   -3.42 KCAL/MOL
REMARK 922        TOTAL FREE ENERGY PREDICTED BY IDOCK:   -3.85 KCAL/MOL
REMARK 923 INTER-LIGAND FREE ENERGY PREDICTED BY IDOCK:   -3.84 KCAL/MOL
REMARK 924 INTRA-LIGAND FREE ENERGY PREDICTED BY IDOCK:   -0.01 KCAL/MOL
REMARK 927      BINDING AFFINITY PREDICTED BY RF-SCORE:    0.00 PKD
ROOT
HETATM    1  N   UNL     1     -11.532  16.409  63.878  1.00  0.00    -1.618 NA 
HETATM    2  C   UNL     1     -10.896  15.584  64.906  1.00  0.00    -0.427 C  
HETATM    3  H1  UNL     1     -10.939  17.203  63.632  1.00  0.00     0.000 HD 
HETATM    4  H2  UNL     1     -12.465  16.708  64.157  1.00  0.00     0.000 HD 
ENDROOT
BRANCH   2   5
HETATM    5  C   UNL     1     -11.778  14.401  65.272  1.00  0.00    -0.364 C  
HETATM    6  S   UNL     1     -10.918  13.329  66.411  1.00  0.00    -0.292 S  
HETATM    7  O   UNL     1     -12.077  12.216  66.583  1.00  0.00    -0.622 OA 
HETATM    8  O   UNL     1      -9.835  12.657  65.730  1.00  0.00    -0.264 OA 
HETATM    9  O   UNL     1     -10.747  13.997  67.679  1.00  0.00    -0.253 OA 
ENDBRANCH   2   5
TORSDOF 1
ENDMDL
MODEL       15
REMARK 921   NORMALIZED FREE ENERGY PREDICTED BY IDOCK:   -3.38 KCAL/MOL
REMARK 922        TOTAL FREE ENERGY PREDICTED BY IDOCK:   -3.81 KCAL/MOL
REMARK 923 INTER-LIGAND FREE ENERGY PREDICTED BY IDOCK:   -3.41 KCAL/MOL
REMARK 924 INTRA-LIGAND FREE ENERGY PREDICTED BY IDOCK:   -0.39 KCAL/MOL
REMARK 927      BINDING AFFINITY PREDICTED BY RF-SCORE:    0.00 PKD
ROOT
HETATM    1  N   UNL     1     -12.099  14.366  67.923  1.00  0.00    -0.582 NA 
HETATM    2  C   UNL     1     -10.936  14.948  67.250  1.00  0.00    -0.323 C  
HETATM    3  H1  UNL     1     -12.186  14.727  68.873  1.00  0.00     0.000 HD 
HETATM    4  H2  UNL     1     -12.072  13.347  67.908  1.00  0.00     0.000 HD 
ENDROOT
BRANCH   2   5
HETATM    5  C   UNL     1     -10.804  14.410  65.835  1.00  0.00    -0.304 C  
HETATM    6  S   UNL     1     -12.192  13.354  65.454  1.00  0.00    -0.481 S  
HETATM    7  O   UNL     1     -11.758  12.957  63.949  1.00  0.00    -0.392 OA 
HETATM    8  O   UNL     1     -12.104  12.131  66.216  1.00  0.00    -0.626 OA 
HETATM    9  O   UNL     1     -13.400  14.142  65.378  1.00  0.00    -0.705 OA 
ENDBRANCH   2   5
TORSDOF 1
ENDMDL
MODEL       16
REMARK 921   NORMALIZED FREE ENERGY PREDICTED BY IDOCK:   -3.38 KCAL/MOL
REMARK 922        TOTAL FREE ENERGY PREDICTED BY IDOCK:   -3.81 KCAL/MOL
REMARK 923 INTER-LIGAND FREE ENERGY PREDICTED BY IDOCK:   -3.58 KCAL/MOL
REMARK 924 INTRA-LIGAND FREE ENERGY PREDICTED BY IDOCK:   -0.23 KCAL/MOL
REMARK 927      BINDING AFFINITY PREDICTED BY RF-SCORE:    0.00 PKD
ROOT
HETATM    1  N   UNL     1     -12.133  16.046  63.736  1.00  0.00    -1.255 NA 
HETATM    2  C   UNL     1     -12.272  14.715  64.331  1.00  0.00    -0.452 C  
HETATM    3  H1  UNL     1     -13.015  16.354  63.327  1.00  0.00     0.000 HD 
HETATM    4  H2  UNL     1     -11.372  16.078  63.058  1.00  0.00     0.000 HD 
ENDROOT
BRANCH   2   5
HETATM    5  C   UNL     1     -10.958  14.255  64.939  1.00  0.00    -0.404 C  
HETATM    6  S   UNL     1     -10.387  15.452  66.133  1.00  0.00    -0.333 S  
HETATM    7  O   UNL     1      -9.025  14.698  66.566  1.00  0.00    -0.255 OA 
HETATM    8  O   UNL     1      -9.964  16.657  65.458  1.00  0.00    -0.552 OA 
HETATM    9  O   UNL     1     -11.272  15.466  67.274  1.00  0.00    -0.327 OA 
ENDBRANCH   2   5
TORSDOF 1
ENDMDL
MODEL       17
REMARK 921   NORMALIZED FREE ENERGY PREDICTED BY IDOCK:   -3.37 KCAL/MOL
REMARK 922        TOTAL FREE ENERGY PREDICTED BY IDOCK:   -3.80 KCAL/MOL
REMARK 923 INTER-LIGAND FREE ENERGY PREDICTED BY IDOCK:   -3.79 KCAL/MOL
REMARK 924 INTRA-LIGAND FREE ENERGY PREDICTED BY IDOCK:   -0.01 KCAL/MOL
REMARK 927      BINDING AFFINITY PREDICTED BY RF-SCORE:    0.00 PKD
ROOT
HETATM    1  N   UNL     1     -12.262  14.225  68.192  1.00  0.00    -0.580 NA 
HETATM    2  C   UNL     1     -11.787  14.273  66.808  1.00  0.00    -0.426 C  
HETATM    3  H1  UNL     1     -11.771  14.909  68.768  1.00  0.00     0.000 HD 
HETATM    4  H2  UNL     1     -12.194  13.286  68.582  1.00  0.00     0.000 HD 
ENDROOT
BRANCH   2   5
HETATM    5  C   UNL     1     -12.518  13.254  65.949  1.00  0.00    -0.368 C  
HETATM    6  S   UNL     1     -12.046  13.449  64.239  1.00  0.00    -0.420 S  
HETATM    7  O   UNL     1     -12.969  12.275  63.622  1.00  0.00    -0.777 OA 
HETATM    8  O   UNL     1     -12.589  14.681  63.716  1.00  0.00    -0.820 OA 
HETATM    9  O   UNL     1     -10.664  13.069  64.066  1.00  0.00    -0.400 OA 
ENDBRANCH   2   5
TORSDOF 1
ENDMDL
MODEL       18
REMARK 921   NORMALIZED FREE ENERGY PREDICTED BY IDOCK:   -3.34 KCAL/MOL
REMARK 922        TOTAL FREE ENERGY PREDICTED BY IDOCK:   -3.76 KCAL/MOL
REMARK 923 INTER-LIGAND FREE ENERGY PREDICTED BY IDOCK:   -3.51 KCAL/MOL
REMARK 924 INTRA-LIGAND FREE ENERGY PREDICTED BY IDOCK:   -0.24 KCAL/MOL
REMARK 927      BINDING AFFINITY PREDICTED BY RF-SCORE:    0.00 PKD
ROOT
HETATM    1  N   UNL     1     -11.532  16.434  63.855  1.00  0.00    -1.618 NA 
HETATM    2  C   UNL     1     -11.585  15.313  64.795  1.00  0.00    -0.322 C  
HETATM    3  H1  UNL     1     -12.392  16.490  63.309  1.00  0.00     0.000 HD 
HETATM    4  H2  UNL     1     -10.708  16.387  63.257  1.00  0.00     0.000 HD 
ENDROOT
BRANCH   2   5
HETATM    5  C   UNL     1     -10.305  15.228  65.609  1.00  0.00    -0.366 C  
HETATM    6  S   UNL     1     -10.206  16.612  66.733  1.00  0.00    -0.303 S  
HETATM    7  O   UNL     1      -8.786  16.242  67.411  1.00  0.00    -0.183 OA 
HETATM    8  O   UNL     1      -9.975  17.831  65.994  1.00  0.00    -0.482 OA 
HETATM    9  O   UNL     1     -11.229  16.494  67.745  1.00  0.00    -0.239 OA 
ENDBRANCH   2   5
TORSDOF 1
ENDMDL
MODEL       19
REMARK 921   NORMALIZED FREE ENERGY PREDICTED BY IDOCK:   -3.32 KCAL/MOL
REMARK 922        TOTAL FREE ENERGY PREDICTED BY IDOCK:   -3.74 KCAL/MOL
REMARK 923 INTER-LIGAND FREE ENERGY PREDICTED BY IDOCK:   -3.51 KCAL/MOL
REMARK 924 INTRA-LIGAND FREE ENERGY PREDICTED BY IDOCK:   -0.23 KCAL/MOL
REMARK 927      BINDING AFFINITY PREDICTED BY RF-SCORE:    0.00 PKD
ROOT
HETATM    1  N   UNL     1     -11.240  11.419  62.972  1.00  0.00    -0.844 NA 
HETATM    2  C   UNL     1     -10.216  12.015  63.834  1.00  0.00    -0.398 C  
HETATM    3  H1  UNL     1     -10.922  11.382  62.004  1.00  0.00     0.000 HD 
HETATM    4  H2  UNL     1     -12.133  11.903  63.058  1.00  0.00     0.000 HD 
ENDROOT
BRANCH   2   5
HETATM    5  C   UNL     1     -10.689  12.071  65.277  1.00  0.00    -0.288 C  
HETATM    6  S   UNL     1     -12.120  13.130  65.408  1.00  0.00    -0.459 S  
HETATM    7  O   UNL     1     -12.354  12.986  67.000  1.00  0.00    -0.328 OA 
HETATM    8  O   UNL     1     -11.734  14.506  65.197  1.00  0.00    -0.354 OA 
HETATM    9  O   UNL     1     -13.243  12.523  64.733  1.00  0.00    -0.839 OA 
ENDBRANCH   2   5
TORSDOF 1
ENDMDL
MODEL       20
REMARK 921   NORMALIZED FREE ENERGY PREDICTED BY IDOCK:   -3.27 KCAL/MOL
REMARK 922        TOTAL FREE ENERGY PREDICTED BY IDOCK:   -3.69 KCAL/MOL
REMARK 923 INTER-LIGAND FREE ENERGY PREDICTED BY IDOCK:   -3.45 KCAL/MOL
REMARK 924 INTRA-LIGAND FREE ENERGY PREDICTED BY IDOCK:   -0.24 KCAL/MOL
REMARK 927      BINDING AFFINITY PREDICTED BY RF-SCORE:    0.00 PKD
ROOT
HETATM    1  N   UNL     1      -9.333  12.448  65.655  1.00  0.00    -0.441 NA 
HETATM    2  C   UNL     1     -10.293  13.417  66.188  1.00  0.00    -0.295 C  
HETATM    3  H1  UNL     1      -8.889  11.924  66.409  1.00  0.00     0.000 HD 
HETATM    4  H2  UNL     1      -8.645  12.894  65.049  1.00  0.00     0.000 HD 
ENDROOT
BRANCH   2   5
HETATM    5  C   UNL     1     -10.954  14.197  65.064  1.00  0.00    -0.384 C  
HETATM    6  S   UNL     1     -11.938  13.100  64.057  1.00  0.00    -0.479 S  
HETATM    7  O   UNL     1     -12.472  14.195  62.996  1.00  0.00    -0.571 OA 
HETATM    8  O   UNL     1     -11.076  12.220  63.303  1.00  0.00    -0.427 OA 
HETATM    9  O   UNL     1     -13.070  12.622  64.815  1.00  0.00    -0.852 OA 
ENDBRANCH   2   5
TORSDOF 1
ENDMDL
MODEL       21
REMARK 921   NORMALIZED FREE ENERGY PREDICTED BY IDOCK:   -3.23 KCAL/MOL
REMARK 922        TOTAL FREE ENERGY PREDICTED BY IDOCK:   -3.65 KCAL/MOL
REMARK 923 INTER-LIGAND FREE ENERGY PREDICTED BY IDOCK:   -3.26 KCAL/MOL
REMARK 924 INTRA-LIGAND FREE ENERGY PREDICTED BY IDOCK:   -0.39 KCAL/MOL
REMARK 927      BINDING AFFINITY PREDICTED BY RF-SCORE:    0.00 PKD
ROOT
HETATM    1  N   UNL     1     -12.297  15.151  69.242  1.00  0.00    -0.588 NA 
HETATM    2  C   UNL     1     -12.148  13.743  69.615  1.00  0.00    -0.336 C  
HETATM    3  H1  UNL     1     -12.037  15.297  68.266  1.00  0.00     0.000 HD 
HETATM    4  H2  UNL     1     -11.775  15.764  69.867  1.00  0.00     0.000 HD 
ENDROOT
BRANCH   2   5
HETATM    5  C   UNL     1     -12.535  13.524  71.068  1.00  0.00    -0.369 C  
HETATM    6  S   UNL     1     -13.022  15.074  71.808  1.00  0.00    -0.382 S  
HETATM    7  O   UNL     1     -13.347  14.517  73.289  1.00  0.00    -0.611 OA 
HETATM    8  O   UNL     1     -11.869  15.930  71.962  1.00  0.00    -0.428 OA 
HETATM    9  O   UNL     1     -14.260  15.530  71.219  1.00  0.00    -0.544 OA 
ENDBRANCH   2   5
TORSDOF 1
ENDMDL
MODEL       22
REMARK 921   NORMALIZED FREE ENERGY PREDICTED BY IDOCK:   -3.23 KCAL/MOL
REMARK 922        TOTAL FREE ENERGY PREDICTED BY IDOCK:   -3.65 KCAL/MOL
REMARK 923 INTER-LIGAND FREE ENERGY PREDICTED BY IDOCK:   -3.27 KCAL/MOL
REMARK 924 INTRA-LIGAND FREE ENERGY PREDICTED BY IDOCK:   -0.38 KCAL/MOL
REMARK 927      BINDING AFFINITY PREDICTED BY RF-SCORE:    0.00 PKD
ROOT
HETATM    1  N   UNL     1     -10.067  19.998  65.724  1.00  0.00    -0.478 NA 
HETATM    2  C   UNL     1     -10.451  19.729  67.111  1.00  0.00    -0.463 C  
HETATM    3  H1  UNL     1      -9.933  20.998  65.573  1.00  0.00     0.000 HD 
HETATM    4  H2  UNL     1     -10.735  19.603  65.064  1.00  0.00     0.000 HD 
ENDROOT
BRANCH   2   5
HETATM    5  C   UNL     1     -10.650  18.239  67.337  1.00  0.00    -0.401 C  
HETATM    6  S   UNL     1     -10.138  17.330  65.889  1.00  0.00    -0.149 S  
HETATM    7  O   UNL     1     -10.474  15.845  66.432  1.00  0.00    -0.296 OA 
HETATM    8  O   UNL     1     -11.065  17.564  64.807  1.00  0.00    -0.959 OA 
HETATM    9  O   UNL     1      -8.707  17.433  65.727  1.00  0.00    -0.522 OA 
ENDBRANCH   2   5
TORSDOF 1
ENDMDL
MODEL       23
REMARK 921   NORMALIZED FREE ENERGY PREDICTED BY IDOCK:   -3.22 KCAL/MOL
REMARK 922        TOTAL FREE ENERGY PREDICTED BY IDOCK:   -3.64 KCAL/MOL
REMARK 923 INTER-LIGAND FREE ENERGY PREDICTED BY IDOCK:   -3.63 KCAL/MOL
REMARK 924 INTRA-LIGAND FREE ENERGY PREDICTED BY IDOCK:   -0.01 KCAL/MOL
REMARK 927      BINDING AFFINITY PREDICTED BY RF-SCORE:    0.00 PKD
ROOT
HETATM    1  N   UNL     1      -8.978  13.136  66.355  1.00  0.00    -0.452 NA 
HETATM    2  C   UNL     1      -9.936  14.111  65.832  1.00  0.00    -0.311 C  
HETATM    3  H1  UNL     1      -8.514  13.495  67.190  1.00  0.00     0.000 HD 
HETATM    4  H2  UNL     1      -8.306  12.849  65.645  1.00  0.00     0.000 HD 
ENDROOT
BRANCH   2   5
HETATM    5  C   UNL     1     -10.627  13.577  64.588  1.00  0.00    -0.427 C  
HETATM    6  S   UNL     1     -12.184  14.417  64.348  1.00  0.00    -0.392 S  
HETATM    7  O   UNL     1     -12.647  13.641  63.008  1.00  0.00    -0.729 OA 
HETATM    8  O   UNL     1     -13.122  14.016  65.370  1.00  0.00    -0.763 OA 
HETATM    9  O   UNL     1     -11.946  15.799  64.004  1.00  0.00    -0.554 OA 
ENDBRANCH   2   5
TORSDOF 1
ENDMDL
MODEL       24
REMARK 921   NORMALIZED FREE ENERGY PREDICTED BY IDOCK:   -3.22 KCAL/MOL
REMARK 922        TOTAL FREE ENERGY PREDICTED BY IDOCK:   -3.63 KCAL/MOL
REMARK 923 INTER-LIGAND FREE ENERGY PREDICTED BY IDOCK:   -3.26 KCAL/MOL
REMARK 924 INTRA-LIGAND FREE ENERGY PREDICTED BY IDOCK:   -0.37 KCAL/MOL
REMARK 927      BINDING AFFINITY PREDICTED BY RF-SCORE:    0.00 PKD
ROOT
HETATM    1  N   UNL     1     -10.800  13.613  66.995  1.00  0.00    -0.284 NA 
HETATM    2  C   UNL     1     -10.197  14.659  66.167  1.00  0.00    -0.301 C  
HETATM    3  H1  UNL     1     -10.434  13.648  67.947  1.00  0.00     0.000 HD 
HETATM    4  H2  UNL     1     -10.684  12.690  66.580  1.00  0.00     0.000 HD 
ENDROOT
BRANCH   2   5
HETATM    5  C   UNL     1     -10.742  14.608  64.749  1.00  0.00    -0.377 C  
HETATM    6  S   UNL     1     -12.105  13.458  64.662  1.00  0.00    -0.423 S  
HETATM    7  O   UNL     1     -12.433  13.626  63.088  1.00  0.00    -0.786 OA 
HETATM    8  O   UNL     1     -11.619  12.106  64.813  1.00  0.00    -0.331 OA 
HETATM    9  O   UNL     1     -13.228  13.972  65.410  1.00  0.00    -0.761 OA 
ENDBRANCH   2   5
TORSDOF 1
ENDMDL
MODEL       25
REMARK 921   NORMALIZED FREE ENERGY PREDICTED BY IDOCK:   -3.20 KCAL/MOL
REMARK 922        TOTAL FREE ENERGY PREDICTED BY IDOCK:   -3.62 KCAL/MOL
REMARK 923 INTER-LIGAND FREE ENERGY PREDICTED BY IDOCK:   -3.23 KCAL/MOL
REMARK 924 INTRA-LIGAND FREE ENERGY PREDICTED BY IDOCK:   -0.39 KCAL/MOL
REMARK 927      BINDING AFFINITY PREDICTED BY RF-SCORE:    0.00 PKD
ROOT
HETATM    1  N   UNL     1     -13.804   8.849  73.119  1.00  0.00    -1.176 NA 
HETATM    2  C   UNL     1     -13.409   9.913  72.195  1.00  0.00    -0.399 C  
HETATM    3  H1  UNL     1     -14.642   9.111  73.638  1.00  0.00     0.000 HD 
HETATM    4  H2  UNL     1     -13.041   8.588  73.742  1.00  0.00     0.000 HD 
ENDROOT
BRANCH   2   5
HETATM    5  C   UNL     1     -12.160   9.523  71.421  1.00  0.00    -0.378 C  
HETATM    6  S   UNL     1     -11.711   7.838  71.802  1.00  0.00    -0.299 S  
HETATM    7  O   UNL     1     -10.397   7.745  70.866  1.00  0.00    -0.200 OA 
HETATM    8  O   UNL     1     -11.224   7.753  73.160  1.00  0.00    -0.402 OA 
HETATM    9  O   UNL     1     -12.704   6.934  71.271  1.00  0.00    -0.370 OA 
ENDBRANCH   2   5
TORSDOF 1
ENDMDL
MODEL       26
REMARK 921   NORMALIZED FREE ENERGY PREDICTED BY IDOCK:   -3.13 KCAL/MOL
REMARK 922        TOTAL FREE ENERGY PREDICTED BY IDOCK:   -3.54 KCAL/MOL
REMARK 923 INTER-LIGAND FREE ENERGY PREDICTED BY IDOCK:   -3.19 KCAL/MOL
REMARK 924 INTRA-LIGAND FREE ENERGY PREDICTED BY IDOCK:   -0.35 KCAL/MOL
REMARK 927      BINDING AFFINITY PREDICTED BY RF-SCORE:    0.00 PKD
ROOT
HETATM    1  N   UNL     1     -13.943  13.479  72.670  1.00  0.00    -0.754 NA 
HETATM    2  C   UNL     1     -13.069  12.700  71.791  1.00  0.00    -0.360 C  
HETATM    3  H1  UNL     1     -14.465  12.867  73.298  1.00  0.00     0.000 HD 
HETATM    4  H2  UNL     1     -14.562  14.092  72.141  1.00  0.00     0.000 HD 
ENDROOT
BRANCH   2   5
HETATM    5  C   UNL     1     -12.292  13.612  70.855  1.00  0.00    -0.371 C  
HETATM    6  S   UNL     1     -12.461  15.310  71.380  1.00  0.00    -0.403 S  
HETATM    7  O   UNL     1     -11.564  15.988  70.219  1.00  0.00    -0.335 OA 
HETATM    8  O   UNL     1     -13.811  15.766  71.140  1.00  0.00    -0.537 OA 
HETATM    9  O   UNL     1     -11.784  15.503  72.640  1.00  0.00    -0.433 OA 
ENDBRANCH   2   5
TORSDOF 1
ENDMDL
MODEL       27
REMARK 921   NORMALIZED FREE ENERGY PREDICTED BY IDOCK:   -3.11 KCAL/MOL
REMARK 922        TOTAL FREE ENERGY PREDICTED BY IDOCK:   -3.52 KCAL/MOL
REMARK 923 INTER-LIGAND FREE ENERGY PREDICTED BY IDOCK:   -3.20 KCAL/MOL
REMARK 924 INTRA-LIGAND FREE ENERGY PREDICTED BY IDOCK:   -0.32 KCAL/MOL
REMARK 927      BINDING AFFINITY PREDICTED BY RF-SCORE:    0.00 PKD
ROOT
HETATM    1  N   UNL     1     -13.635  15.906  73.631  1.00  0.00    -0.766 NA 
HETATM    2  C   UNL     1     -12.192  15.794  73.408  1.00  0.00    -0.517 C  
HETATM    3  H1  UNL     1     -13.829  16.404  74.501  1.00  0.00     0.000 HD 
HETATM    4  H2  UNL     1     -14.092  14.996  73.608  1.00  0.00     0.000 HD 
ENDROOT
BRANCH   2   5
HETATM    5  C   UNL     1     -11.902  15.053  72.113  1.00  0.00    -0.363 C  
HETATM    6  S   UNL     1     -13.406  14.337  71.471  1.00  0.00    -0.357 S  
HETATM    7  O   UNL     1     -12.774  13.643  70.156  1.00  0.00    -0.205 OA 
HETATM    8  O   UNL     1     -13.831  13.245  72.317  1.00  0.00    -0.549 OA 
HETATM    9  O   UNL     1     -14.301  15.384  71.038  1.00  0.00    -0.447 OA 
ENDBRANCH   2   5
TORSDOF 1
ENDMDL
MODEL       28
REMARK 921   NORMALIZED FREE ENERGY PREDICTED BY IDOCK:   -3.11 KCAL/MOL
REMARK 922        TOTAL FREE ENERGY PREDICTED BY IDOCK:   -3.52 KCAL/MOL
REMARK 923 INTER-LIGAND FREE ENERGY PREDICTED BY IDOCK:   -3.13 KCAL/MOL
REMARK 924 INTRA-LIGAND FREE ENERGY PREDICTED BY IDOCK:   -0.39 KCAL/MOL
REMARK 927      BINDING AFFINITY PREDICTED BY RF-SCORE:    0.00 PKD
ROOT
HETATM    1  N   UNL     1     -10.979  14.385  64.273  1.00  0.00    -0.593 NA 
HETATM    2  C   UNL     1     -11.922  13.372  63.796  1.00  0.00    -0.461 C  
HETATM    3  H1  UNL     1     -10.751  15.046  63.530  1.00  0.00     0.000 HD 
HETATM    4  H2  UNL     1     -10.141  13.962  64.671  1.00  0.00     0.000 HD 
ENDROOT
BRANCH   2   5
HETATM    5  C   UNL     1     -12.262  12.386  64.901  1.00  0.00    -0.418 C  
HETATM    6  S   UNL     1     -11.411  12.839  66.404  1.00  0.00    -0.378 S  
HETATM    7  O   UNL     1     -11.957  11.637  67.335  1.00  0.00    -0.621 OA 
HETATM    8  O   UNL     1      -9.994  12.602  66.257  1.00  0.00    -0.248 OA 
HETATM    9  O   UNL     1     -11.946  14.079  66.914  1.00  0.00    -0.407 OA 
ENDBRANCH   2   5
TORSDOF 1
ENDMDL
MODEL       29
REMARK 921   NORMALIZED FREE ENERGY PREDICTED BY IDOCK:   -3.07 KCAL/MOL
REMARK 922        TOTAL FREE ENERGY PREDICTED BY IDOCK:   -3.48 KCAL/MOL
REMARK 923 INTER-LIGAND FREE ENERGY PREDICTED BY IDOCK:   -3.29 KCAL/MOL
REMARK 924 INTRA-LIGAND FREE ENERGY PREDICTED BY IDOCK:   -0.19 KCAL/MOL
REMARK 927      BINDING AFFINITY PREDICTED BY RF-SCORE:    0.00 PKD
ROOT
HETATM    1  N   UNL     1      -9.200  13.594  66.015  1.00  0.00    -0.491 NA 
HETATM    2  C   UNL     1     -10.239  14.500  66.509  1.00  0.00    -0.279 C  
HETATM    3  H1  UNL     1      -8.319  13.751  66.504  1.00  0.00     0.000 HD 
HETATM    4  H2  UNL     1      -9.088  13.665  65.004  1.00  0.00     0.000 HD 
ENDROOT
BRANCH   2   5
HETATM    5  C   UNL     1     -11.552  14.266  65.781  1.00  0.00    -0.346 C  
HETATM    6  S   UNL     1     -11.801  12.518  65.520  1.00  0.00    -0.432 S  
HETATM    7  O   UNL     1     -13.217  12.611  64.748  1.00  0.00    -0.846 OA 
HETATM    8  O   UNL     1     -10.859  12.027  64.542  1.00  0.00    -0.285 OA 
HETATM    9  O   UNL     1     -12.025  11.861  66.787  1.00  0.00    -0.613 OA 
ENDBRANCH   2   5
TORSDOF 1
ENDMDL
MODEL       30
REMARK 921   NORMALIZED FREE ENERGY PREDICTED BY IDOCK:   -3.05 KCAL/MOL
REMARK 922        TOTAL FREE ENERGY PREDICTED BY IDOCK:   -3.46 KCAL/MOL
REMARK 923 INTER-LIGAND FREE ENERGY PREDICTED BY IDOCK:   -3.24 KCAL/MOL
REMARK 924 INTRA-LIGAND FREE ENERGY PREDICTED BY IDOCK:   -0.22 KCAL/MOL
REMARK 927      BINDING AFFINITY PREDICTED BY RF-SCORE:    0.00 PKD
ROOT
HETATM    1  N   UNL     1     -11.574  16.225  64.079  1.00  0.00    -1.504 NA 
HETATM    2  C   UNL     1     -12.253  14.928  64.100  1.00  0.00    -0.255 C  
HETATM    3  H1  UNL     1     -11.259  16.454  63.136  1.00  0.00     0.000 HD 
HETATM    4  H2  UNL     1     -10.809  16.261  64.751  1.00  0.00     0.000 HD 
ENDROOT
BRANCH   2   5
HETATM    5  C   UNL     1     -12.723  14.586  65.505  1.00  0.00    -0.180 C  
HETATM    6  S   UNL     1     -11.333  14.572  66.625  1.00  0.00    -0.363 S  
HETATM    7  O   UNL     1     -12.140  14.182  67.970  1.00  0.00    -0.351 OA 
HETATM    8  O   UNL     1     -10.484  13.438  66.341  1.00  0.00    -0.278 OA 
HETATM    9  O   UNL     1     -10.819  15.912  66.784  1.00  0.00    -0.309 OA 
ENDBRANCH   2   5
TORSDOF 1
ENDMDL
MODEL       31
REMARK 921   NORMALIZED FREE ENERGY PREDICTED BY IDOCK:   -3.05 KCAL/MOL
REMARK 922        TOTAL FREE ENERGY PREDICTED BY IDOCK:   -3.46 KCAL/MOL
REMARK 923 INTER-LIGAND FREE ENERGY PREDICTED BY IDOCK:   -3.07 KCAL/MOL
REMARK 924 INTRA-LIGAND FREE ENERGY PREDICTED BY IDOCK:   -0.39 KCAL/MOL
REMARK 927      BINDING AFFINITY PREDICTED BY RF-SCORE:    0.00 PKD
ROOT
HETATM    1  N   UNL     1     -11.916  12.308  65.886  1.00  0.00    -0.597 NA 
HETATM    2  C   UNL     1     -12.698  12.782  64.742  1.00  0.00    -0.393 C  
HETATM    3  H1  UNL     1     -12.199  11.365  66.153  1.00  0.00     0.000 HD 
HETATM    4  H2  UNL     1     -11.969  12.954  66.672  1.00  0.00     0.000 HD 
ENDROOT
BRANCH   2   5
HETATM    5  C   UNL     1     -12.277  14.187  64.344  1.00  0.00    -0.439 C  
HETATM    6  S   UNL     1     -11.000  14.775  65.443  1.00  0.00    -0.382 S  
HETATM    7  O   UNL     1     -10.794  16.234  64.781  1.00  0.00    -0.671 OA 
HETATM    8  O   UNL     1     -11.553  15.020  66.755  1.00  0.00    -0.312 OA 
HETATM    9  O   UNL     1      -9.789  14.015  65.237  1.00  0.00    -0.271 OA 
ENDBRANCH   2   5
TORSDOF 1
ENDMDL
MODEL       32
REMARK 921   NORMALIZED FREE ENERGY PREDICTED BY IDOCK:   -3.03 KCAL/MOL
REMARK 922        TOTAL FREE ENERGY PREDICTED BY IDOCK:   -3.44 KCAL/MOL
REMARK 923 INTER-LIGAND FREE ENERGY PREDICTED BY IDOCK:   -3.04 KCAL/MOL
REMARK 924 INTRA-LIGAND FREE ENERGY PREDICTED BY IDOCK:   -0.39 KCAL/MOL
REMARK 927      BINDING AFFINITY PREDICTED BY RF-SCORE:    0.00 PKD
ROOT
HETATM    1  N   UNL     1      -9.707  16.119  66.329  1.00  0.00    -0.285 NA 
HETATM    2  C   UNL     1     -10.748  15.535  67.177  1.00  0.00    -0.315 C  
HETATM    3  H1  UNL     1      -8.957  16.515  66.895  1.00  0.00     0.000 HD 
HETATM    4  H2  UNL     1     -10.091  16.805  65.679  1.00  0.00     0.000 HD 
ENDROOT
BRANCH   2   5
HETATM    5  C   UNL     1     -11.866  14.946  66.334  1.00  0.00    -0.131 C  
HETATM    6  S   UNL     1     -11.433  15.030  64.604  1.00  0.00    -0.334 S  
HETATM    7  O   UNL     1     -12.779  14.361  64.009  1.00  0.00    -0.739 OA 
HETATM    8  O   UNL     1     -11.454  16.403  64.158  1.00  0.00    -0.951 OA 
HETATM    9  O   UNL     1     -10.332  14.137  64.332  1.00  0.00    -0.290 OA 
ENDBRANCH   2   5
TORSDOF 1
ENDMDL
MODEL       33
REMARK 921   NORMALIZED FREE ENERGY PREDICTED BY IDOCK:   -3.00 KCAL/MOL
REMARK 922        TOTAL FREE ENERGY PREDICTED BY IDOCK:   -3.40 KCAL/MOL
REMARK 923 INTER-LIGAND FREE ENERGY PREDICTED BY IDOCK:   -3.22 KCAL/MOL
REMARK 924 INTRA-LIGAND FREE ENERGY PREDICTED BY IDOCK:   -0.19 KCAL/MOL
REMARK 927      BINDING AFFINITY PREDICTED BY RF-SCORE:    0.00 PKD
ROOT
HETATM    1  N   UNL     1     -14.049   8.852  73.087  1.00  0.00    -1.225 NA 
HETATM    2  C   UNL     1     -14.298   8.314  71.748  1.00  0.00    -0.483 C  
HETATM    3  H1  UNL     1     -14.731   9.573  73.321  1.00  0.00     0.000 HD 
HETATM    4  H2  UNL     1     -13.093   9.192  73.185  1.00  0.00     0.000 HD 
ENDROOT
BRANCH   2   5
HETATM    5  C   UNL     1     -13.281   7.240  71.399  1.00  0.00    -0.346 C  
HETATM    6  S   UNL     1     -11.627   7.867  71.637  1.00  0.00    -0.285 S  
HETATM    7  O   UNL     1     -10.823   6.540  71.188  1.00  0.00    -0.232 OA 
HETATM    8  O   UNL     1     -11.327   8.860  70.632  1.00  0.00    -0.261 OA 
HETATM    9  O   UNL     1     -11.383   8.083  73.044  1.00  0.00    -0.386 OA 
ENDBRANCH   2   5
TORSDOF 1
ENDMDL
MODEL       34
REMARK 921   NORMALIZED FREE ENERGY PREDICTED BY IDOCK:   -2.98 KCAL/MOL
REMARK 922        TOTAL FREE ENERGY PREDICTED BY IDOCK:   -3.38 KCAL/MOL
REMARK 923 INTER-LIGAND FREE ENERGY PREDICTED BY IDOCK:   -3.20 KCAL/MOL
REMARK 924 INTRA-LIGAND FREE ENERGY PREDICTED BY IDOCK:   -0.19 KCAL/MOL
REMARK 927      BINDING AFFINITY PREDICTED BY RF-SCORE:    0.00 PKD
ROOT
HETATM    1  N   UNL     1     -11.012  13.257  69.308  1.00  0.00    -0.429 NA 
HETATM    2  C   UNL     1     -10.679  14.272  68.306  1.00  0.00    -0.247 C  
HETATM    3  H1  UNL     1     -10.211  13.064  69.909  1.00  0.00     0.000 HD 
HETATM    4  H2  UNL     1     -11.373  12.407  68.877  1.00  0.00     0.000 HD 
ENDROOT
BRANCH   2   5
HETATM    5  C   UNL     1     -11.872  14.559  67.410  1.00  0.00    -0.388 C  
HETATM    6  S   UNL     1     -11.868  13.445  66.016  1.00  0.00    -0.405 S  
HETATM    7  O   UNL     1     -13.200  13.999  65.288  1.00  0.00    -0.782 OA 
HETATM    8  O   UNL     1     -10.778  13.772  65.127  1.00  0.00    -0.318 OA 
HETATM    9  O   UNL     1     -12.131  12.098  66.465  1.00  0.00    -0.627 OA 
ENDBRANCH   2   5
TORSDOF 1
ENDMDL
MODEL       35
REMARK 921   NORMALIZED FREE ENERGY PREDICTED BY IDOCK:   -2.98 KCAL/MOL
REMARK 922        TOTAL FREE ENERGY PREDICTED BY IDOCK:   -3.38 KCAL/MOL
REMARK 923 INTER-LIGAND FREE ENERGY PREDICTED BY IDOCK:   -3.08 KCAL/MOL
REMARK 924 INTRA-LIGAND FREE ENERGY PREDICTED BY IDOCK:   -0.30 KCAL/MOL
REMARK 927      BINDING AFFINITY PREDICTED BY RF-SCORE:    0.00 PKD
ROOT
HETATM    1  N   UNL     1     -12.819  12.622  64.838  1.00  0.00    -0.842 NA 
HETATM    2  C   UNL     1     -12.737  14.026  65.244  1.00  0.00    -0.439 C  
HETATM    3  H1  UNL     1     -13.304  12.530  63.946  1.00  0.00     0.000 HD 
HETATM    4  H2  UNL     1     -13.248  12.045  65.561  1.00  0.00     0.000 HD 
ENDROOT
BRANCH   2   5
HETATM    5  C   UNL     1     -12.015  14.164  66.574  1.00  0.00    -0.442 C  
HETATM    6  S   UNL     1     -11.049  12.698  66.897  1.00  0.00    -0.288 S  
HETATM    7  O   UNL     1     -10.444  13.145  68.327  1.00  0.00    -0.237 OA 
HETATM    8  O   UNL     1     -11.925  11.584  67.180  1.00  0.00    -0.581 OA 
HETATM    9  O   UNL     1      -9.958  12.612  65.956  1.00  0.00    -0.252 OA 
ENDBRANCH   2   5
TORSDOF 1
ENDMDL
MODEL       36
REMARK 921   NORMALIZED FREE ENERGY PREDICTED BY IDOCK:   -2.94 KCAL/MOL
REMARK 922        TOTAL FREE ENERGY PREDICTED BY IDOCK:   -3.34 KCAL/MOL
REMARK 923 INTER-LIGAND FREE ENERGY PREDICTED BY IDOCK:   -3.13 KCAL/MOL
REMARK 924 INTRA-LIGAND FREE ENERGY PREDICTED BY IDOCK:   -0.21 KCAL/MOL
REMARK 927      BINDING AFFINITY PREDICTED BY RF-SCORE:    0.00 PKD
ROOT
HETATM    1  N   UNL     1     -11.592  16.805  72.384  1.00  0.00    -0.321 NA 
HETATM    2  C   UNL     1     -12.174  16.574  73.708  1.00  0.00    -0.389 C  
HETATM    3  H1  UNL     1     -11.130  17.714  72.345  1.00  0.00     0.000 HD 
HETATM    4  H2  UNL     1     -12.287  16.704  71.645  1.00  0.00     0.000 HD 
ENDROOT
BRANCH   2   5
HETATM    5  C   UNL     1     -12.864  15.222  73.767  1.00  0.00    -0.475 C  
HETATM    6  S   UNL     1     -13.329  14.703  72.123  1.00  0.00    -0.417 S  
HETATM    7  O   UNL     1     -14.017  13.297  72.524  1.00  0.00    -0.701 OA 
HETATM    8  O   UNL     1     -14.404  15.533  71.631  1.00  0.00    -0.479 OA 
HETATM    9  O   UNL     1     -12.145  14.417  71.347  1.00  0.00    -0.344 OA 
ENDBRANCH   2   5
TORSDOF 1
ENDMDL
MODEL       37
REMARK 921   NORMALIZED FREE ENERGY PREDICTED BY IDOCK:   -2.93 KCAL/MOL
REMARK 922        TOTAL FREE ENERGY PREDICTED BY IDOCK:   -3.33 KCAL/MOL
REMARK 923 INTER-LIGAND FREE ENERGY PREDICTED BY IDOCK:   -3.10 KCAL/MOL
REMARK 924 INTRA-LIGAND FREE ENERGY PREDICTED BY IDOCK:   -0.23 KCAL/MOL
REMARK 927      BINDING AFFINITY PREDICTED BY RF-SCORE:    0.00 PKD
ROOT
HETATM    1  N   UNL     1     -10.277  15.025  70.538  1.00  0.00    -0.459 NA 
HETATM    2  C   UNL     1     -11.642  14.627  70.186  1.00  0.00    -0.282 C  
HETATM    3  H1  UNL     1      -9.595  14.407  70.098  1.00  0.00     0.000 HD 
HETATM    4  H2  UNL     1     -10.147  15.072  71.547  1.00  0.00     0.000 HD 
ENDROOT
BRANCH   2   5
HETATM    5  C   UNL     1     -12.659  15.547  70.841  1.00  0.00    -0.456 C  
HETATM    6  S   UNL     1     -12.919  15.057  72.538  1.00  0.00    -0.414 S  
HETATM    7  O   UNL     1     -14.013  16.181  72.926  1.00  0.00    -0.480 OA 
HETATM    8  O   UNL     1     -13.626  13.798  72.583  1.00  0.00    -0.597 OA 
HETATM    9  O   UNL     1     -11.725  15.310  73.309  1.00  0.00    -0.414 OA 
ENDBRANCH   2   5
TORSDOF 1
ENDMDL
MODEL       38
REMARK 921   NORMALIZED FREE ENERGY PREDICTED BY IDOCK:   -2.88 KCAL/MOL
REMARK 922        TOTAL FREE ENERGY PREDICTED BY IDOCK:   -3.28 KCAL/MOL
REMARK 923 INTER-LIGAND FREE ENERGY PREDICTED BY IDOCK:   -3.05 KCAL/MOL
REMARK 924 INTRA-LIGAND FREE ENERGY PREDICTED BY IDOCK:   -0.23 KCAL/MOL
REMARK 927      BINDING AFFINITY PREDICTED BY RF-SCORE:    0.00 PKD
ROOT
HETATM    1  N   UNL     1     -13.802  13.222  72.470  1.00  0.00    -0.719 NA 
HETATM    2  C   UNL     1     -13.774  14.682  72.577  1.00  0.00    -0.467 C  
HETATM    3  H1  UNL     1     -13.923  12.793  73.388  1.00  0.00     0.000 HD 
HETATM    4  H2  UNL     1     -12.976  12.863  71.993  1.00  0.00     0.000 HD 
ENDROOT
BRANCH   2   5
HETATM    5  C   UNL     1     -13.593  15.321  71.210  1.00  0.00    -0.507 C  
HETATM    6  S   UNL     1     -12.027  14.827  70.509  1.00  0.00    -0.336 S  
HETATM    7  O   UNL     1     -12.137  15.651  69.124  1.00  0.00    -0.344 OA 
HETATM    8  O   UNL     1     -10.945  15.444  71.241  1.00  0.00    -0.340 OA 
HETATM    9  O   UNL     1     -12.053  13.418  70.196  1.00  0.00    -0.333 OA 
ENDBRANCH   2   5
TORSDOF 1
ENDMDL
MODEL       39
REMARK 921   NORMALIZED FREE ENERGY PREDICTED BY IDOCK:   -2.88 KCAL/MOL
REMARK 922        TOTAL FREE ENERGY PREDICTED BY IDOCK:   -3.27 KCAL/MOL
REMARK 923 INTER-LIGAND FREE ENERGY PREDICTED BY IDOCK:   -3.05 KCAL/MOL
REMARK 924 INTRA-LIGAND FREE ENERGY PREDICTED BY IDOCK:   -0.22 KCAL/MOL
REMARK 927      BINDING AFFINITY PREDICTED BY RF-SCORE:    0.00 PKD
ROOT
HETATM    1  N   UNL     1     -10.401  18.435  65.805  1.00  0.00    -0.608 NA 
HETATM    2  C   UNL     1     -10.616  19.117  67.083  1.00  0.00    -0.470 C  
HETATM    3  H1  UNL     1     -10.997  17.611  65.729  1.00  0.00     0.000 HD 
HETATM    4  H2  UNL     1      -9.419  18.204  65.662  1.00  0.00     0.000 HD 
ENDROOT
BRANCH   2   5
HETATM    5  C   UNL     1      -9.728  20.345  67.196  1.00  0.00    -0.460 C  
HETATM    6  S   UNL     1      -8.014  19.873  67.036  1.00  0.00    -0.315 S  
HETATM    7  O   UNL     1      -7.365  21.343  67.206  1.00  0.00    -0.496 OA 
HETATM    8  O   UNL     1      -7.597  19.130  68.202  1.00  0.00    -0.267 OA 
HETATM    9  O   UNL     1      -7.754  19.423  65.689  1.00  0.00    -0.436 OA 
ENDBRANCH   2   5
TORSDOF 1
ENDMDL
MODEL       40
REMARK 921   NORMALIZED FREE ENERGY PREDICTED BY IDOCK:   -2.86 KCAL/MOL
REMARK 922        TOTAL FREE ENERGY PREDICTED BY IDOCK:   -3.25 KCAL/MOL
REMARK 923 INTER-LIGAND FREE ENERGY PREDICTED BY IDOCK:   -3.04 KCAL/MOL
REMARK 924 INTRA-LIGAND FREE ENERGY PREDICTED BY IDOCK:   -0.21 KCAL/MOL
REMARK 927      BINDING AFFINITY PREDICTED BY RF-SCORE:    0.00 PKD
ROOT
HETATM    1  N   UNL     1      -8.075  20.840  66.902  1.00  0.00    -0.573 NA 
HETATM    2  C   UNL     1      -7.911  19.531  66.267  1.00  0.00    -0.317 C  
HETATM    3  H1  UNL     1      -7.627  21.571  66.349  1.00  0.00     0.000 HD 
HETATM    4  H2  UNL     1      -7.738  20.837  67.864  1.00  0.00     0.000 HD 
ENDROOT
BRANCH   2   5
HETATM    5  C   UNL     1      -8.577  18.442  67.091  1.00  0.00    -0.262 C  
HETATM    6  S   UNL     1     -10.320  18.372  66.713  1.00  0.00    -0.393 S  
HETATM    7  O   UNL     1     -10.715  17.172  67.721  1.00  0.00    -0.361 OA 
HETATM    8  O   UNL     1     -10.983  19.546  67.231  1.00  0.00    -0.499 OA 
HETATM    9  O   UNL     1     -10.509  17.901  65.361  1.00  0.00    -0.635 OA 
ENDBRANCH   2   5
TORSDOF 1
ENDMDL
MODEL       41
REMARK 921   NORMALIZED FREE ENERGY PREDICTED BY IDOCK:   -2.84 KCAL/MOL
REMARK 922        TOTAL FREE ENERGY PREDICTED BY IDOCK:   -3.23 KCAL/MOL
REMARK 923 INTER-LIGAND FREE ENERGY PREDICTED BY IDOCK:   -2.99 KCAL/MOL
REMARK 924 INTRA-LIGAND FREE ENERGY PREDICTED BY IDOCK:   -0.24 KCAL/MOL
REMARK 927      BINDING AFFINITY PREDICTED BY RF-SCORE:    0.00 PKD
ROOT
HETATM    1  N   UNL     1      -9.946  13.150  64.186  1.00  0.00    -0.729 NA 
HETATM    2  C   UNL     1     -10.372  14.451  64.705  1.00  0.00    -0.320 C  
HETATM    3  H1  UNL     1      -9.681  13.220  63.204  1.00  0.00     0.000 HD 
HETATM    4  H2  UNL     1     -10.655  12.433  64.335  1.00  0.00     0.000 HD 
ENDROOT
BRANCH   2   5
HETATM    5  C   UNL     1     -10.766  14.347  66.169  1.00  0.00    -0.304 C  
HETATM    6  S   UNL     1     -12.249  13.366  66.332  1.00  0.00    -0.336 S  
HETATM    7  O   UNL     1     -12.396  13.457  67.938  1.00  0.00    -0.203 OA 
HETATM    8  O   UNL     1     -13.379  14.091  65.799  1.00  0.00    -0.543 OA 
HETATM    9  O   UNL     1     -11.969  11.993  65.985  1.00  0.00    -0.559 OA 
ENDBRANCH   2   5
TORSDOF 1
ENDMDL
MODEL       42
REMARK 921   NORMALIZED FREE ENERGY PREDICTED BY IDOCK:   -2.83 KCAL/MOL
REMARK 922        TOTAL FREE ENERGY PREDICTED BY IDOCK:   -3.22 KCAL/MOL
REMARK 923 INTER-LIGAND FREE ENERGY PREDICTED BY IDOCK:   -2.86 KCAL/MOL
REMARK 924 INTRA-LIGAND FREE ENERGY PREDICTED BY IDOCK:   -0.37 KCAL/MOL
REMARK 927      BINDING AFFINITY PREDICTED BY RF-SCORE:    0.00 PKD
ROOT
HETATM    1  N   UNL     1      -7.584  17.811  65.715  1.00  0.00    -0.547 NA 
HETATM    2  C   UNL     1      -7.443  19.252  65.932  1.00  0.00    -0.260 C  
HETATM    3  H1  UNL     1      -6.704  17.403  65.400  1.00  0.00     0.000 HD 
HETATM    4  H2  UNL     1      -8.348  17.599  65.074  1.00  0.00     0.000 HD 
ENDROOT
BRANCH   2   5
HETATM    5  C   UNL     1      -8.754  19.860  66.401  1.00  0.00    -0.345 C  
HETATM    6  S   UNL     1      -9.925  18.567  66.778  1.00  0.00    -0.384 S  
HETATM    7  O   UNL     1     -11.160  19.510  67.218  1.00  0.00    -0.444 OA 
HETATM    8  O   UNL     1     -10.349  17.916  65.560  1.00  0.00    -0.616 OA 
HETATM    9  O   UNL     1      -9.485  17.833  67.942  1.00  0.00    -0.260 OA 
ENDBRANCH   2   5
TORSDOF 1
ENDMDL
MODEL       43
REMARK 921   NORMALIZED FREE ENERGY PREDICTED BY IDOCK:   -2.80 KCAL/MOL
REMARK 922        TOTAL FREE ENERGY PREDICTED BY IDOCK:   -3.20 KCAL/MOL
REMARK 923 INTER-LIGAND FREE ENERGY PREDICTED BY IDOCK:   -2.95 KCAL/MOL
REMARK 924 INTRA-LIGAND FREE ENERGY PREDICTED BY IDOCK:   -0.24 KCAL/MOL
REMARK 927      BINDING AFFINITY PREDICTED BY RF-SCORE:    0.00 PKD
ROOT
HETATM    1  N   UNL     1     -12.302  10.634  68.991  1.00  0.00    -0.779 NA 
HETATM    2  C   UNL     1     -11.563  11.759  69.567  1.00  0.00    -0.332 C  
HETATM    3  H1  UNL     1     -12.004   9.752  69.408  1.00  0.00     0.000 HD 
HETATM    4  H2  UNL     1     -12.226  10.614  67.974  1.00  0.00     0.000 HD 
ENDROOT
BRANCH   2   5
HETATM    5  C   UNL     1     -12.006  13.073  68.945  1.00  0.00    -0.263 C  
HETATM    6  S   UNL     1     -11.420  13.178  67.262  1.00  0.00    -0.351 S  
HETATM    7  O   UNL     1     -12.027  14.633  66.910  1.00  0.00    -0.373 OA 
HETATM    8  O   UNL     1      -9.985  13.345  67.251  1.00  0.00    -0.227 OA 
HETATM    9  O   UNL     1     -12.099  12.200  66.445  1.00  0.00    -0.630 OA 
ENDBRANCH   2   5
TORSDOF 1
ENDMDL
MODEL       44
REMARK 921   NORMALIZED FREE ENERGY PREDICTED BY IDOCK:   -2.75 KCAL/MOL
REMARK 922        TOTAL FREE ENERGY PREDICTED BY IDOCK:   -3.14 KCAL/MOL
REMARK 923 INTER-LIGAND FREE ENERGY PREDICTED BY IDOCK:   -2.75 KCAL/MOL
REMARK 924 INTRA-LIGAND FREE ENERGY PREDICTED BY IDOCK:   -0.39 KCAL/MOL
REMARK 927      BINDING AFFINITY PREDICTED BY RF-SCORE:    0.00 PKD
ROOT
HETATM    1  N   UNL     1      -9.586  12.150  68.798  1.00  0.00    -0.405 NA 
HETATM    2  C   UNL     1      -8.950  11.799  67.526  1.00  0.00    -0.168 C  
HETATM    3  H1  UNL     1      -8.912  12.115  69.562  1.00  0.00     0.000 HD 
HETATM    4  H2  UNL     1     -10.400  11.566  68.986  1.00  0.00     0.000 HD 
ENDROOT
BRANCH   2   5
HETATM    5  C   UNL     1      -9.953  11.851  66.387  1.00  0.00    -0.213 C  
HETATM    6  S   UNL     1     -11.531  12.428  66.990  1.00  0.00    -0.369 S  
HETATM    7  O   UNL     1     -12.339  12.359  65.593  1.00  0.00    -0.639 OA 
HETATM    8  O   UNL     1     -12.133  11.421  67.834  1.00  0.00    -0.646 OA 
HETATM    9  O   UNL     1     -11.428  13.814  67.381  1.00  0.00    -0.311 OA 
ENDBRANCH   2   5
TORSDOF 1
ENDMDL
MODEL       45
REMARK 921   NORMALIZED FREE ENERGY PREDICTED BY IDOCK:   -2.70 KCAL/MOL
REMARK 922        TOTAL FREE ENERGY PREDICTED BY IDOCK:   -3.09 KCAL/MOL
REMARK 923 INTER-LIGAND FREE ENERGY PREDICTED BY IDOCK:   -2.87 KCAL/MOL
REMARK 924 INTRA-LIGAND FREE ENERGY PREDICTED BY IDOCK:   -0.22 KCAL/MOL
REMARK 927      BINDING AFFINITY PREDICTED BY RF-SCORE:    0.00 PKD
ROOT
HETATM    1  N   UNL     1     -10.975  15.872  68.191  1.00  0.00    -0.322 NA 
HETATM    2  C   UNL     1     -10.118  17.028  68.464  1.00  0.00    -0.303 C  
HETATM    3  H1  UNL     1     -10.614  15.036  68.651  1.00  0.00     0.000 HD 
HETATM    4  H2  UNL     1     -11.102  15.725  67.190  1.00  0.00     0.000 HD 
ENDROOT
BRANCH   2   5
HETATM    5  C   UNL     1     -10.654  18.273  67.777  1.00  0.00    -0.393 C  
HETATM    6  S   UNL     1     -10.101  18.319  66.081  1.00  0.00    -0.300 S  
HETATM    7  O   UNL     1     -10.805  19.710  65.658  1.00  0.00    -0.473 OA 
HETATM    8  O   UNL     1      -8.680  18.576  66.034  1.00  0.00    -0.497 OA 
HETATM    9  O   UNL     1     -10.727  17.255  65.332  1.00  0.00    -0.583 OA 
ENDBRANCH   2   5
TORSDOF 1
ENDMDL
MODEL       46
REMARK 921   NORMALIZED FREE ENERGY PREDICTED BY IDOCK:   -2.68 KCAL/MOL
REMARK 922        TOTAL FREE ENERGY PREDICTED BY IDOCK:   -3.06 KCAL/MOL
REMARK 923 INTER-LIGAND FREE ENERGY PREDICTED BY IDOCK:   -2.67 KCAL/MOL
REMARK 924 INTRA-LIGAND FREE ENERGY PREDICTED BY IDOCK:   -0.39 KCAL/MOL
REMARK 927      BINDING AFFINITY PREDICTED BY RF-SCORE:    0.00 PKD
ROOT
HETATM    1  N   UNL     1     -12.742   7.255  70.925  1.00  0.00    -0.592 NA 
HETATM    2  C   UNL     1     -11.597   6.631  70.260  1.00  0.00    -0.395 C  
HETATM    3  H1  UNL     1     -13.617   6.836  70.609  1.00  0.00     0.000 HD 
HETATM    4  H2  UNL     1     -12.743   8.267  70.804  1.00  0.00     0.000 HD 
ENDROOT
BRANCH   2   5
HETATM    5  C   UNL     1     -10.293   7.254  70.730  1.00  0.00    -0.202 C  
HETATM    6  S   UNL     1     -10.613   8.414  72.048  1.00  0.00    -0.343 S  
HETATM    7  O   UNL     1      -9.088   8.885  72.301  1.00  0.00    -0.381 OA 
HETATM    8  O   UNL     1     -11.294   9.576  71.527  1.00  0.00    -0.372 OA 
HETATM    9  O   UNL     1     -11.064   7.707  73.224  1.00  0.00    -0.382 OA 
ENDBRANCH   2   5
TORSDOF 1
ENDMDL
MODEL       47
REMARK 921   NORMALIZED FREE ENERGY PREDICTED BY IDOCK:   -2.67 KCAL/MOL
REMARK 922        TOTAL FREE ENERGY PREDICTED BY IDOCK:   -3.06 KCAL/MOL
REMARK 923 INTER-LIGAND FREE ENERGY PREDICTED BY IDOCK:   -2.68 KCAL/MOL
REMARK 924 INTRA-LIGAND FREE ENERGY PREDICTED BY IDOCK:   -0.38 KCAL/MOL
REMARK 927      BINDING AFFINITY PREDICTED BY RF-SCORE:    0.00 PKD
ROOT
HETATM    1  N   UNL     1     -10.379  17.802  67.992  1.00  0.00    -0.375 NA 
HETATM    2  C   UNL     1     -10.990  16.541  68.415  1.00  0.00    -0.348 C  
HETATM    3  H1  UNL     1     -10.349  18.468  68.764  1.00  0.00     0.000 HD 
HETATM    4  H2  UNL     1     -10.847  18.193  67.176  1.00  0.00     0.000 HD 
ENDROOT
BRANCH   2   5
HETATM    5  C   UNL     1     -11.036  15.549  67.264  1.00  0.00    -0.303 C  
HETATM    6  S   UNL     1     -10.131  16.195  65.868  1.00  0.00    -0.361 S  
HETATM    7  O   UNL     1     -10.373  14.957  64.858  1.00  0.00    -0.400 OA 
HETATM    8  O   UNL     1     -10.846  17.310  65.291  1.00  0.00    -0.576 OA 
HETATM    9  O   UNL     1      -8.722  16.249  66.180  1.00  0.00    -0.316 OA 
ENDBRANCH   2   5
TORSDOF 1
ENDMDL
MODEL       48
REMARK 921   NORMALIZED FREE ENERGY PREDICTED BY IDOCK:   -2.64 KCAL/MOL
REMARK 922        TOTAL FREE ENERGY PREDICTED BY IDOCK:   -3.02 KCAL/MOL
REMARK 923 INTER-LIGAND FREE ENERGY PREDICTED BY IDOCK:   -2.63 KCAL/MOL
REMARK 924 INTRA-LIGAND FREE ENERGY PREDICTED BY IDOCK:   -0.39 KCAL/MOL
REMARK 927      BINDING AFFINITY PREDICTED BY RF-SCORE:    0.00 PKD
ROOT
HETATM    1  N   UNL     1     -11.848  11.612  67.497  1.00  0.00    -0.624 NA 
HETATM    2  C   UNL     1     -11.809  12.492  68.667  1.00  0.00    -0.297 C  
HETATM    3  H1  UNL     1     -12.067  10.654  67.770  1.00  0.00     0.000 HD 
HETATM    4  H2  UNL     1     -10.983  11.663  66.959  1.00  0.00     0.000 HD 
ENDROOT
BRANCH   2   5
HETATM    5  C   UNL     1     -11.483  13.919  68.261  1.00  0.00    -0.311 C  
HETATM    6  S   UNL     1     -11.356  14.032  66.484  1.00  0.00    -0.349 S  
HETATM    7  O   UNL     1     -11.006  15.607  66.389  1.00  0.00    -0.291 OA 
HETATM    8  O   UNL     1     -10.170  13.345  66.030  1.00  0.00    -0.288 OA 
HETATM    9  O   UNL     1     -12.655  13.826  65.886  1.00  0.00    -0.472 OA 
ENDBRANCH   2   5
TORSDOF 1
ENDMDL
MODEL       49
REMARK 921   NORMALIZED FREE ENERGY PREDICTED BY IDOCK:   -2.63 KCAL/MOL
REMARK 922        TOTAL FREE ENERGY PREDICTED BY IDOCK:   -3.01 KCAL/MOL
REMARK 923 INTER-LIGAND FREE ENERGY PREDICTED BY IDOCK:   -2.79 KCAL/MOL
REMARK 924 INTRA-LIGAND FREE ENERGY PREDICTED BY IDOCK:   -0.23 KCAL/MOL
REMARK 927      BINDING AFFINITY PREDICTED BY RF-SCORE:    0.00 PKD
ROOT
HETATM    1  N   UNL     1     -11.053  16.511  67.959  1.00  0.00    -0.319 NA 
HETATM    2  C   UNL     1     -10.005  17.130  68.772  1.00  0.00    -0.315 C  
HETATM    3  H1  UNL     1     -11.689  15.966  68.541  1.00  0.00     0.000 HD 
HETATM    4  H2  UNL     1     -10.662  15.951  67.203  1.00  0.00     0.000 HD 
ENDROOT
BRANCH   2   5
HETATM    5  C   UNL     1      -9.056  17.941  67.905  1.00  0.00    -0.260 C  
HETATM    6  S   UNL     1      -9.936  18.617  66.507  1.00  0.00    -0.400 S  
HETATM    7  O   UNL     1      -8.692  19.381  65.814  1.00  0.00    -0.403 OA 
HETATM    8  O   UNL     1     -10.296  17.558  65.594  1.00  0.00    -0.601 OA 
HETATM    9  O   UNL     1     -10.879  19.614  66.957  1.00  0.00    -0.487 OA 
ENDBRANCH   2   5
TORSDOF 1
ENDMDL
MODEL       50
REMARK 921   NORMALIZED FREE ENERGY PREDICTED BY IDOCK:   -2.63 KCAL/MOL
REMARK 922        TOTAL FREE ENERGY PREDICTED BY IDOCK:   -3.01 KCAL/MOL
REMARK 923 INTER-LIGAND FREE ENERGY PREDICTED BY IDOCK:   -2.64 KCAL/MOL
REMARK 924 INTRA-LIGAND FREE ENERGY PREDICTED BY IDOCK:   -0.37 KCAL/MOL
REMARK 927      BINDING AFFINITY PREDICTED BY RF-SCORE:    0.00 PKD
ROOT
HETATM    1  N   UNL     1      -7.037  20.754  65.196  1.00  0.00    -0.527 NA 
HETATM    2  C   UNL     1      -6.678  21.053  66.584  1.00  0.00    -0.259 C  
HETATM    3  H1  UNL     1      -6.467  21.297  64.549  1.00  0.00     0.000 HD 
HETATM    4  H2  UNL     1      -8.033  20.890  65.027  1.00  0.00     0.000 HD 
ENDROOT
BRANCH   2   5
HETATM    5  C   UNL     1      -7.529  20.243  67.549  1.00  0.00    -0.312 C  
HETATM    6  S   UNL     1      -8.734  19.287  66.644  1.00  0.00    -0.337 S  
HETATM    7  O   UNL     1      -9.449  18.581  67.910  1.00  0.00    -0.284 OA 
HETATM    8  O   UNL     1      -9.732  20.164  66.076  1.00  0.00    -0.416 OA 
HETATM    9  O   UNL     1      -8.068  18.261  65.876  1.00  0.00    -0.504 OA 
ENDBRANCH   2   5
TORSDOF 1
ENDMDL
MODEL       51
REMARK 921   NORMALIZED FREE ENERGY PREDICTED BY IDOCK:   -2.63 KCAL/MOL
REMARK 922        TOTAL FREE ENERGY PREDICTED BY IDOCK:   -3.01 KCAL/MOL
REMARK 923 INTER-LIGAND FREE ENERGY PREDICTED BY IDOCK:   -2.77 KCAL/MOL
REMARK 924 INTRA-LIGAND FREE ENERGY PREDICTED BY IDOCK:   -0.24 KCAL/MOL
REMARK 927      BINDING AFFINITY PREDICTED BY RF-SCORE:    0.00 PKD
ROOT
HETATM    1  N   UNL     1      -8.548  17.166  68.993  1.00  0.00    -0.169 NA 
HETATM    2  C   UNL     1      -9.927  17.655  68.945  1.00  0.00    -0.324 C  
HETATM    3  H1  UNL     1      -8.103  17.420  69.875  1.00  0.00     0.000 HD 
HETATM    4  H2  UNL     1      -8.006  17.488  68.192  1.00  0.00     0.000 HD 
ENDROOT
BRANCH   2   5
HETATM    5  C   UNL     1     -10.590  17.277  67.631  1.00  0.00    -0.350 C  
HETATM    6  S   UNL     1      -9.990  18.332  66.322  1.00  0.00    -0.329 S  
HETATM    7  O   UNL     1     -10.861  17.703  65.116  1.00  0.00    -0.664 OA 
HETATM    8  O   UNL     1     -10.492  19.674  66.502  1.00  0.00    -0.436 OA 
HETATM    9  O   UNL     1      -8.597  18.048  66.064  1.00  0.00    -0.500 OA 
ENDBRANCH   2   5
TORSDOF 1
ENDMDL
MODEL       52
REMARK 921   NORMALIZED FREE ENERGY PREDICTED BY IDOCK:   -2.63 KCAL/MOL
REMARK 922        TOTAL FREE ENERGY PREDICTED BY IDOCK:   -3.01 KCAL/MOL
REMARK 923 INTER-LIGAND FREE ENERGY PREDICTED BY IDOCK:   -2.77 KCAL/MOL
REMARK 924 INTRA-LIGAND FREE ENERGY PREDICTED BY IDOCK:   -0.24 KCAL/MOL
REMARK 927      BINDING AFFINITY PREDICTED BY RF-SCORE:    0.00 PKD
ROOT
HETATM    1  N   UNL     1      -7.898  20.515  67.380  1.00  0.00    -0.328 NA 
HETATM    2  C   UNL     1      -7.766  19.083  67.655  1.00  0.00    -0.239 C  
HETATM    3  H1  UNL     1      -7.473  21.068  68.124  1.00  0.00     0.000 HD 
HETATM    4  H2  UNL     1      -8.869  20.780  67.221  1.00  0.00     0.000 HD 
ENDROOT
BRANCH   2   5
HETATM    5  C   UNL     1      -8.399  18.259  66.546  1.00  0.00    -0.266 C  
HETATM    6  S   UNL     1     -10.164  18.526  66.520  1.00  0.00    -0.428 S  
HETATM    7  O   UNL     1     -10.517  17.540  65.290  1.00  0.00    -0.643 OA 
HETATM    8  O   UNL     1     -10.770  17.923  67.685  1.00  0.00    -0.399 OA 
HETATM    9  O   UNL     1     -10.448  19.880  66.105  1.00  0.00    -0.470 OA 
ENDBRANCH   2   5
TORSDOF 1
ENDMDL
MODEL       53
REMARK 921   NORMALIZED FREE ENERGY PREDICTED BY IDOCK:   -2.61 KCAL/MOL
REMARK 922        TOTAL FREE ENERGY PREDICTED BY IDOCK:   -2.99 KCAL/MOL
REMARK 923 INTER-LIGAND FREE ENERGY PREDICTED BY IDOCK:   -2.75 KCAL/MOL
REMARK 924 INTRA-LIGAND FREE ENERGY PREDICTED BY IDOCK:   -0.24 KCAL/MOL
REMARK 927      BINDING AFFINITY PREDICTED BY RF-SCORE:    0.00 PKD
ROOT
HETATM    1  N   UNL     1     -12.297  10.554  69.314  1.00  0.00    -0.711 NA 
HETATM    2  C   UNL     1     -11.766  11.826  69.807  1.00  0.00    -0.335 C  
HETATM    3  H1  UNL     1     -13.034  10.207  69.927  1.00  0.00     0.000 HD 
HETATM    4  H2  UNL     1     -11.559   9.863  69.183  1.00  0.00     0.000 HD 
ENDROOT
BRANCH   2   5
HETATM    5  C   UNL     1     -10.667  12.344  68.894  1.00  0.00    -0.164 C  
HETATM    6  S   UNL     1     -11.374  12.945  67.369  1.00  0.00    -0.328 S  
HETATM    7  O   UNL     1      -9.998  13.394  66.651  1.00  0.00    -0.262 OA 
HETATM    8  O   UNL     1     -11.874  11.837  66.588  1.00  0.00    -0.569 OA 
HETATM    9  O   UNL     1     -12.153  14.134  67.626  1.00  0.00    -0.378 OA 
ENDBRANCH   2   5
TORSDOF 1
ENDMDL
MODEL       54
REMARK 921   NORMALIZED FREE ENERGY PREDICTED BY IDOCK:   -2.59 KCAL/MOL
REMARK 922        TOTAL FREE ENERGY PREDICTED BY IDOCK:   -2.97 KCAL/MOL
REMARK 923 INTER-LIGAND FREE ENERGY PREDICTED BY IDOCK:   -2.96 KCAL/MOL
REMARK 924 INTRA-LIGAND FREE ENERGY PREDICTED BY IDOCK:   -0.02 KCAL/MOL
REMARK 927      BINDING AFFINITY PREDICTED BY RF-SCORE:    0.00 PKD
ROOT
HETATM    1  N   UNL     1     -11.175  16.604  64.253  1.00  0.00    -1.380 NA 
HETATM    2  C   UNL     1     -10.701  16.485  65.633  1.00  0.00    -0.248 C  
HETATM    3  H1  UNL     1     -11.596  15.730  63.937  1.00  0.00     0.000 HD 
HETATM    4  H2  UNL     1     -10.435  16.914  63.625  1.00  0.00     0.000 HD 
ENDROOT
BRANCH   2   5
HETATM    5  C   UNL     1     -10.074  17.786  66.104  1.00  0.00    -0.304 C  
HETATM    6  S   UNL     1      -8.586  17.445  67.030  1.00  0.00    -0.242 S  
HETATM    7  O   UNL     1      -8.190  18.972  67.379  1.00  0.00    -0.270 OA 
HETATM    8  O   UNL     1      -8.923  16.835  68.295  1.00  0.00    -0.214 OA 
HETATM    9  O   UNL     1      -7.574  16.910  66.150  1.00  0.00    -0.297 OA 
ENDBRANCH   2   5
TORSDOF 1
ENDMDL
MODEL       55
REMARK 921   NORMALIZED FREE ENERGY PREDICTED BY IDOCK:   -2.59 KCAL/MOL
REMARK 922        TOTAL FREE ENERGY PREDICTED BY IDOCK:   -2.97 KCAL/MOL
REMARK 923 INTER-LIGAND FREE ENERGY PREDICTED BY IDOCK:   -2.67 KCAL/MOL
REMARK 924 INTRA-LIGAND FREE ENERGY PREDICTED BY IDOCK:   -0.30 KCAL/MOL
REMARK 927      BINDING AFFINITY PREDICTED BY RF-SCORE:    0.00 PKD
ROOT
HETATM    1  N   UNL     1      -8.910  20.137  66.198  1.00  0.00    -0.564 NA 
HETATM    2  C   UNL     1     -10.341  19.861  66.059  1.00  0.00    -0.486 C  
HETATM    3  H1  UNL     1      -8.566  20.677  65.404  1.00  0.00     0.000 HD 
HETATM    4  H2  UNL     1      -8.373  19.282  66.334  1.00  0.00     0.000 HD 
ENDROOT
BRANCH   2   5
HETATM    5  C   UNL     1     -10.855  19.056  67.241  1.00  0.00    -0.408 C  
HETATM    6  S   UNL     1      -9.482  18.443  68.203  1.00  0.00    -0.323 S  
HETATM    7  O   UNL     1     -10.335  17.658  69.328  1.00  0.00    -0.319 OA 
HETATM    8  O   UNL     1      -8.782  17.419  67.464  1.00  0.00    -0.216 OA 
HETATM    9  O   UNL     1      -8.803  19.545  68.844  1.00  0.00    -0.355 OA 
ENDBRANCH   2   5
TORSDOF 1
ENDMDL
MODEL       56
REMARK 921   NORMALIZED FREE ENERGY PREDICTED BY IDOCK:   -2.58 KCAL/MOL
REMARK 922        TOTAL FREE ENERGY PREDICTED BY IDOCK:   -2.96 KCAL/MOL
REMARK 923 INTER-LIGAND FREE ENERGY PREDICTED BY IDOCK:   -2.95 KCAL/MOL
REMARK 924 INTRA-LIGAND FREE ENERGY PREDICTED BY IDOCK:   -0.01 KCAL/MOL
REMARK 927      BINDING AFFINITY PREDICTED BY RF-SCORE:    0.00 PKD
ROOT
HETATM    1  N   UNL     1     -14.290   8.790  73.034  1.00  0.00    -1.133 NA 
HETATM    2  C   UNL     1     -13.201   9.058  72.092  1.00  0.00    -0.446 C  
HETATM    3  H1  UNL     1     -15.154   9.236  72.726  1.00  0.00     0.000 HD 
HETATM    4  H2  UNL     1     -14.042   9.064  73.984  1.00  0.00     0.000 HD 
ENDROOT
BRANCH   2   5
HETATM    5  C   UNL     1     -11.913   8.395  72.550  1.00  0.00    -0.350 C  
HETATM    6  S   UNL     1     -11.070   7.672  71.153  1.00  0.00    -0.256 S  
HETATM    7  O   UNL     1      -9.802   7.066  71.951  1.00  0.00    -0.165 OA 
HETATM    8  O   UNL     1     -11.806   6.527  70.671  1.00  0.00    -0.384 OA 
HETATM    9  O   UNL     1     -10.590   8.716  70.278  1.00  0.00    -0.212 OA 
ENDBRANCH   2   5
TORSDOF 1
ENDMDL
MODEL       57
REMARK 921   NORMALIZED FREE ENERGY PREDICTED BY IDOCK:   -2.58 KCAL/MOL
REMARK 922        TOTAL FREE ENERGY PREDICTED BY IDOCK:   -2.96 KCAL/MOL
REMARK 923 INTER-LIGAND FREE ENERGY PREDICTED BY IDOCK:   -2.72 KCAL/MOL
REMARK 924 INTRA-LIGAND FREE ENERGY PREDICTED BY IDOCK:   -0.24 KCAL/MOL
REMARK 927      BINDING AFFINITY PREDICTED BY RF-SCORE:    0.00 PKD
ROOT
HETATM    1  N   UNL     1     -12.104  14.723  68.600  1.00  0.00    -0.572 NA 
HETATM    2  C   UNL     1     -10.920  15.563  68.414  1.00  0.00    -0.297 C  
HETATM    3  H1  UNL     1     -12.039  14.193  69.470  1.00  0.00     0.000 HD 
HETATM    4  H2  UNL     1     -12.263  14.113  67.799  1.00  0.00     0.000 HD 
ENDROOT
BRANCH   2   5
HETATM    5  C   UNL     1     -11.015  16.352  67.118  1.00  0.00    -0.082 C  
HETATM    6  S   UNL     1     -10.989  15.239  65.724  1.00  0.00    -0.317 S  
HETATM    7  O   UNL     1     -11.091  16.349  64.554  1.00  0.00    -0.742 OA 
HETATM    8  O   UNL     1      -9.675  14.654  65.586  1.00  0.00    -0.328 OA 
HETATM    9  O   UNL     1     -12.200  14.452  65.702  1.00  0.00    -0.384 OA 
ENDBRANCH   2   5
TORSDOF 1
ENDMDL
MODEL       58
REMARK 921   NORMALIZED FREE ENERGY PREDICTED BY IDOCK:   -2.58 KCAL/MOL
REMARK 922        TOTAL FREE ENERGY PREDICTED BY IDOCK:   -2.96 KCAL/MOL
REMARK 923 INTER-LIGAND FREE ENERGY PREDICTED BY IDOCK:   -2.58 KCAL/MOL
REMARK 924 INTRA-LIGAND FREE ENERGY PREDICTED BY IDOCK:   -0.38 KCAL/MOL
REMARK 927      BINDING AFFINITY PREDICTED BY RF-SCORE:    0.00 PKD
ROOT
HETATM    1  N   UNL     1     -10.906  16.682  64.714  1.00  0.00    -0.760 NA 
HETATM    2  C   UNL     1     -10.447  17.096  66.042  1.00  0.00    -0.266 C  
HETATM    3  H1  UNL     1     -10.802  17.441  64.041  1.00  0.00     0.000 HD 
HETATM    4  H2  UNL     1     -11.862  16.329  64.739  1.00  0.00     0.000 HD 
ENDROOT
BRANCH   2   5
HETATM    5  C   UNL     1     -10.603  15.966  67.045  1.00  0.00    -0.306 C  
HETATM    6  S   UNL     1     -11.088  14.468  66.205  1.00  0.00    -0.339 S  
HETATM    7  O   UNL     1     -11.174  13.507  67.501  1.00  0.00    -0.266 OA 
HETATM    8  O   UNL     1     -12.444  14.590  65.724  1.00  0.00    -0.323 OA 
HETATM    9  O   UNL     1     -10.004  14.001  65.372  1.00  0.00    -0.316 OA 
ENDBRANCH   2   5
TORSDOF 1
ENDMDL
MODEL       59
REMARK 921   NORMALIZED FREE ENERGY PREDICTED BY IDOCK:   -2.58 KCAL/MOL
REMARK 922        TOTAL FREE ENERGY PREDICTED BY IDOCK:   -2.95 KCAL/MOL
REMARK 923 INTER-LIGAND FREE ENERGY PREDICTED BY IDOCK:   -2.74 KCAL/MOL
REMARK 924 INTRA-LIGAND FREE ENERGY PREDICTED BY IDOCK:   -0.22 KCAL/MOL
REMARK 927      BINDING AFFINITY PREDICTED BY RF-SCORE:    0.00 PKD
ROOT
HETATM    1  N   UNL     1     -13.047   9.854  70.724  1.00  0.00    -0.578 NA 
HETATM    2  C   UNL     1     -11.613   9.643  70.929  1.00  0.00    -0.344 C  
HETATM    3  H1  UNL     1     -13.213  10.647  70.104  1.00  0.00     0.000 HD 
HETATM    4  H2  UNL     1     -13.543   9.958  71.609  1.00  0.00     0.000 HD 
ENDROOT
BRANCH   2   5
HETATM    5  C   UNL     1     -11.366   8.462  71.854  1.00  0.00    -0.314 C  
HETATM    6  S   UNL     1     -12.252   7.030  71.262  1.00  0.00    -0.386 S  
HETATM    7  O   UNL     1     -11.805   6.000  72.423  1.00  0.00    -0.310 OA 
HETATM    8  O   UNL     1     -13.673   7.221  71.442  1.00  0.00    -0.389 OA 
HETATM    9  O   UNL     1     -11.677   6.578  70.016  1.00  0.00    -0.416 OA 
ENDBRANCH   2   5
TORSDOF 1
ENDMDL
MODEL       60
REMARK 921   NORMALIZED FREE ENERGY PREDICTED BY IDOCK:   -2.57 KCAL/MOL
REMARK 922        TOTAL FREE ENERGY PREDICTED BY IDOCK:   -2.95 KCAL/MOL
REMARK 923 INTER-LIGAND FREE ENERGY PREDICTED BY IDOCK:   -2.57 KCAL/MOL
REMARK 924 INTRA-LIGAND FREE ENERGY PREDICTED BY IDOCK:   -0.38 KCAL/MOL
REMARK 927      BINDING AFFINITY PREDICTED BY RF-SCORE:    0.00 PKD
ROOT
HETATM    1  N   UNL     1      -6.956  19.728  68.234  1.00  0.00    -0.289 NA 
HETATM    2  C   UNL     1      -7.422  18.418  68.692  1.00  0.00    -0.296 C  
HETATM    3  H1  UNL     1      -6.214  20.081  68.838  1.00  0.00     0.000 HD 
HETATM    4  H2  UNL     1      -7.723  20.394  68.152  1.00  0.00     0.000 HD 
ENDROOT
BRANCH   2   5
HETATM    5  C   UNL     1      -8.528  17.892  67.793  1.00  0.00    -0.242 C  
HETATM    6  S   UNL     1      -8.920  19.101  66.539  1.00  0.00    -0.346 S  
HETATM    7  O   UNL     1     -10.087  18.271  65.791  1.00  0.00    -0.560 OA 
HETATM    8  O   UNL     1      -9.578  20.237  67.140  1.00  0.00    -0.391 OA 
HETATM    9  O   UNL     1      -7.810  19.235  65.625  1.00  0.00    -0.445 OA 
ENDBRANCH   2   5
TORSDOF 1
ENDMDL
MODEL       61
REMARK 921   NORMALIZED FREE ENERGY PREDICTED BY IDOCK:   -2.56 KCAL/MOL
REMARK 922        TOTAL FREE ENERGY PREDICTED BY IDOCK:   -2.94 KCAL/MOL
REMARK 923 INTER-LIGAND FREE ENERGY PREDICTED BY IDOCK:   -2.70 KCAL/MOL
REMARK 924 INTRA-LIGAND FREE ENERGY PREDICTED BY IDOCK:   -0.24 KCAL/MOL
REMARK 927      BINDING AFFINITY PREDICTED BY RF-SCORE:    0.00 PKD
ROOT
HETATM    1  N   UNL     1     -12.397  14.380  68.410  1.00  0.00    -0.599 NA 
HETATM    2  C   UNL     1     -11.620  13.754  67.339  1.00  0.00    -0.362 C  
HETATM    3  H1  UNL     1     -12.463  13.762  69.219  1.00  0.00     0.000 HD 
HETATM    4  H2  UNL     1     -13.317  14.675  68.085  1.00  0.00     0.000 HD 
ENDROOT
BRANCH   2   5
HETATM    5  C   UNL     1     -11.522  14.673  66.133  1.00  0.00    -0.339 C  
HETATM    6  S   UNL     1     -10.438  16.044  66.498  1.00  0.00    -0.287 S  
HETATM    7  O   UNL     1     -10.556  16.802  65.076  1.00  0.00    -0.695 OA 
HETATM    8  O   UNL     1     -11.064  16.924  67.458  1.00  0.00    -0.182 OA 
HETATM    9  O   UNL     1      -9.081  15.570  66.642  1.00  0.00    -0.234 OA 
ENDBRANCH   2   5
TORSDOF 1
ENDMDL
MODEL       62
REMARK 921   NORMALIZED FREE ENERGY PREDICTED BY IDOCK:   -2.51 KCAL/MOL
REMARK 922        TOTAL FREE ENERGY PREDICTED BY IDOCK:   -2.89 KCAL/MOL
REMARK 923 INTER-LIGAND FREE ENERGY PREDICTED BY IDOCK:   -2.65 KCAL/MOL
REMARK 924 INTRA-LIGAND FREE ENERGY PREDICTED BY IDOCK:   -0.24 KCAL/MOL
REMARK 927      BINDING AFFINITY PREDICTED BY RF-SCORE:    0.00 PKD
ROOT
HETATM    1  N   UNL     1     -14.292   8.876  73.008  1.00  0.00    -1.154 NA 
HETATM    2  C   UNL     1     -13.851   8.234  71.769  1.00  0.00    -0.396 C  
HETATM    3  H1  UNL     1     -15.243   8.592  73.246  1.00  0.00     0.000 HD 
HETATM    4  H2  UNL     1     -14.203   9.890  72.960  1.00  0.00     0.000 HD 
ENDROOT
BRANCH   2   5
HETATM    5  C   UNL     1     -12.435   8.657  71.414  1.00  0.00    -0.301 C  
HETATM    6  S   UNL     1     -12.409  10.386  70.971  1.00  0.00    -0.423 S  
HETATM    7  O   UNL     1     -10.829  10.507  70.654  1.00  0.00    -0.173 OA 
HETATM    8  O   UNL     1     -13.073  10.578  69.702  1.00  0.00    -0.020 OA 
HETATM    9  O   UNL     1     -12.696  11.194  72.132  1.00  0.00    -0.183 OA 
ENDBRANCH   2   5
TORSDOF 1
ENDMDL
MODEL       63
REMARK 921   NORMALIZED FREE ENERGY PREDICTED BY IDOCK:   -2.50 KCAL/MOL
REMARK 922        TOTAL FREE ENERGY PREDICTED BY IDOCK:   -2.88 KCAL/MOL
REMARK 923 INTER-LIGAND FREE ENERGY PREDICTED BY IDOCK:   -2.64 KCAL/MOL
REMARK 924 INTRA-LIGAND FREE ENERGY PREDICTED BY IDOCK:   -0.24 KCAL/MOL
REMARK 927      BINDING AFFINITY PREDICTED BY RF-SCORE:    0.00 PKD
ROOT
HETATM    1  N   UNL     1     -12.860  10.199  70.178  1.00  0.00    -0.565 NA 
HETATM    2  C   UNL     1     -13.115   9.970  71.602  1.00  0.00    -0.445 C  
HETATM    3  H1  UNL     1     -12.733  11.193  69.988  1.00  0.00     0.000 HD 
HETATM    4  H2  UNL     1     -13.592   9.795  69.594  1.00  0.00     0.000 HD 
ENDROOT
BRANCH   2   5
HETATM    5  C   UNL     1     -13.305   8.489  71.885  1.00  0.00    -0.372 C  
HETATM    6  S   UNL     1     -11.737   7.643  71.781  1.00  0.00    -0.296 S  
HETATM    7  O   UNL     1     -12.270   6.153  72.110  1.00  0.00    -0.319 OA 
HETATM    8  O   UNL     1     -11.292   7.599  70.408  1.00  0.00    -0.272 OA 
HETATM    9  O   UNL     1     -10.881   8.062  72.866  1.00  0.00    -0.366 OA 
ENDBRANCH   2   5
TORSDOF 1
ENDMDL
MODEL       64
REMARK 921   NORMALIZED FREE ENERGY PREDICTED BY IDOCK:   -2.49 KCAL/MOL
REMARK 922        TOTAL FREE ENERGY PREDICTED BY IDOCK:   -2.86 KCAL/MOL
REMARK 923 INTER-LIGAND FREE ENERGY PREDICTED BY IDOCK:   -2.48 KCAL/MOL
REMARK 924 INTRA-LIGAND FREE ENERGY PREDICTED BY IDOCK:   -0.38 KCAL/MOL
REMARK 927      BINDING AFFINITY PREDICTED BY RF-SCORE:    0.00 PKD
ROOT
HETATM    1  N   UNL     1     -13.177   9.856  70.620  1.00  0.00    -0.611 NA 
HETATM    2  C   UNL     1     -13.126  11.134  71.332  1.00  0.00    -0.321 C  
HETATM    3  H1  UNL     1     -13.819   9.210  71.080  1.00  0.00     0.000 HD 
HETATM    4  H2  UNL     1     -12.250   9.449  70.508  1.00  0.00     0.000 HD 
ENDROOT
BRANCH   2   5
HETATM    5  C   UNL     1     -12.170  12.097  70.647  1.00  0.00    -0.300 C  
HETATM    6  S   UNL     1     -11.387  11.292  69.259  1.00  0.00    -0.316 S  
HETATM    7  O   UNL     1     -10.466  12.530  68.778  1.00  0.00    -0.213 OA 
HETATM    8  O   UNL     1     -10.464  10.285  69.730  1.00  0.00    -0.241 OA 
HETATM    9  O   UNL     1     -12.364  11.034  68.227  1.00  0.00    -0.479 OA 
ENDBRANCH   2   5
TORSDOF 1
ENDMDL
MODEL       65
REMARK 921   NORMALIZED FREE ENERGY PREDICTED BY IDOCK:   -2.47 KCAL/MOL
REMARK 922        TOTAL FREE ENERGY PREDICTED BY IDOCK:   -2.84 KCAL/MOL
REMARK 923 INTER-LIGAND FREE ENERGY PREDICTED BY IDOCK:   -2.83 KCAL/MOL
REMARK 924 INTRA-LIGAND FREE ENERGY PREDICTED BY IDOCK:   -0.01 KCAL/MOL
REMARK 927      BINDING AFFINITY PREDICTED BY RF-SCORE:    0.00 PKD
ROOT
HETATM    1  N   UNL     1      -9.880  19.933  67.841  1.00  0.00    -0.384 NA 
HETATM    2  C   UNL     1     -10.475  19.003  66.879  1.00  0.00    -0.426 C  
HETATM    3  H1  UNL     1     -10.532  20.683  68.072  1.00  0.00     0.000 HD 
HETATM    4  H2  UNL     1      -8.988  20.297  67.510  1.00  0.00     0.000 HD 
ENDROOT
BRANCH   2   5
HETATM    5  C   UNL     1      -9.505  17.886  66.535  1.00  0.00    -0.299 C  
HETATM    6  S   UNL     1     -10.404  16.451  65.969  1.00  0.00    -0.343 S  
HETATM    7  O   UNL     1      -9.135  15.486  65.707  1.00  0.00    -0.286 OA 
HETATM    8  O   UNL     1     -11.122  15.854  67.071  1.00  0.00    -0.253 OA 
HETATM    9  O   UNL     1     -11.023  16.732  64.695  1.00  0.00    -0.839 OA 
ENDBRANCH   2   5
TORSDOF 1
ENDMDL
MODEL       66
REMARK 921   NORMALIZED FREE ENERGY PREDICTED BY IDOCK:   -2.46 KCAL/MOL
REMARK 922        TOTAL FREE ENERGY PREDICTED BY IDOCK:   -2.84 KCAL/MOL
REMARK 923 INTER-LIGAND FREE ENERGY PREDICTED BY IDOCK:   -2.44 KCAL/MOL
REMARK 924 INTRA-LIGAND FREE ENERGY PREDICTED BY IDOCK:   -0.39 KCAL/MOL
REMARK 927      BINDING AFFINITY PREDICTED BY RF-SCORE:    0.00 PKD
ROOT
HETATM    1  N   UNL     1     -11.773   6.512  69.756  1.00  0.00    -0.632 NA 
HETATM    2  C   UNL     1     -11.128   6.095  71.002  1.00  0.00    -0.297 C  
HETATM    3  H1  UNL     1     -11.417   5.973  68.966  1.00  0.00     0.000 HD 
HETATM    4  H2  UNL     1     -11.680   7.515  69.600  1.00  0.00     0.000 HD 
ENDROOT
BRANCH   2   5
HETATM    5  C   UNL     1     -11.658   6.897  72.180  1.00  0.00    -0.284 C  
HETATM    6  S   UNL     1     -12.874   8.075  71.615  1.00  0.00    -0.320 S  
HETATM    7  O   UNL     1     -13.214   8.742  73.047  1.00  0.00    -0.292 OA 
HETATM    8  O   UNL     1     -12.232   9.116  70.847  1.00  0.00    -0.274 OA 
HETATM    9  O   UNL     1     -14.053   7.380  71.154  1.00  0.00    -0.345 OA 
ENDBRANCH   2   5
TORSDOF 1
ENDMDL
MODEL       67
REMARK 921   NORMALIZED FREE ENERGY PREDICTED BY IDOCK:   -2.46 KCAL/MOL
REMARK 922        TOTAL FREE ENERGY PREDICTED BY IDOCK:   -2.83 KCAL/MOL
REMARK 923 INTER-LIGAND FREE ENERGY PREDICTED BY IDOCK:   -2.44 KCAL/MOL
REMARK 924 INTRA-LIGAND FREE ENERGY PREDICTED BY IDOCK:   -0.39 KCAL/MOL
REMARK 927      BINDING AFFINITY PREDICTED BY RF-SCORE:    0.00 PKD
ROOT
HETATM    1  N   UNL     1     -11.361   7.245  73.294  1.00  0.00    -0.583 NA 
HETATM    2  C   UNL     1     -11.570   6.393  72.122  1.00  0.00    -0.313 C  
HETATM    3  H1  UNL     1     -11.433   6.702  74.155  1.00  0.00     0.000 HD 
HETATM    4  H2  UNL     1     -11.996   8.043  73.298  1.00  0.00     0.000 HD 
ENDROOT
BRANCH   2   5
HETATM    5  C   UNL     1     -11.464   7.201  70.840  1.00  0.00    -0.297 C  
HETATM    6  S   UNL     1     -11.124   8.910  71.224  1.00  0.00    -0.327 S  
HETATM    7  O   UNL     1     -11.084   9.472  69.709  1.00  0.00    -0.234 OA 
HETATM    8  O   UNL     1     -12.285   9.519  71.831  1.00  0.00    -0.374 OA 
HETATM    9  O   UNL     1      -9.797   9.032  71.781  1.00  0.00    -0.310 OA 
ENDBRANCH   2   5
TORSDOF 1
ENDMDL
MODEL       68
REMARK 921   NORMALIZED FREE ENERGY PREDICTED BY IDOCK:   -2.45 KCAL/MOL
REMARK 922        TOTAL FREE ENERGY PREDICTED BY IDOCK:   -2.83 KCAL/MOL
REMARK 923 INTER-LIGAND FREE ENERGY PREDICTED BY IDOCK:   -2.80 KCAL/MOL
REMARK 924 INTRA-LIGAND FREE ENERGY PREDICTED BY IDOCK:   -0.02 KCAL/MOL
REMARK 927      BINDING AFFINITY PREDICTED BY RF-SCORE:    0.00 PKD
ROOT
HETATM    1  N   UNL     1     -13.633  15.556  70.500  1.00  0.00    -0.825 NA 
HETATM    2  C   UNL     1     -12.304  15.029  70.183  1.00  0.00    -0.333 C  
HETATM    3  H1  UNL     1     -14.055  15.037  71.270  1.00  0.00     0.000 HD 
HETATM    4  H2  UNL     1     -14.237  15.572  69.680  1.00  0.00     0.000 HD 
ENDROOT
BRANCH   2   5
HETATM    5  C   UNL     1     -11.675  15.802  69.036  1.00  0.00    -0.396 C  
HETATM    6  S   UNL     1     -11.079  14.668  67.792  1.00  0.00    -0.310 S  
HETATM    7  O   UNL     1     -10.485  15.764  66.764  1.00  0.00    -0.295 OA 
HETATM    8  O   UNL     1      -9.932  13.947  68.293  1.00  0.00    -0.226 OA 
HETATM    9  O   UNL     1     -12.195  14.012  67.153  1.00  0.00    -0.419 OA 
ENDBRANCH   2   5
TORSDOF 1
ENDMDL
MODEL       69
REMARK 921   NORMALIZED FREE ENERGY PREDICTED BY IDOCK:   -2.45 KCAL/MOL
REMARK 922        TOTAL FREE ENERGY PREDICTED BY IDOCK:   -2.83 KCAL/MOL
REMARK 923 INTER-LIGAND FREE ENERGY PREDICTED BY IDOCK:   -2.43 KCAL/MOL
REMARK 924 INTRA-LIGAND FREE ENERGY PREDICTED BY IDOCK:   -0.39 KCAL/MOL
REMARK 927      BINDING AFFINITY PREDICTED BY RF-SCORE:    0.00 PKD
ROOT
HETATM    1  N   UNL     1      -9.953  17.099  67.253  1.00  0.00    -0.267 NA 
HETATM    2  C   UNL     1     -10.135  17.658  68.594  1.00  0.00    -0.377 C  
HETATM    3  H1  UNL     1     -10.058  16.084  67.265  1.00  0.00     0.000 HD 
HETATM    4  H2  UNL     1      -9.063  17.380  66.844  1.00  0.00     0.000 HD 
ENDROOT
BRANCH   2   5
HETATM    5  C   UNL     1      -9.978  19.169  68.576  1.00  0.00    -0.425 C  
HETATM    6  S   UNL     1      -9.699  19.732  66.905  1.00  0.00    -0.419 S  
HETATM    7  O   UNL     1      -9.570  21.311  67.225  1.00  0.00    -0.240 OA 
HETATM    8  O   UNL     1      -8.388  19.320  66.459  1.00  0.00    -0.291 OA 
HETATM    9  O   UNL     1     -10.891  19.531  66.115  1.00  0.00    -0.414 OA 
ENDBRANCH   2   5
TORSDOF 1
ENDMDL
MODEL       70
REMARK 921   NORMALIZED FREE ENERGY PREDICTED BY IDOCK:   -2.42 KCAL/MOL
REMARK 922        TOTAL FREE ENERGY PREDICTED BY IDOCK:   -2.79 KCAL/MOL
REMARK 923 INTER-LIGAND FREE ENERGY PREDICTED BY IDOCK:   -2.39 KCAL/MOL
REMARK 924 INTRA-LIGAND FREE ENERGY PREDICTED BY IDOCK:   -0.39 KCAL/MOL
REMARK 927      BINDING AFFINITY PREDICTED BY RF-SCORE:    0.00 PKD
ROOT
HETATM    1  N   UNL     1     -10.137  18.400  66.282  1.00  0.00    -0.419 NA 
HETATM    2  C   UNL     1     -10.361  16.971  66.050  1.00  0.00    -0.315 C  
HETATM    3  H1  UNL     1     -11.010  18.921  66.209  1.00  0.00     0.000 HD 
HETATM    4  H2  UNL     1      -9.422  18.774  65.659  1.00  0.00     0.000 HD 
ENDROOT
BRANCH   2   5
HETATM    5  C   UNL     1      -9.060  16.194  66.158  1.00  0.00    -0.347 C  
HETATM    6  S   UNL     1      -7.736  17.289  66.642  1.00  0.00    -0.292 S  
HETATM    7  O   UNL     1      -6.543  16.198  66.654  1.00  0.00    -0.250 OA 
HETATM    8  O   UNL     1      -7.422  18.192  65.559  1.00  0.00    -0.540 OA 
HETATM    9  O   UNL     1      -7.944  17.740  67.998  1.00  0.00    -0.230 OA 
ENDBRANCH   2   5
TORSDOF 1
ENDMDL
MODEL       71
REMARK 921   NORMALIZED FREE ENERGY PREDICTED BY IDOCK:   -2.40 KCAL/MOL
REMARK 922        TOTAL FREE ENERGY PREDICTED BY IDOCK:   -2.77 KCAL/MOL
REMARK 923 INTER-LIGAND FREE ENERGY PREDICTED BY IDOCK:   -2.53 KCAL/MOL
REMARK 924 INTRA-LIGAND FREE ENERGY PREDICTED BY IDOCK:   -0.24 KCAL/MOL
REMARK 927      BINDING AFFINITY PREDICTED BY RF-SCORE:    0.00 PKD
ROOT
HETATM    1  N   UNL     1      -9.243  17.392  65.913  1.00  0.00    -0.523 NA 
HETATM    2  C   UNL     1      -7.965  17.443  66.627  1.00  0.00    -0.258 C  
HETATM    3  H1  UNL     1      -9.662  16.465  65.986  1.00  0.00     0.000 HD 
HETATM    4  H2  UNL     1      -9.144  17.686  64.942  1.00  0.00     0.000 HD 
ENDROOT
BRANCH   2   5
HETATM    5  C   UNL     1      -7.339  18.824  66.518  1.00  0.00    -0.236 C  
HETATM    6  S   UNL     1      -8.281  19.996  67.480  1.00  0.00    -0.329 S  
HETATM    7  O   UNL     1      -7.395  21.308  67.155  1.00  0.00    -0.454 OA 
HETATM    8  O   UNL     1      -9.561  20.231  66.854  1.00  0.00    -0.397 OA 
HETATM    9  O   UNL     1      -8.142  19.699  68.887  1.00  0.00    -0.330 OA 
ENDBRANCH   2   5
TORSDOF 1
ENDMDL
MODEL       72
REMARK 921   NORMALIZED FREE ENERGY PREDICTED BY IDOCK:   -2.38 KCAL/MOL
REMARK 922        TOTAL FREE ENERGY PREDICTED BY IDOCK:   -2.75 KCAL/MOL
REMARK 923 INTER-LIGAND FREE ENERGY PREDICTED BY IDOCK:   -2.74 KCAL/MOL
REMARK 924 INTRA-LIGAND FREE ENERGY PREDICTED BY IDOCK:   -0.01 KCAL/MOL
REMARK 927      BINDING AFFINITY PREDICTED BY RF-SCORE:    0.00 PKD
ROOT
HETATM    1  N   UNL     1      -8.835  14.580  66.651  1.00  0.00    -0.412 NA 
HETATM    2  C   UNL     1      -9.287  15.785  65.953  1.00  0.00    -0.321 C  
HETATM    3  H1  UNL     1      -8.280  13.988  66.033  1.00  0.00     0.000 HD 
HETATM    4  H2  UNL     1      -9.614  14.068  67.063  1.00  0.00     0.000 HD 
ENDROOT
BRANCH   2   5
HETATM    5  C   UNL     1     -10.113  16.666  66.875  1.00  0.00    -0.280 C  
HETATM    6  S   UNL     1     -10.177  18.330  66.231  1.00  0.00    -0.377 S  
HETATM    7  O   UNL     1     -11.082  18.983  67.399  1.00  0.00    -0.395 OA 
HETATM    8  O   UNL     1      -8.880  18.954  66.352  1.00  0.00    -0.313 OA 
HETATM    9  O   UNL     1     -10.942  18.352  65.006  1.00  0.00    -0.644 OA 
ENDBRANCH   2   5
TORSDOF 1
ENDMDL
MODEL       73
REMARK 921   NORMALIZED FREE ENERGY PREDICTED BY IDOCK:   -2.38 KCAL/MOL
REMARK 922        TOTAL FREE ENERGY PREDICTED BY IDOCK:   -2.75 KCAL/MOL
REMARK 923 INTER-LIGAND FREE ENERGY PREDICTED BY IDOCK:   -2.50 KCAL/MOL
REMARK 924 INTRA-LIGAND FREE ENERGY PREDICTED BY IDOCK:   -0.24 KCAL/MOL
REMARK 927      BINDING AFFINITY PREDICTED BY RF-SCORE:    0.00 PKD
ROOT
HETATM    1  N   UNL     1      -6.972  18.442  65.494  1.00  0.00    -0.528 NA 
HETATM    2  C   UNL     1      -7.162  19.801  66.004  1.00  0.00    -0.292 C  
HETATM    3  H1  UNL     1      -6.095  18.368  64.978  1.00  0.00     0.000 HD 
HETATM    4  H2  UNL     1      -7.766  18.134  64.934  1.00  0.00     0.000 HD 
ENDROOT
BRANCH   2   5
HETATM    5  C   UNL     1      -8.468  19.911  66.774  1.00  0.00    -0.328 C  
HETATM    6  S   UNL     1      -8.369  18.961  68.282  1.00  0.00    -0.341 S  
HETATM    7  O   UNL     1      -9.856  19.270  68.833  1.00  0.00    -0.422 OA 
HETATM    8  O   UNL     1      -8.356  17.550  67.974  1.00  0.00    -0.227 OA 
HETATM    9  O   UNL     1      -7.421  19.572  69.184  1.00  0.00    -0.366 OA 
ENDBRANCH   2   5
TORSDOF 1
ENDMDL
MODEL       74
REMARK 921   NORMALIZED FREE ENERGY PREDICTED BY IDOCK:   -2.38 KCAL/MOL
REMARK 922        TOTAL FREE ENERGY PREDICTED BY IDOCK:   -2.74 KCAL/MOL
REMARK 923 INTER-LIGAND FREE ENERGY PREDICTED BY IDOCK:   -2.36 KCAL/MOL
REMARK 924 INTRA-LIGAND FREE ENERGY PREDICTED BY IDOCK:   -0.39 KCAL/MOL
REMARK 927      BINDING AFFINITY PREDICTED BY RF-SCORE:    0.00 PKD
ROOT
HETATM    1  N   UNL     1     -12.574   6.329  72.325  1.00  0.00    -0.516 NA 
HETATM    2  C   UNL     1     -11.548   6.638  71.327  1.00  0.00    -0.323 C  
HETATM    3  H1  UNL     1     -12.484   5.366  72.651  1.00  0.00     0.000 HD 
HETATM    4  H2  UNL     1     -13.511   6.522  71.975  1.00  0.00     0.000 HD 
ENDROOT
BRANCH   2   5
HETATM    5  C   UNL     1     -11.681   8.071  70.841  1.00  0.00    -0.251 C  
HETATM    6  S   UNL     1     -13.085   8.851  71.621  1.00  0.00    -0.360 S  
HETATM    7  O   UNL     1     -12.956  10.296  70.910  1.00  0.00    -0.367 OA 
HETATM    8  O   UNL     1     -14.311   8.279  71.113  1.00  0.00    -0.292 OA 
HETATM    9  O   UNL     1     -12.829   9.022  73.032  1.00  0.00    -0.248 OA 
ENDBRANCH   2   5
TORSDOF 1
ENDMDL
MODEL       75
REMARK 921   NORMALIZED FREE ENERGY PREDICTED BY IDOCK:   -2.37 KCAL/MOL
REMARK 922        TOTAL FREE ENERGY PREDICTED BY IDOCK:   -2.74 KCAL/MOL
REMARK 923 INTER-LIGAND FREE ENERGY PREDICTED BY IDOCK:   -2.71 KCAL/MOL
REMARK 924 INTRA-LIGAND FREE ENERGY PREDICTED BY IDOCK:   -0.03 KCAL/MOL
REMARK 927      BINDING AFFINITY PREDICTED BY RF-SCORE:    0.00 PKD
ROOT
HETATM    1  N   UNL     1     -12.771  15.100  69.644  1.00  0.00    -0.605 NA 
HETATM    2  C   UNL     1     -11.553  14.339  69.361  1.00  0.00    -0.306 C  
HETATM    3  H1  UNL     1     -12.579  16.101  69.655  1.00  0.00     0.000 HD 
HETATM    4  H2  UNL     1     -13.216  14.792  70.508  1.00  0.00     0.000 HD 
ENDROOT
BRANCH   2   5
HETATM    5  C   UNL     1     -11.838  12.846  69.345  1.00  0.00    -0.312 C  
HETATM    6  S   UNL     1     -11.447  12.169  67.740  1.00  0.00    -0.343 S  
HETATM    7  O   UNL     1     -11.856  10.636  68.044  1.00  0.00    -0.494 OA 
HETATM    8  O   UNL     1     -12.402  12.637  66.763  1.00  0.00    -0.450 OA 
HETATM    9  O   UNL     1     -10.020  12.217  67.523  1.00  0.00    -0.195 OA 
ENDBRANCH   2   5
TORSDOF 1
ENDMDL
MODEL       76
REMARK 921   NORMALIZED FREE ENERGY PREDICTED BY IDOCK:   -2.37 KCAL/MOL
REMARK 922        TOTAL FREE ENERGY PREDICTED BY IDOCK:   -2.73 KCAL/MOL
REMARK 923 INTER-LIGAND FREE ENERGY PREDICTED BY IDOCK:   -2.34 KCAL/MOL
REMARK 924 INTRA-LIGAND FREE ENERGY PREDICTED BY IDOCK:   -0.39 KCAL/MOL
REMARK 927      BINDING AFFINITY PREDICTED BY RF-SCORE:    0.00 PKD
ROOT
HETATM    1  N   UNL     1     -10.355  16.547  65.392  1.00  0.00    -0.607 NA 
HETATM    2  C   UNL     1     -10.279  17.820  66.111  1.00  0.00    -0.339 C  
HETATM    3  H1  UNL     1     -10.328  16.697  64.384  1.00  0.00     0.000 HD 
HETATM    4  H2  UNL     1     -11.173  16.006  65.670  1.00  0.00     0.000 HD 
ENDROOT
BRANCH   2   5
HETATM    5  C   UNL     1     -10.320  17.597  67.613  1.00  0.00    -0.368 C  
HETATM    6  S   UNL     1     -10.333  15.848  67.969  1.00  0.00    -0.270 S  
HETATM    7  O   UNL     1     -10.387  15.952  69.580  1.00  0.00    -0.261 OA 
HETATM    8  O   UNL     1     -11.600  15.275  67.576  1.00  0.00    -0.316 OA 
HETATM    9  O   UNL     1      -9.065  15.263  67.600  1.00  0.00    -0.180 OA 
ENDBRANCH   2   5
TORSDOF 1
ENDMDL
MODEL       77
REMARK 921   NORMALIZED FREE ENERGY PREDICTED BY IDOCK:   -2.36 KCAL/MOL
REMARK 922        TOTAL FREE ENERGY PREDICTED BY IDOCK:   -2.73 KCAL/MOL
REMARK 923 INTER-LIGAND FREE ENERGY PREDICTED BY IDOCK:   -2.34 KCAL/MOL
REMARK 924 INTRA-LIGAND FREE ENERGY PREDICTED BY IDOCK:   -0.39 KCAL/MOL
REMARK 927      BINDING AFFINITY PREDICTED BY RF-SCORE:    0.00 PKD
ROOT
HETATM    1  N   UNL     1     -11.585   6.494  69.241  1.00  0.00    -0.643 NA 
HETATM    2  C   UNL     1     -10.659   7.620  69.379  1.00  0.00    -0.215 C  
HETATM    3  H1  UNL     1     -11.667   6.210  68.265  1.00  0.00     0.000 HD 
HETATM    4  H2  UNL     1     -12.495   6.702  69.651  1.00  0.00     0.000 HD 
ENDROOT
BRANCH   2   5
HETATM    5  C   UNL     1     -10.536   8.045  70.833  1.00  0.00    -0.213 C  
HETATM    6  S   UNL     1     -11.462   6.929  71.874  1.00  0.00    -0.286 S  
HETATM    7  O   UNL     1     -11.145   7.637  73.291  1.00  0.00    -0.382 OA 
HETATM    8  O   UNL     1     -12.878   7.115  71.657  1.00  0.00    -0.361 OA 
HETATM    9  O   UNL     1     -10.837   5.627  71.874  1.00  0.00    -0.238 OA 
ENDBRANCH   2   5
TORSDOF 1
ENDMDL
MODEL       78
REMARK 921   NORMALIZED FREE ENERGY PREDICTED BY IDOCK:   -2.36 KCAL/MOL
REMARK 922        TOTAL FREE ENERGY PREDICTED BY IDOCK:   -2.73 KCAL/MOL
REMARK 923 INTER-LIGAND FREE ENERGY PREDICTED BY IDOCK:   -2.72 KCAL/MOL
REMARK 924 INTRA-LIGAND FREE ENERGY PREDICTED BY IDOCK:   -0.01 KCAL/MOL
REMARK 927      BINDING AFFINITY PREDICTED BY RF-SCORE:    0.00 PKD
ROOT
HETATM    1  N   UNL     1     -13.144  12.833  64.742  1.00  0.00    -0.836 NA 
HETATM    2  C   UNL     1     -12.808  13.932  65.649  1.00  0.00    -0.424 C  
HETATM    3  H1  UNL     1     -13.870  13.116  64.083  1.00  0.00     0.000 HD 
HETATM    4  H2  UNL     1     -13.406  11.990  65.252  1.00  0.00     0.000 HD 
ENDROOT
BRANCH   2   5
HETATM    5  C   UNL     1     -11.726  13.512  66.630  1.00  0.00    -0.387 C  
HETATM    6  S   UNL     1     -11.020  14.953  67.412  1.00  0.00    -0.323 S  
HETATM    7  O   UNL     1      -9.945  14.191  68.346  1.00  0.00    -0.224 OA 
HETATM    8  O   UNL     1     -10.238  15.699  66.453  1.00  0.00    -0.266 OA 
HETATM    9  O   UNL     1     -12.000  15.574  68.272  1.00  0.00    -0.262 OA 
ENDBRANCH   2   5
TORSDOF 1
ENDMDL
MODEL       79
REMARK 921   NORMALIZED FREE ENERGY PREDICTED BY IDOCK:   -2.36 KCAL/MOL
REMARK 922        TOTAL FREE ENERGY PREDICTED BY IDOCK:   -2.73 KCAL/MOL
REMARK 923 INTER-LIGAND FREE ENERGY PREDICTED BY IDOCK:   -2.35 KCAL/MOL
REMARK 924 INTRA-LIGAND FREE ENERGY PREDICTED BY IDOCK:   -0.38 KCAL/MOL
REMARK 927      BINDING AFFINITY PREDICTED BY RF-SCORE:    0.00 PKD
ROOT
HETATM    1  N   UNL     1     -12.175  12.227  66.169  1.00  0.00    -0.585 NA 
HETATM    2  C   UNL     1     -10.902  12.932  66.335  1.00  0.00    -0.274 C  
HETATM    3  H1  UNL     1     -12.685  12.586  65.362  1.00  0.00     0.000 HD 
HETATM    4  H2  UNL     1     -12.739  12.263  67.018  1.00  0.00     0.000 HD 
ENDROOT
BRANCH   2   5
HETATM    5  C   UNL     1     -10.141  12.398  67.538  1.00  0.00    -0.202 C  
HETATM    6  S   UNL     1     -10.960  10.948  68.182  1.00  0.00    -0.273 S  
HETATM    7  O   UNL     1      -9.947  10.650  69.405  1.00  0.00    -0.216 OA 
HETATM    8  O   UNL     1     -12.211  11.323  68.799  1.00  0.00    -0.532 OA 
HETATM    9  O   UNL     1     -10.850   9.863  67.235  1.00  0.00    -0.267 OA 
ENDBRANCH   2   5
TORSDOF 1
ENDMDL
MODEL       80
REMARK 921   NORMALIZED FREE ENERGY PREDICTED BY IDOCK:   -2.36 KCAL/MOL
REMARK 922        TOTAL FREE ENERGY PREDICTED BY IDOCK:   -2.72 KCAL/MOL
REMARK 923 INTER-LIGAND FREE ENERGY PREDICTED BY IDOCK:   -2.37 KCAL/MOL
REMARK 924 INTRA-LIGAND FREE ENERGY PREDICTED BY IDOCK:   -0.35 KCAL/MOL
REMARK 927      BINDING AFFINITY PREDICTED BY RF-SCORE:    0.00 PKD
ROOT
HETATM    1  N   UNL     1     -12.652   7.710  70.630  1.00  0.00    -0.515 NA 
HETATM    2  C   UNL     1     -12.528   7.071  71.942  1.00  0.00    -0.311 C  
HETATM    3  H1  UNL     1     -13.510   7.418  70.164  1.00  0.00     0.000 HD 
HETATM    4  H2  UNL     1     -11.831   7.541  70.049  1.00  0.00     0.000 HD 
ENDROOT
BRANCH   2   5
HETATM    5  C   UNL     1     -11.248   7.506  72.637  1.00  0.00    -0.348 C  
HETATM    6  S   UNL     1     -10.269   8.513  71.536  1.00  0.00    -0.277 S  
HETATM    7  O   UNL     1      -9.029   8.788  72.534  1.00  0.00    -0.386 OA 
HETATM    8  O   UNL     1      -9.734   7.699  70.469  1.00  0.00    -0.181 OA 
HETATM    9  O   UNL     1     -10.939   9.771  71.297  1.00  0.00    -0.351 OA 
ENDBRANCH   2   5
TORSDOF 1
ENDMDL
MODEL       81
REMARK 921   NORMALIZED FREE ENERGY PREDICTED BY IDOCK:   -2.35 KCAL/MOL
REMARK 922        TOTAL FREE ENERGY PREDICTED BY IDOCK:   -2.72 KCAL/MOL
REMARK 923 INTER-LIGAND FREE ENERGY PREDICTED BY IDOCK:   -2.48 KCAL/MOL
REMARK 924 INTRA-LIGAND FREE ENERGY PREDICTED BY IDOCK:   -0.24 KCAL/MOL
REMARK 927      BINDING AFFINITY PREDICTED BY RF-SCORE:    0.00 PKD
ROOT
HETATM    1  N   UNL     1     -10.714  13.105  69.004  1.00  0.00    -0.409 NA 
HETATM    2  C   UNL     1     -11.788  13.740  68.238  1.00  0.00    -0.378 C  
HETATM    3  H1  UNL     1     -10.792  13.333  69.995  1.00  0.00     0.000 HD 
HETATM    4  H2  UNL     1      -9.795  13.344  68.634  1.00  0.00     0.000 HD 
ENDROOT
BRANCH   2   5
HETATM    5  C   UNL     1     -11.671  13.401  66.761  1.00  0.00    -0.385 C  
HETATM    6  S   UNL     1     -10.348  14.345  66.022  1.00  0.00    -0.323 S  
HETATM    7  O   UNL     1     -10.492  13.781  64.515  1.00  0.00    -0.434 OA 
HETATM    8  O   UNL     1     -10.718  15.739  65.951  1.00  0.00    -0.321 OA 
HETATM    9  O   UNL     1      -9.078  13.900  66.547  1.00  0.00    -0.231 OA 
ENDBRANCH   2   5
TORSDOF 1
ENDMDL
MODEL       82
REMARK 921   NORMALIZED FREE ENERGY PREDICTED BY IDOCK:   -2.35 KCAL/MOL
REMARK 922        TOTAL FREE ENERGY PREDICTED BY IDOCK:   -2.72 KCAL/MOL
REMARK 923 INTER-LIGAND FREE ENERGY PREDICTED BY IDOCK:   -2.36 KCAL/MOL
REMARK 924 INTRA-LIGAND FREE ENERGY PREDICTED BY IDOCK:   -0.36 KCAL/MOL
REMARK 927      BINDING AFFINITY PREDICTED BY RF-SCORE:    0.00 PKD
ROOT
HETATM    1  N   UNL     1      -8.197  11.110  65.277  1.00  0.00    -0.367 NA 
HETATM    2  C   UNL     1      -9.046  10.588  64.205  1.00  0.00    -0.231 C  
HETATM    3  H1  UNL     1      -7.230  10.810  65.153  1.00  0.00     0.000 HD 
HETATM    4  H2  UNL     1      -8.555  10.858  66.198  1.00  0.00     0.000 HD 
ENDROOT
BRANCH   2   5
HETATM    5  C   UNL     1     -10.487  11.035  64.389  1.00  0.00    -0.354 C  
HETATM    6  S   UNL     1     -10.658  11.917  65.932  1.00  0.00    -0.276 S  
HETATM    7  O   UNL     1     -12.240  12.230  65.831  1.00  0.00    -0.634 OA 
HETATM    8  O   UNL     1     -10.515  11.001  67.040  1.00  0.00    -0.217 OA 
HETATM    9  O   UNL     1      -9.948  13.172  65.860  1.00  0.00    -0.280 OA 
ENDBRANCH   2   5
TORSDOF 1
ENDMDL
MODEL       83
REMARK 921   NORMALIZED FREE ENERGY PREDICTED BY IDOCK:   -2.35 KCAL/MOL
REMARK 922        TOTAL FREE ENERGY PREDICTED BY IDOCK:   -2.72 KCAL/MOL
REMARK 923 INTER-LIGAND FREE ENERGY PREDICTED BY IDOCK:   -2.32 KCAL/MOL
REMARK 924 INTRA-LIGAND FREE ENERGY PREDICTED BY IDOCK:   -0.39 KCAL/MOL
REMARK 927      BINDING AFFINITY PREDICTED BY RF-SCORE:    0.00 PKD
ROOT
HETATM    1  N   UNL     1      -9.716  16.620  65.580  1.00  0.00    -0.548 NA 
HETATM    2  C   UNL     1     -10.785  15.629  65.719  1.00  0.00    -0.341 C  
HETATM    3  H1  UNL     1      -9.405  16.685  64.611  1.00  0.00     0.000 HD 
HETATM    4  H2  UNL     1      -8.940  16.428  66.213  1.00  0.00     0.000 HD 
ENDROOT
BRANCH   2   5
HETATM    5  C   UNL     1     -11.248  15.532  67.163  1.00  0.00    -0.204 C  
HETATM    6  S   UNL     1     -10.406  16.752  68.156  1.00  0.00    -0.335 S  
HETATM    7  O   UNL     1     -11.089  16.389  69.575  1.00  0.00    -0.316 OA 
HETATM    8  O   UNL     1      -9.013  16.397  68.296  1.00  0.00    -0.196 OA 
HETATM    9  O   UNL     1     -10.840  18.076  67.777  1.00  0.00    -0.383 OA 
ENDBRANCH   2   5
TORSDOF 1
ENDMDL
MODEL       84
REMARK 921   NORMALIZED FREE ENERGY PREDICTED BY IDOCK:   -2.35 KCAL/MOL
REMARK 922        TOTAL FREE ENERGY PREDICTED BY IDOCK:   -2.71 KCAL/MOL
REMARK 923 INTER-LIGAND FREE ENERGY PREDICTED BY IDOCK:   -2.32 KCAL/MOL
REMARK 924 INTRA-LIGAND FREE ENERGY PREDICTED BY IDOCK:   -0.39 KCAL/MOL
REMARK 927      BINDING AFFINITY PREDICTED BY RF-SCORE:    0.00 PKD
ROOT
HETATM    1  N   UNL     1     -11.583  12.109  70.305  1.00  0.00    -0.529 NA 
HETATM    2  C   UNL     1     -12.502  12.955  71.069  1.00  0.00    -0.283 C  
HETATM    3  H1  UNL     1     -11.559  11.163  70.687  1.00  0.00     0.000 HD 
HETATM    4  H2  UNL     1     -10.651  12.517  70.252  1.00  0.00     0.000 HD 
ENDROOT
BRANCH   2   5
HETATM    5  C   UNL     1     -12.537  14.364  70.501  1.00  0.00    -0.353 C  
HETATM    6  S   UNL     1     -11.572  14.441  69.001  1.00  0.00    -0.317 S  
HETATM    7  O   UNL     1     -11.799  16.007  68.674  1.00  0.00    -0.367 OA 
HETATM    8  O   UNL     1     -10.167  14.312  69.314  1.00  0.00    -0.150 OA 
HETATM    9  O   UNL     1     -12.215  13.669  67.964  1.00  0.00    -0.323 OA 
ENDBRANCH   2   5
TORSDOF 1
ENDMDL
MODEL       85
REMARK 921   NORMALIZED FREE ENERGY PREDICTED BY IDOCK:   -2.35 KCAL/MOL
REMARK 922        TOTAL FREE ENERGY PREDICTED BY IDOCK:   -2.71 KCAL/MOL
REMARK 923 INTER-LIGAND FREE ENERGY PREDICTED BY IDOCK:   -2.70 KCAL/MOL
REMARK 924 INTRA-LIGAND FREE ENERGY PREDICTED BY IDOCK:   -0.01 KCAL/MOL
REMARK 927      BINDING AFFINITY PREDICTED BY RF-SCORE:    0.00 PKD
ROOT
HETATM    1  N   UNL     1      -7.514  19.716  69.080  1.00  0.00    -0.346 NA 
HETATM    2  C   UNL     1      -8.550  18.721  68.794  1.00  0.00    -0.281 C  
HETATM    3  H1  UNL     1      -6.923  19.412  69.854  1.00  0.00     0.000 HD 
HETATM    4  H2  UNL     1      -7.914  20.638  69.251  1.00  0.00     0.000 HD 
ENDROOT
BRANCH   2   5
HETATM    5  C   UNL     1      -9.431  19.174  67.641  1.00  0.00    -0.304 C  
HETATM    6  S   UNL     1      -9.857  17.777  66.615  1.00  0.00    -0.337 S  
HETATM    7  O   UNL     1     -10.750  18.569  65.526  1.00  0.00    -0.586 OA 
HETATM    8  O   UNL     1      -8.689  17.319  65.898  1.00  0.00    -0.528 OA 
HETATM    9  O   UNL     1     -10.727  16.882  67.342  1.00  0.00    -0.316 OA 
ENDBRANCH   2   5
TORSDOF 1
ENDMDL
MODEL       86
REMARK 921   NORMALIZED FREE ENERGY PREDICTED BY IDOCK:   -2.33 KCAL/MOL
REMARK 922        TOTAL FREE ENERGY PREDICTED BY IDOCK:   -2.69 KCAL/MOL
REMARK 923 INTER-LIGAND FREE ENERGY PREDICTED BY IDOCK:   -2.30 KCAL/MOL
REMARK 924 INTRA-LIGAND FREE ENERGY PREDICTED BY IDOCK:   -0.39 KCAL/MOL
REMARK 927      BINDING AFFINITY PREDICTED BY RF-SCORE:    0.00 PKD
ROOT
HETATM    1  N   UNL     1      -8.910  18.721  68.612  1.00  0.00    -0.339 NA 
HETATM    2  C   UNL     1      -7.595  19.327  68.825  1.00  0.00    -0.358 C  
HETATM    3  H1  UNL     1      -9.459  18.734  69.471  1.00  0.00     0.000 HD 
HETATM    4  H2  UNL     1      -8.834  17.780  68.228  1.00  0.00     0.000 HD 
ENDROOT
BRANCH   2   5
HETATM    5  C   UNL     1      -6.776  19.307  67.545  1.00  0.00    -0.195 C  
HETATM    6  S   UNL     1      -7.705  18.518  66.240  1.00  0.00    -0.231 S  
HETATM    7  O   UNL     1      -6.595  18.647  65.073  1.00  0.00    -0.505 OA 
HETATM    8  O   UNL     1      -7.823  17.103  66.506  1.00  0.00    -0.233 OA 
HETATM    9  O   UNL     1      -8.834  19.341  65.877  1.00  0.00    -0.440 OA 
ENDBRANCH   2   5
TORSDOF 1
ENDMDL
MODEL       87
REMARK 921   NORMALIZED FREE ENERGY PREDICTED BY IDOCK:   -2.32 KCAL/MOL
REMARK 922        TOTAL FREE ENERGY PREDICTED BY IDOCK:   -2.68 KCAL/MOL
REMARK 923 INTER-LIGAND FREE ENERGY PREDICTED BY IDOCK:   -2.48 KCAL/MOL
REMARK 924 INTRA-LIGAND FREE ENERGY PREDICTED BY IDOCK:   -0.20 KCAL/MOL
REMARK 927      BINDING AFFINITY PREDICTED BY RF-SCORE:    0.00 PKD
ROOT
HETATM    1  N   UNL     1      -9.417  15.181  69.833  1.00  0.00    -0.468 NA 
HETATM    2  C   UNL     1     -10.807  15.593  70.032  1.00  0.00    -0.330 C  
HETATM    3  H1  UNL     1      -8.900  15.212  70.712  1.00  0.00     0.000 HD 
HETATM    4  H2  UNL     1      -8.960  15.732  69.108  1.00  0.00     0.000 HD 
ENDROOT
BRANCH   2   5
HETATM    5  C   UNL     1     -11.578  15.547  68.723  1.00  0.00    -0.378 C  
HETATM    6  S   UNL     1     -11.345  13.963  67.935  1.00  0.00    -0.310 S  
HETATM    7  O   UNL     1     -12.248  14.236  66.622  1.00  0.00    -0.449 OA 
HETATM    8  O   UNL     1      -9.988  13.847  67.453  1.00  0.00    -0.235 OA 
HETATM    9  O   UNL     1     -11.988  12.930  68.713  1.00  0.00    -0.311 OA 
ENDBRANCH   2   5
TORSDOF 1
ENDMDL
MODEL       88
REMARK 921   NORMALIZED FREE ENERGY PREDICTED BY IDOCK:   -2.28 KCAL/MOL
REMARK 922        TOTAL FREE ENERGY PREDICTED BY IDOCK:   -2.64 KCAL/MOL
REMARK 923 INTER-LIGAND FREE ENERGY PREDICTED BY IDOCK:   -2.41 KCAL/MOL
REMARK 924 INTRA-LIGAND FREE ENERGY PREDICTED BY IDOCK:   -0.24 KCAL/MOL
REMARK 927      BINDING AFFINITY PREDICTED BY RF-SCORE:    0.00 PKD
ROOT
HETATM    1  N   UNL     1     -11.352   8.694  70.033  1.00  0.00    -0.448 NA 
HETATM    2  C   UNL     1     -11.305  10.111  70.399  1.00  0.00    -0.326 C  
HETATM    3  H1  UNL     1     -10.858   8.125  70.720  1.00  0.00     0.000 HD 
HETATM    4  H2  UNL     1     -10.999   8.537  69.090  1.00  0.00     0.000 HD 
ENDROOT
BRANCH   2   5
HETATM    5  C   UNL     1     -12.040  10.960  69.375  1.00  0.00    -0.290 C  
HETATM    6  S   UNL     1     -11.027  11.173  67.921  1.00  0.00    -0.276 S  
HETATM    7  O   UNL     1     -12.052  12.089  67.072  1.00  0.00    -0.603 OA 
HETATM    8  O   UNL     1      -9.904  12.030  68.225  1.00  0.00    -0.196 OA 
HETATM    9  O   UNL     1     -10.882   9.910  67.236  1.00  0.00    -0.267 OA 
ENDBRANCH   2   5
TORSDOF 1
ENDMDL
MODEL       89
REMARK 921   NORMALIZED FREE ENERGY PREDICTED BY IDOCK:   -2.27 KCAL/MOL
REMARK 922        TOTAL FREE ENERGY PREDICTED BY IDOCK:   -2.63 KCAL/MOL
REMARK 923 INTER-LIGAND FREE ENERGY PREDICTED BY IDOCK:   -2.24 KCAL/MOL
REMARK 924 INTRA-LIGAND FREE ENERGY PREDICTED BY IDOCK:   -0.39 KCAL/MOL
REMARK 927      BINDING AFFINITY PREDICTED BY RF-SCORE:    0.00 PKD
ROOT
HETATM    1  N   UNL     1     -10.942   8.580  67.597  1.00  0.00    -0.481 NA 
HETATM    2  C   UNL     1     -10.093   9.215  66.587  1.00  0.00    -0.273 C  
HETATM    3  H1  UNL     1     -11.079   7.592  67.387  1.00  0.00     0.000 HD 
HETATM    4  H2  UNL     1     -11.830   9.069  67.705  1.00  0.00     0.000 HD 
ENDROOT
BRANCH   2   5
HETATM    5  C   UNL     1      -9.889  10.688  66.900  1.00  0.00    -0.188 C  
HETATM    6  S   UNL     1     -10.791  11.128  68.376  1.00  0.00    -0.226 S  
HETATM    7  O   UNL     1     -10.388  12.692  68.422  1.00  0.00    -0.228 OA 
HETATM    8  O   UNL     1     -12.211  11.103  68.110  1.00  0.00    -0.612 OA 
HETATM    9  O   UNL     1     -10.201  10.479  69.523  1.00  0.00    -0.227 OA 
ENDBRANCH   2   5
TORSDOF 1
ENDMDL
MODEL       90
REMARK 921   NORMALIZED FREE ENERGY PREDICTED BY IDOCK:   -2.25 KCAL/MOL
REMARK 922        TOTAL FREE ENERGY PREDICTED BY IDOCK:   -2.61 KCAL/MOL
REMARK 923 INTER-LIGAND FREE ENERGY PREDICTED BY IDOCK:   -2.38 KCAL/MOL
REMARK 924 INTRA-LIGAND FREE ENERGY PREDICTED BY IDOCK:   -0.24 KCAL/MOL
REMARK 927      BINDING AFFINITY PREDICTED BY RF-SCORE:    0.00 PKD
ROOT
HETATM    1  N   UNL     1     -12.339  14.499  67.687  1.00  0.00    -0.585 NA 
HETATM    2  C   UNL     1     -11.726  13.336  68.331  1.00  0.00    -0.354 C  
HETATM    3  H1  UNL     1     -12.440  15.269  68.348  1.00  0.00     0.000 HD 
HETATM    4  H2  UNL     1     -13.227  14.261  67.247  1.00  0.00     0.000 HD 
ENDROOT
BRANCH   2   5
HETATM    5  C   UNL     1     -11.575  12.189  67.347  1.00  0.00    -0.340 C  
HETATM    6  S   UNL     1     -10.529  12.685  65.988  1.00  0.00    -0.273 S  
HETATM    7  O   UNL     1     -10.580  11.302  65.155  1.00  0.00    -0.290 OA 
HETATM    8  O   UNL     1     -11.216  13.656  65.168  1.00  0.00    -0.298 OA 
HETATM    9  O   UNL     1      -9.176  12.877  66.456  1.00  0.00    -0.235 OA 
ENDBRANCH   2   5
TORSDOF 1
ENDMDL
MODEL       91
REMARK 921   NORMALIZED FREE ENERGY PREDICTED BY IDOCK:   -2.23 KCAL/MOL
REMARK 922        TOTAL FREE ENERGY PREDICTED BY IDOCK:   -2.59 KCAL/MOL
REMARK 923 INTER-LIGAND FREE ENERGY PREDICTED BY IDOCK:   -2.25 KCAL/MOL
REMARK 924 INTRA-LIGAND FREE ENERGY PREDICTED BY IDOCK:   -0.34 KCAL/MOL
REMARK 927      BINDING AFFINITY PREDICTED BY RF-SCORE:    0.00 PKD
ROOT
HETATM    1  N   UNL     1      -9.286  14.618  69.321  1.00  0.00    -0.406 NA 
HETATM    2  C   UNL     1      -8.296  15.696  69.304  1.00  0.00    -0.256 C  
HETATM    3  H1  UNL     1      -8.885  13.763  69.707  1.00  0.00     0.000 HD 
HETATM    4  H2  UNL     1      -9.689  14.462  68.398  1.00  0.00     0.000 HD 
ENDROOT
BRANCH   2   5
HETATM    5  C   UNL     1      -8.893  16.970  68.729  1.00  0.00    -0.244 C  
HETATM    6  S   UNL     1     -10.521  16.639  68.077  1.00  0.00    -0.332 S  
HETATM    7  O   UNL     1     -10.855  18.132  67.556  1.00  0.00    -0.389 OA 
HETATM    8  O   UNL     1     -10.418  15.828  66.886  1.00  0.00    -0.304 OA 
HETATM    9  O   UNL     1     -11.427  16.328  69.157  1.00  0.00    -0.320 OA 
ENDBRANCH   2   5
TORSDOF 1
ENDMDL
MODEL       92
REMARK 921   NORMALIZED FREE ENERGY PREDICTED BY IDOCK:   -2.23 KCAL/MOL
REMARK 922        TOTAL FREE ENERGY PREDICTED BY IDOCK:   -2.58 KCAL/MOL
REMARK 923 INTER-LIGAND FREE ENERGY PREDICTED BY IDOCK:   -2.44 KCAL/MOL
REMARK 924 INTRA-LIGAND FREE ENERGY PREDICTED BY IDOCK:   -0.14 KCAL/MOL
REMARK 927      BINDING AFFINITY PREDICTED BY RF-SCORE:    0.00 PKD
ROOT
HETATM    1  N   UNL     1     -11.195   8.897  69.330  1.00  0.00    -0.422 NA 
HETATM    2  C   UNL     1     -10.386   9.727  70.223  1.00  0.00    -0.291 C  
HETATM    3  H1  UNL     1     -11.398   9.390  68.460  1.00  0.00     0.000 HD 
HETATM    4  H2  UNL     1     -12.047   8.572  69.786  1.00  0.00     0.000 HD 
ENDROOT
BRANCH   2   5
HETATM    5  C   UNL     1     -10.083   8.993  71.519  1.00  0.00    -0.339 C  
HETATM    6  S   UNL     1     -11.469   7.964  71.973  1.00  0.00    -0.323 S  
HETATM    7  O   UNL     1     -10.853   7.358  73.338  1.00  0.00    -0.388 OA 
HETATM    8  O   UNL     1     -12.581   8.790  72.385  1.00  0.00    -0.385 OA 
HETATM    9  O   UNL     1     -11.608   6.883  71.026  1.00  0.00    -0.291 OA 
ENDBRANCH   2   5
TORSDOF 1
ENDMDL
MODEL       93
REMARK 921   NORMALIZED FREE ENERGY PREDICTED BY IDOCK:   -2.22 KCAL/MOL
REMARK 922        TOTAL FREE ENERGY PREDICTED BY IDOCK:   -2.58 KCAL/MOL
REMARK 923 INTER-LIGAND FREE ENERGY PREDICTED BY IDOCK:   -2.34 KCAL/MOL
REMARK 924 INTRA-LIGAND FREE ENERGY PREDICTED BY IDOCK:   -0.24 KCAL/MOL
REMARK 927      BINDING AFFINITY PREDICTED BY RF-SCORE:    0.00 PKD
ROOT
HETATM    1  N   UNL     1     -11.922  16.375  71.488  1.00  0.00    -0.635 NA 
HETATM    2  C   UNL     1     -11.685  14.981  71.107  1.00  0.00    -0.337 C  
HETATM    3  H1  UNL     1     -12.003  16.466  72.500  1.00  0.00     0.000 HD 
HETATM    4  H2  UNL     1     -12.733  16.764  71.009  1.00  0.00     0.000 HD 
ENDROOT
BRANCH   2   5
HETATM    5  C   UNL     1     -11.565  14.845  69.599  1.00  0.00    -0.303 C  
HETATM    6  S   UNL     1     -10.183  15.808  69.008  1.00  0.00    -0.240 S  
HETATM    7  O   UNL     1     -10.335  15.468  67.436  1.00  0.00    -0.256 OA 
HETATM    8  O   UNL     1     -10.478  17.217  69.129  1.00  0.00    -0.329 OA 
HETATM    9  O   UNL     1      -8.946  15.227  69.475  1.00  0.00    -0.242 OA 
ENDBRANCH   2   5
TORSDOF 1
ENDMDL
MODEL       94
REMARK 921   NORMALIZED FREE ENERGY PREDICTED BY IDOCK:   -2.21 KCAL/MOL
REMARK 922        TOTAL FREE ENERGY PREDICTED BY IDOCK:   -2.57 KCAL/MOL
REMARK 923 INTER-LIGAND FREE ENERGY PREDICTED BY IDOCK:   -2.34 KCAL/MOL
REMARK 924 INTRA-LIGAND FREE ENERGY PREDICTED BY IDOCK:   -0.23 KCAL/MOL
REMARK 927      BINDING AFFINITY PREDICTED BY RF-SCORE:    0.00 PKD
ROOT
HETATM    1  N   UNL     1     -10.462  17.072  67.972  1.00  0.00    -0.339 NA 
HETATM    2  C   UNL     1     -10.425  16.514  66.619  1.00  0.00    -0.266 C  
HETATM    3  H1  UNL     1     -10.607  18.081  67.944  1.00  0.00     0.000 HD 
HETATM    4  H2  UNL     1      -9.629  16.825  68.504  1.00  0.00     0.000 HD 
ENDROOT
BRANCH   2   5
HETATM    5  C   UNL     1     -10.208  15.010  66.660  1.00  0.00    -0.268 C  
HETATM    6  S   UNL     1     -11.746  14.184  67.033  1.00  0.00    -0.422 S  
HETATM    7  O   UNL     1     -11.190  12.667  67.013  1.00  0.00    -0.271 OA 
HETATM    8  O   UNL     1     -12.121  14.439  68.405  1.00  0.00    -0.322 OA 
HETATM    9  O   UNL     1     -12.665  14.338  65.930  1.00  0.00    -0.451 OA 
ENDBRANCH   2   5
TORSDOF 1
ENDMDL
MODEL       95
REMARK 921   NORMALIZED FREE ENERGY PREDICTED BY IDOCK:   -2.20 KCAL/MOL
REMARK 922        TOTAL FREE ENERGY PREDICTED BY IDOCK:   -2.56 KCAL/MOL
REMARK 923 INTER-LIGAND FREE ENERGY PREDICTED BY IDOCK:   -2.32 KCAL/MOL
REMARK 924 INTRA-LIGAND FREE ENERGY PREDICTED BY IDOCK:   -0.24 KCAL/MOL
REMARK 927      BINDING AFFINITY PREDICTED BY RF-SCORE:    0.00 PKD
ROOT
HETATM    1  N   UNL     1      -8.889   9.732  70.614  1.00  0.00    -0.367 NA 
HETATM    2  C   UNL     1     -10.318   9.584  70.897  1.00  0.00    -0.302 C  
HETATM    3  H1  UNL     1      -8.338   9.619  71.465  1.00  0.00     0.000 HD 
HETATM    4  H2  UNL     1      -8.687  10.616  70.149  1.00  0.00     0.000 HD 
ENDROOT
BRANCH   2   5
HETATM    5  C   UNL     1     -11.140   9.752  69.630  1.00  0.00    -0.217 C  
HETATM    6  S   UNL     1     -11.226  11.479  69.185  1.00  0.00    -0.292 S  
HETATM    7  O   UNL     1     -12.139  11.318  67.861  1.00  0.00    -0.634 OA 
HETATM    8  O   UNL     1     -12.048  12.191  70.136  1.00  0.00    -0.324 OA 
HETATM    9  O   UNL     1      -9.922  11.945  68.776  1.00  0.00    -0.184 OA 
ENDBRANCH   2   5
TORSDOF 1
ENDMDL
MODEL       96
REMARK 921   NORMALIZED FREE ENERGY PREDICTED BY IDOCK:   -2.18 KCAL/MOL
REMARK 922        TOTAL FREE ENERGY PREDICTED BY IDOCK:   -2.54 KCAL/MOL
REMARK 923 INTER-LIGAND FREE ENERGY PREDICTED BY IDOCK:   -2.52 KCAL/MOL
REMARK 924 INTRA-LIGAND FREE ENERGY PREDICTED BY IDOCK:   -0.02 KCAL/MOL
REMARK 927      BINDING AFFINITY PREDICTED BY RF-SCORE:    0.00 PKD
ROOT
HETATM    1  N   UNL     1     -12.358  10.654  69.160  1.00  0.00    -0.755 NA 
HETATM    2  C   UNL     1     -11.923  10.162  70.469  1.00  0.00    -0.311 C  
HETATM    3  H1  UNL     1     -12.990  11.448  69.263  1.00  0.00     0.000 HD 
HETATM    4  H2  UNL     1     -12.773   9.913  68.598  1.00  0.00     0.000 HD 
ENDROOT
BRANCH   2   5
HETATM    5  C   UNL     1     -10.982   8.978  70.316  1.00  0.00    -0.244 C  
HETATM    6  S   UNL     1     -11.460   7.672  71.436  1.00  0.00    -0.271 S  
HETATM    7  O   UNL     1     -10.302   6.615  71.045  1.00  0.00    -0.204 OA 
HETATM    8  O   UNL     1     -11.180   8.065  72.798  1.00  0.00    -0.384 OA 
HETATM    9  O   UNL     1     -12.729   7.118  71.028  1.00  0.00    -0.352 OA 
ENDBRANCH   2   5
TORSDOF 1
ENDMDL
MODEL       97
REMARK 921   NORMALIZED FREE ENERGY PREDICTED BY IDOCK:   -2.18 KCAL/MOL
REMARK 922        TOTAL FREE ENERGY PREDICTED BY IDOCK:   -2.54 KCAL/MOL
REMARK 923 INTER-LIGAND FREE ENERGY PREDICTED BY IDOCK:   -2.52 KCAL/MOL
REMARK 924 INTRA-LIGAND FREE ENERGY PREDICTED BY IDOCK:   -0.02 KCAL/MOL
REMARK 927      BINDING AFFINITY PREDICTED BY RF-SCORE:    0.00 PKD
ROOT
HETATM    1  N   UNL     1     -11.559  11.493  70.530  1.00  0.00    -0.464 NA 
HETATM    2  C   UNL     1     -12.490  12.614  70.671  1.00  0.00    -0.239 C  
HETATM    3  H1  UNL     1     -11.703  10.806  71.270  1.00  0.00     0.000 HD 
HETATM    4  H2  UNL     1     -10.591  11.810  70.493  1.00  0.00     0.000 HD 
ENDROOT
BRANCH   2   5
HETATM    5  C   UNL     1     -12.276  13.638  69.569  1.00  0.00    -0.264 C  
HETATM    6  S   UNL     1     -12.219  15.280  70.267  1.00  0.00    -0.376 S  
HETATM    7  O   UNL     1     -12.000  16.096  68.890  1.00  0.00    -0.296 OA 
HETATM    8  O   UNL     1     -13.530  15.661  70.737  1.00  0.00    -0.536 OA 
HETATM    9  O   UNL     1     -11.028  15.430  71.070  1.00  0.00    -0.342 OA 
ENDBRANCH   2   5
TORSDOF 1
ENDMDL
MODEL       98
REMARK 921   NORMALIZED FREE ENERGY PREDICTED BY IDOCK:   -2.18 KCAL/MOL
REMARK 922        TOTAL FREE ENERGY PREDICTED BY IDOCK:   -2.54 KCAL/MOL
REMARK 923 INTER-LIGAND FREE ENERGY PREDICTED BY IDOCK:   -2.40 KCAL/MOL
REMARK 924 INTRA-LIGAND FREE ENERGY PREDICTED BY IDOCK:   -0.13 KCAL/MOL
REMARK 927      BINDING AFFINITY PREDICTED BY RF-SCORE:    0.00 PKD
ROOT
HETATM    1  N   UNL     1     -12.811  10.164  70.173  1.00  0.00    -0.565 NA 
HETATM    2  C   UNL     1     -11.449   9.918  70.652  1.00  0.00    -0.334 C  
HETATM    3  H1  UNL     1     -13.495   9.701  70.771  1.00  0.00     0.000 HD 
HETATM    4  H2  UNL     1     -12.922   9.895  69.196  1.00  0.00     0.000 HD 
ENDROOT
BRANCH   2   5
HETATM    5  C   UNL     1     -10.430  10.607  69.760  1.00  0.00    -0.143 C  
HETATM    6  S   UNL     1     -10.963  10.538  68.058  1.00  0.00    -0.303 S  
HETATM    7  O   UNL     1      -9.708  11.316  67.403  1.00  0.00    -0.172 OA 
HETATM    8  O   UNL     1     -10.875   9.182  67.570  1.00  0.00    -0.242 OA 
HETATM    9  O   UNL     1     -12.139  11.357  67.880  1.00  0.00    -0.646 OA 
ENDBRANCH   2   5
TORSDOF 1
ENDMDL
MODEL       99
REMARK 921   NORMALIZED FREE ENERGY PREDICTED BY IDOCK:   -2.18 KCAL/MOL
REMARK 922        TOTAL FREE ENERGY PREDICTED BY IDOCK:   -2.53 KCAL/MOL
REMARK 923 INTER-LIGAND FREE ENERGY PREDICTED BY IDOCK:   -2.53 KCAL/MOL
REMARK 924 INTRA-LIGAND FREE ENERGY PREDICTED BY IDOCK:   -0.01 KCAL/MOL
REMARK 927      BINDING AFFINITY PREDICTED BY RF-SCORE:    0.00 PKD
ROOT
HETATM    1  N   UNL     1     -11.483  15.012  69.066  1.00  0.00    -0.286 NA 
HETATM    2  C   UNL     1     -11.173  16.439  68.955  1.00  0.00    -0.304 C  
HETATM    3  H1  UNL     1     -11.980  14.816  69.935  1.00  0.00     0.000 HD 
HETATM    4  H2  UNL     1     -10.647  14.437  68.971  1.00  0.00     0.000 HD 
ENDROOT
BRANCH   2   5
HETATM    5  C   UNL     1     -10.433  16.733  67.660  1.00  0.00    -0.328 C  
HETATM    6  S   UNL     1      -9.961  18.454  67.606  1.00  0.00    -0.356 S  
HETATM    7  O   UNL     1      -9.236  18.436  66.162  1.00  0.00    -0.468 OA 
HETATM    8  O   UNL     1     -11.135  19.280  67.439  1.00  0.00    -0.444 OA 
HETATM    9  O   UNL     1      -8.957  18.718  68.609  1.00  0.00    -0.340 OA 
ENDBRANCH   2   5
TORSDOF 1
ENDMDL
MODEL      100
REMARK 921   NORMALIZED FREE ENERGY PREDICTED BY IDOCK:   -2.18 KCAL/MOL
REMARK 922        TOTAL FREE ENERGY PREDICTED BY IDOCK:   -2.53 KCAL/MOL
REMARK 923 INTER-LIGAND FREE ENERGY PREDICTED BY IDOCK:   -2.30 KCAL/MOL
REMARK 924 INTRA-LIGAND FREE ENERGY PREDICTED BY IDOCK:   -0.23 KCAL/MOL
REMARK 927      BINDING AFFINITY PREDICTED BY RF-SCORE:    0.00 PKD
ROOT
HETATM    1  N   UNL     1     -11.524   4.453  64.964  1.00  0.00    -1.079 NA 
HETATM    2  C   UNL     1     -10.107   4.129  65.137  1.00  0.00    -0.209 C  
HETATM    3  H1  UNL     1     -11.816   4.299  63.999  1.00  0.00     0.000 HD 
HETATM    4  H2  UNL     1     -11.735   5.401  65.275  1.00  0.00     0.000 HD 
ENDROOT
BRANCH   2   5
HETATM    5  C   UNL     1      -9.671   4.359  66.575  1.00  0.00    -0.215 C  
HETATM    6  S   UNL     1      -9.858   6.083  66.999  1.00  0.00    -0.166 S  
HETATM    7  O   UNL     1      -9.322   5.993  68.521  1.00  0.00    -0.117 OA 
HETATM    8  O   UNL     1      -8.878   6.873  66.291  1.00  0.00    -0.140 OA 
HETATM    9  O   UNL     1     -11.260   6.429  67.038  1.00  0.00    -0.373 OA 
ENDBRANCH   2   5
TORSDOF 1
ENDMDL
MODEL      101
REMARK 921   NORMALIZED FREE ENERGY PREDICTED BY IDOCK:   -2.17 KCAL/MOL
REMARK 922        TOTAL FREE ENERGY PREDICTED BY IDOCK:   -2.52 KCAL/MOL
REMARK 923 INTER-LIGAND FREE ENERGY PREDICTED BY IDOCK:   -2.48 KCAL/MOL
REMARK 924 INTRA-LIGAND FREE ENERGY PREDICTED BY IDOCK:   -0.04 KCAL/MOL
REMARK 927      BINDING AFFINITY PREDICTED BY RF-SCORE:    0.00 PKD
ROOT
HETATM    1  N   UNL     1      -9.938   9.601  65.257  1.00  0.00    -0.405 NA 
HETATM    2  C   UNL     1     -10.262  11.025  65.143  1.00  0.00    -0.291 C  
HETATM    3  H1  UNL     1     -10.241   9.093  64.426  1.00  0.00     0.000 HD 
HETATM    4  H2  UNL     1     -10.323   9.194  66.108  1.00  0.00     0.000 HD 
ENDROOT
BRANCH   2   5
HETATM    5  C   UNL     1      -9.811  11.782  66.381  1.00  0.00    -0.214 C  
HETATM    6  S   UNL     1     -11.233  12.336  67.307  1.00  0.00    -0.321 S  
HETATM    7  O   UNL     1     -10.441  13.081  68.502  1.00  0.00    -0.249 OA 
HETATM    8  O   UNL     1     -11.915  13.383  66.583  1.00  0.00    -0.381 OA 
HETATM    9  O   UNL     1     -11.924  11.199  67.870  1.00  0.00    -0.624 OA 
ENDBRANCH   2   5
TORSDOF 1
ENDMDL
MODEL      102
REMARK 921   NORMALIZED FREE ENERGY PREDICTED BY IDOCK:   -2.17 KCAL/MOL
REMARK 922        TOTAL FREE ENERGY PREDICTED BY IDOCK:   -2.52 KCAL/MOL
REMARK 923 INTER-LIGAND FREE ENERGY PREDICTED BY IDOCK:   -2.28 KCAL/MOL
REMARK 924 INTRA-LIGAND FREE ENERGY PREDICTED BY IDOCK:   -0.24 KCAL/MOL
REMARK 927      BINDING AFFINITY PREDICTED BY RF-SCORE:    0.00 PKD
ROOT
HETATM    1  N   UNL     1     -11.783   4.867  73.400  1.00  0.00    -0.435 NA 
HETATM    2  C   UNL     1     -10.628   4.980  72.507  1.00  0.00    -0.219 C  
HETATM    3  H1  UNL     1     -11.902   3.905  73.718  1.00  0.00     0.000 HD 
HETATM    4  H2  UNL     1     -12.631   5.228  72.966  1.00  0.00     0.000 HD 
ENDROOT
BRANCH   2   5
HETATM    5  C   UNL     1     -10.450   6.412  72.032  1.00  0.00    -0.208 C  
HETATM    6  S   UNL     1     -11.751   6.841  70.887  1.00  0.00    -0.385 S  
HETATM    7  O   UNL     1     -11.281   8.356  70.579  1.00  0.00    -0.256 OA 
HETATM    8  O   UNL     1     -11.572   6.121  69.647  1.00  0.00    -0.407 OA 
HETATM    9  O   UNL     1     -13.015   6.896  71.582  1.00  0.00    -0.370 OA 
ENDBRANCH   2   5
TORSDOF 1
ENDMDL
MODEL      103
REMARK 921   NORMALIZED FREE ENERGY PREDICTED BY IDOCK:   -2.16 KCAL/MOL
REMARK 922        TOTAL FREE ENERGY PREDICTED BY IDOCK:   -2.51 KCAL/MOL
REMARK 923 INTER-LIGAND FREE ENERGY PREDICTED BY IDOCK:   -2.33 KCAL/MOL
REMARK 924 INTRA-LIGAND FREE ENERGY PREDICTED BY IDOCK:   -0.18 KCAL/MOL
REMARK 927      BINDING AFFINITY PREDICTED BY RF-SCORE:    0.00 PKD
ROOT
HETATM    1  N   UNL     1     -10.752  16.737  68.672  1.00  0.00    -0.342 NA 
HETATM    2  C   UNL     1      -9.309  16.882  68.876  1.00  0.00    -0.229 C  
HETATM    3  H1  UNL     1     -11.142  16.048  69.314  1.00  0.00     0.000 HD 
HETATM    4  H2  UNL     1     -10.975  16.516  67.702  1.00  0.00     0.000 HD 
ENDROOT
BRANCH   2   5
HETATM    5  C   UNL     1      -8.727  17.909  67.919  1.00  0.00    -0.252 C  
HETATM    6  S   UNL     1      -8.217  17.110  66.406  1.00  0.00    -0.288 S  
HETATM    7  O   UNL     1      -7.659  18.421  65.644  1.00  0.00    -0.522 OA 
HETATM    8  O   UNL     1      -7.057  16.284  66.653  1.00  0.00    -0.198 OA 
HETATM    9  O   UNL     1      -9.376  16.634  65.689  1.00  0.00    -0.502 OA 
ENDBRANCH   2   5
TORSDOF 1
ENDMDL
MODEL      104
REMARK 921   NORMALIZED FREE ENERGY PREDICTED BY IDOCK:   -2.15 KCAL/MOL
REMARK 922        TOTAL FREE ENERGY PREDICTED BY IDOCK:   -2.51 KCAL/MOL
REMARK 923 INTER-LIGAND FREE ENERGY PREDICTED BY IDOCK:   -2.27 KCAL/MOL
REMARK 924 INTRA-LIGAND FREE ENERGY PREDICTED BY IDOCK:   -0.24 KCAL/MOL
REMARK 927      BINDING AFFINITY PREDICTED BY RF-SCORE:    0.00 PKD
ROOT
HETATM    1  N   UNL     1      -7.077  18.287  65.426  1.00  0.00    -0.518 NA 
HETATM    2  C   UNL     1      -6.931  17.720  66.769  1.00  0.00    -0.193 C  
HETATM    3  H1  UNL     1      -6.178  18.607  65.067  1.00  0.00     0.000 HD 
HETATM    4  H2  UNL     1      -7.777  19.028  65.405  1.00  0.00     0.000 HD 
ENDROOT
BRANCH   2   5
HETATM    5  C   UNL     1      -8.271  17.244  67.304  1.00  0.00    -0.196 C  
HETATM    6  S   UNL     1      -9.292  18.647  67.724  1.00  0.00    -0.298 S  
HETATM    7  O   UNL     1     -10.583  17.829  68.248  1.00  0.00    -0.369 OA 
HETATM    8  O   UNL     1      -8.758  19.314  68.888  1.00  0.00    -0.362 OA 
HETATM    9  O   UNL     1      -9.669  19.355  66.523  1.00  0.00    -0.329 OA 
ENDBRANCH   2   5
TORSDOF 1
ENDMDL
MODEL      105
REMARK 921   NORMALIZED FREE ENERGY PREDICTED BY IDOCK:   -2.14 KCAL/MOL
REMARK 922        TOTAL FREE ENERGY PREDICTED BY IDOCK:   -2.49 KCAL/MOL
REMARK 923 INTER-LIGAND FREE ENERGY PREDICTED BY IDOCK:   -2.16 KCAL/MOL
REMARK 924 INTRA-LIGAND FREE ENERGY PREDICTED BY IDOCK:   -0.33 KCAL/MOL
REMARK 927      BINDING AFFINITY PREDICTED BY RF-SCORE:    0.00 PKD
ROOT
HETATM    1  N   UNL     1      -7.038  18.229  65.251  1.00  0.00    -0.433 NA 
HETATM    2  C   UNL     1      -6.570  18.071  66.629  1.00  0.00    -0.198 C  
HETATM    3  H1  UNL     1      -6.271  18.504  64.637  1.00  0.00     0.000 HD 
HETATM    4  H2  UNL     1      -7.820  18.880  65.191  1.00  0.00     0.000 HD 
ENDROOT
BRANCH   2   5
HETATM    5  C   UNL     1      -7.712  17.662  67.544  1.00  0.00    -0.201 C  
HETATM    6  S   UNL     1      -9.106  17.115  66.572  1.00  0.00    -0.269 S  
HETATM    7  O   UNL     1     -10.107  16.777  67.795  1.00  0.00    -0.264 OA 
HETATM    8  O   UNL     1      -9.699  18.240  65.887  1.00  0.00    -0.516 OA 
HETATM    9  O   UNL     1      -8.781  15.877  65.904  1.00  0.00    -0.283 OA 
ENDBRANCH   2   5
TORSDOF 1
ENDMDL
MODEL      106
REMARK 921   NORMALIZED FREE ENERGY PREDICTED BY IDOCK:   -2.13 KCAL/MOL
REMARK 922        TOTAL FREE ENERGY PREDICTED BY IDOCK:   -2.48 KCAL/MOL
REMARK 923 INTER-LIGAND FREE ENERGY PREDICTED BY IDOCK:   -2.09 KCAL/MOL
REMARK 924 INTRA-LIGAND FREE ENERGY PREDICTED BY IDOCK:   -0.39 KCAL/MOL
REMARK 927      BINDING AFFINITY PREDICTED BY RF-SCORE:    0.00 PKD
ROOT
HETATM    1  N   UNL     1     -11.464   4.504  64.987  1.00  0.00    -1.108 NA 
HETATM    2  C   UNL     1     -10.633   3.728  64.066  1.00  0.00    -0.262 C  
HETATM    3  H1  UNL     1     -12.426   4.556  64.652  1.00  0.00     0.000 HD 
HETATM    4  H2  UNL     1     -11.075   5.431  65.156  1.00  0.00     0.000 HD 
ENDROOT
BRANCH   2   5
HETATM    5  C   UNL     1      -9.199   3.651  64.565  1.00  0.00    -0.141 C  
HETATM    6  S   UNL     1      -9.064   4.453  66.154  1.00  0.00    -0.139 S  
HETATM    7  O   UNL     1      -7.483   4.214  66.386  1.00  0.00    -0.082 OA 
HETATM    8  O   UNL     1      -9.220   5.881  65.999  1.00  0.00    -0.161 OA 
HETATM    9  O   UNL     1      -9.783   3.692  67.149  1.00  0.00    -0.199 OA 
ENDBRANCH   2   5
TORSDOF 1
ENDMDL
MODEL      107
REMARK 921   NORMALIZED FREE ENERGY PREDICTED BY IDOCK:   -2.13 KCAL/MOL
REMARK 922        TOTAL FREE ENERGY PREDICTED BY IDOCK:   -2.48 KCAL/MOL
REMARK 923 INTER-LIGAND FREE ENERGY PREDICTED BY IDOCK:   -2.24 KCAL/MOL
REMARK 924 INTRA-LIGAND FREE ENERGY PREDICTED BY IDOCK:   -0.24 KCAL/MOL
REMARK 927      BINDING AFFINITY PREDICTED BY RF-SCORE:    0.00 PKD
ROOT
HETATM    1  N   UNL     1     -11.553   9.879  68.740  1.00  0.00    -0.487 NA 
HETATM    2  C   UNL     1     -10.843  10.409  69.905  1.00  0.00    -0.298 C  
HETATM    3  H1  UNL     1     -11.271  10.366  67.890  1.00  0.00     0.000 HD 
HETATM    4  H2  UNL     1     -12.564   9.905  68.871  1.00  0.00     0.000 HD 
ENDROOT
BRANCH   2   5
HETATM    5  C   UNL     1     -11.264   9.684  71.172  1.00  0.00    -0.384 C  
HETATM    6  S   UNL     1     -12.989   9.995  71.507  1.00  0.00    -0.465 S  
HETATM    7  O   UNL     1     -13.109   9.127  72.865  1.00  0.00    -0.304 OA 
HETATM    8  O   UNL     1     -13.173  11.370  71.910  1.00  0.00    -0.484 OA 
HETATM    9  O   UNL     1     -13.806   9.362  70.498  1.00  0.00     0.180 OA 
ENDBRANCH   2   5
TORSDOF 1
ENDMDL
MODEL      108
REMARK 921   NORMALIZED FREE ENERGY PREDICTED BY IDOCK:   -2.10 KCAL/MOL
REMARK 922        TOTAL FREE ENERGY PREDICTED BY IDOCK:   -2.45 KCAL/MOL
REMARK 923 INTER-LIGAND FREE ENERGY PREDICTED BY IDOCK:   -2.20 KCAL/MOL
REMARK 924 INTRA-LIGAND FREE ENERGY PREDICTED BY IDOCK:   -0.24 KCAL/MOL
REMARK 927      BINDING AFFINITY PREDICTED BY RF-SCORE:    0.00 PKD
ROOT
HETATM    1  N   UNL     1     -11.407   6.677  67.576  1.00  0.00    -0.732 NA 
HETATM    2  C   UNL     1     -11.140   6.233  68.946  1.00  0.00    -0.362 C  
HETATM    3  H1  UNL     1     -12.121   6.095  67.139  1.00  0.00     0.000 HD 
HETATM    4  H2  UNL     1     -10.554   6.711  67.019  1.00  0.00     0.000 HD 
ENDROOT
BRANCH   2   5
HETATM    5  C   UNL     1     -10.076   7.099  69.598  1.00  0.00    -0.192 C  
HETATM    6  S   UNL     1     -10.721   8.738  69.891  1.00  0.00    -0.204 S  
HETATM    7  O   UNL     1      -9.394   9.380  70.554  1.00  0.00    -0.237 OA 
HETATM    8  O   UNL     1     -10.898   9.429  68.635  1.00  0.00    -0.195 OA 
HETATM    9  O   UNL     1     -11.747   8.686  70.906  1.00  0.00    -0.282 OA 
ENDBRANCH   2   5
TORSDOF 1
ENDMDL
MODEL      109
REMARK 921   NORMALIZED FREE ENERGY PREDICTED BY IDOCK:   -2.10 KCAL/MOL
REMARK 922        TOTAL FREE ENERGY PREDICTED BY IDOCK:   -2.45 KCAL/MOL
REMARK 923 INTER-LIGAND FREE ENERGY PREDICTED BY IDOCK:   -2.05 KCAL/MOL
REMARK 924 INTRA-LIGAND FREE ENERGY PREDICTED BY IDOCK:   -0.39 KCAL/MOL
REMARK 927      BINDING AFFINITY PREDICTED BY RF-SCORE:    0.00 PKD
ROOT
HETATM    1  N   UNL     1      -8.080  11.585  66.156  1.00  0.00    -0.374 NA 
HETATM    2  C   UNL     1      -8.108  12.426  67.354  1.00  0.00    -0.177 C  
HETATM    3  H1  UNL     1      -7.134  11.525  65.777  1.00  0.00     0.000 HD 
HETATM    4  H2  UNL     1      -8.747  11.905  65.455  1.00  0.00     0.000 HD 
ENDROOT
BRANCH   2   5
HETATM    5  C   UNL     1      -9.516  12.516  67.919  1.00  0.00    -0.196 C  
HETATM    6  S   UNL     1     -10.609  11.442  67.003  1.00  0.00    -0.261 S  
HETATM    7  O   UNL     1     -11.967  11.768  67.815  1.00  0.00    -0.586 OA 
HETATM    8  O   UNL     1     -10.817  11.969  65.674  1.00  0.00    -0.265 OA 
HETATM    9  O   UNL     1     -10.260  10.062  67.250  1.00  0.00    -0.196 OA 
ENDBRANCH   2   5
TORSDOF 1
ENDMDL
MODEL      110
REMARK 921   NORMALIZED FREE ENERGY PREDICTED BY IDOCK:   -2.09 KCAL/MOL
REMARK 922        TOTAL FREE ENERGY PREDICTED BY IDOCK:   -2.44 KCAL/MOL
REMARK 923 INTER-LIGAND FREE ENERGY PREDICTED BY IDOCK:   -2.43 KCAL/MOL
REMARK 924 INTRA-LIGAND FREE ENERGY PREDICTED BY IDOCK:   -0.01 KCAL/MOL
REMARK 927      BINDING AFFINITY PREDICTED BY RF-SCORE:    0.00 PKD
ROOT
HETATM    1  N   UNL     1     -13.981  13.518  72.475  1.00  0.00    -0.766 NA 
HETATM    2  C   UNL     1     -13.287  12.332  71.968  1.00  0.00    -0.386 C  
HETATM    3  H1  UNL     1     -14.646  13.264  73.205  1.00  0.00     0.000 HD 
HETATM    4  H2  UNL     1     -14.428  14.042  71.724  1.00  0.00     0.000 HD 
ENDROOT
BRANCH   2   5
HETATM    5  C   UNL     1     -12.295  12.710  70.880  1.00  0.00    -0.260 C  
HETATM    6  S   UNL     1     -11.793  11.251  69.981  1.00  0.00    -0.391 S  
HETATM    7  O   UNL     1     -10.777  11.968  68.950  1.00  0.00    -0.219 OA 
HETATM    8  O   UNL     1     -10.967  10.416  70.821  1.00  0.00    -0.262 OA 
HETATM    9  O   UNL     1     -12.909  10.735  69.223  1.00  0.00    -0.150 OA 
ENDBRANCH   2   5
TORSDOF 1
ENDMDL
MODEL      111
REMARK 921   NORMALIZED FREE ENERGY PREDICTED BY IDOCK:   -2.08 KCAL/MOL
REMARK 922        TOTAL FREE ENERGY PREDICTED BY IDOCK:   -2.43 KCAL/MOL
REMARK 923 INTER-LIGAND FREE ENERGY PREDICTED BY IDOCK:   -2.21 KCAL/MOL
REMARK 924 INTRA-LIGAND FREE ENERGY PREDICTED BY IDOCK:   -0.22 KCAL/MOL
REMARK 927      BINDING AFFINITY PREDICTED BY RF-SCORE:    0.00 PKD
ROOT
HETATM    1  N   UNL     1      -8.969  10.972  67.015  1.00  0.00    -0.146 NA 
HETATM    2  C   UNL     1      -8.947  12.070  67.983  1.00  0.00    -0.187 C  
HETATM    3  H1  UNL     1      -8.375  10.203  67.325  1.00  0.00     0.000 HD 
HETATM    4  H2  UNL     1      -8.717  11.290  66.079  1.00  0.00     0.000 HD 
ENDROOT
BRANCH   2   5
HETATM    5  C   UNL     1      -9.831  13.217  67.522  1.00  0.00    -0.216 C  
HETATM    6  S   UNL     1     -11.536  12.869  67.921  1.00  0.00    -0.360 S  
HETATM    7  O   UNL     1     -12.183  14.219  67.314  1.00  0.00    -0.393 OA 
HETATM    8  O   UNL     1     -12.028  11.796  67.088  1.00  0.00    -0.617 OA 
HETATM    9  O   UNL     1     -11.718  12.890  69.354  1.00  0.00    -0.292 OA 
ENDBRANCH   2   5
TORSDOF 1
ENDMDL
MODEL      112
REMARK 921   NORMALIZED FREE ENERGY PREDICTED BY IDOCK:   -2.08 KCAL/MOL
REMARK 922        TOTAL FREE ENERGY PREDICTED BY IDOCK:   -2.43 KCAL/MOL
REMARK 923 INTER-LIGAND FREE ENERGY PREDICTED BY IDOCK:   -2.20 KCAL/MOL
REMARK 924 INTRA-LIGAND FREE ENERGY PREDICTED BY IDOCK:   -0.23 KCAL/MOL
REMARK 927      BINDING AFFINITY PREDICTED BY RF-SCORE:    0.00 PKD
ROOT
HETATM    1  N   UNL     1     -11.949  11.656  69.222  1.00  0.00    -0.327 NA 
HETATM    2  C   UNL     1     -11.578  12.201  67.914  1.00  0.00    -0.347 C  
HETATM    3  H1  UNL     1     -11.675  10.676  69.297  1.00  0.00     0.000 HD 
HETATM    4  H2  UNL     1     -12.941  11.786  69.416  1.00  0.00     0.000 HD 
ENDROOT
BRANCH   2   5
HETATM    5  C   UNL     1     -11.986  13.660  67.800  1.00  0.00    -0.352 C  
HETATM    6  S   UNL     1     -11.220  14.610  69.103  1.00  0.00    -0.284 S  
HETATM    7  O   UNL     1     -11.841  16.051  68.717  1.00  0.00    -0.375 OA 
HETATM    8  O   UNL     1     -11.809  14.264  70.376  1.00  0.00    -0.290 OA 
HETATM    9  O   UNL     1      -9.792  14.667  68.893  1.00  0.00    -0.223 OA 
ENDBRANCH   2   5
TORSDOF 1
ENDMDL
MODEL      113
REMARK 921   NORMALIZED FREE ENERGY PREDICTED BY IDOCK:   -2.07 KCAL/MOL
REMARK 922        TOTAL FREE ENERGY PREDICTED BY IDOCK:   -2.42 KCAL/MOL
REMARK 923 INTER-LIGAND FREE ENERGY PREDICTED BY IDOCK:   -2.02 KCAL/MOL
REMARK 924 INTRA-LIGAND FREE ENERGY PREDICTED BY IDOCK:   -0.39 KCAL/MOL
REMARK 927      BINDING AFFINITY PREDICTED BY RF-SCORE:    0.00 PKD
ROOT
HETATM    1  N   UNL     1     -11.264   9.735  68.085  1.00  0.00    -0.522 NA 
HETATM    2  C   UNL     1      -9.802   9.694  68.162  1.00  0.00    -0.150 C  
HETATM    3  H1  UNL     1     -11.573   9.853  67.120  1.00  0.00     0.000 HD 
HETATM    4  H2  UNL     1     -11.654  10.451  68.696  1.00  0.00     0.000 HD 
ENDROOT
BRANCH   2   5
HETATM    5  C   UNL     1      -9.341   9.519  69.600  1.00  0.00    -0.200 C  
HETATM    6  S   UNL     1     -10.754   9.320  70.673  1.00  0.00    -0.296 S  
HETATM    7  O   UNL     1      -9.951   9.174  72.067  1.00  0.00    -0.263 OA 
HETATM    8  O   UNL     1     -11.476  10.567  70.771  1.00  0.00    -0.331 OA 
HETATM    9  O   UNL     1     -11.404   8.061  70.397  1.00  0.00    -0.261 OA 
ENDBRANCH   2   5
TORSDOF 1
ENDMDL
MODEL      114
REMARK 921   NORMALIZED FREE ENERGY PREDICTED BY IDOCK:   -2.06 KCAL/MOL
REMARK 922        TOTAL FREE ENERGY PREDICTED BY IDOCK:   -2.41 KCAL/MOL
REMARK 923 INTER-LIGAND FREE ENERGY PREDICTED BY IDOCK:   -2.25 KCAL/MOL
REMARK 924 INTRA-LIGAND FREE ENERGY PREDICTED BY IDOCK:   -0.16 KCAL/MOL
REMARK 927      BINDING AFFINITY PREDICTED BY RF-SCORE:    0.00 PKD
ROOT
HETATM    1  N   UNL     1     -12.531  10.453  69.484  1.00  0.00    -0.637 NA 
HETATM    2  C   UNL     1     -12.455  10.069  70.894  1.00  0.00    -0.337 C  
HETATM    3  H1  UNL     1     -13.440  10.860  69.267  1.00  0.00     0.000 HD 
HETATM    4  H2  UNL     1     -12.311   9.671  68.868  1.00  0.00     0.000 HD 
ENDROOT
BRANCH   2   5
HETATM    5  C   UNL     1     -11.100   9.462  71.218  1.00  0.00    -0.376 C  
HETATM    6  S   UNL     1     -10.709   8.181  70.038  1.00  0.00    -0.230 S  
HETATM    7  O   UNL     1      -9.275   7.753  70.645  1.00  0.00    -0.159 OA 
HETATM    8  O   UNL     1     -11.572   7.041  70.245  1.00  0.00    -0.299 OA 
HETATM    9  O   UNL     1     -10.488   8.765  68.736  1.00  0.00    -0.214 OA 
ENDBRANCH   2   5
TORSDOF 1
ENDMDL
MODEL      115
REMARK 921   NORMALIZED FREE ENERGY PREDICTED BY IDOCK:   -2.05 KCAL/MOL
REMARK 922        TOTAL FREE ENERGY PREDICTED BY IDOCK:   -2.40 KCAL/MOL
REMARK 923 INTER-LIGAND FREE ENERGY PREDICTED BY IDOCK:   -2.17 KCAL/MOL
REMARK 924 INTRA-LIGAND FREE ENERGY PREDICTED BY IDOCK:   -0.23 KCAL/MOL
REMARK 927      BINDING AFFINITY PREDICTED BY RF-SCORE:    0.00 PKD
ROOT
HETATM    1  N   UNL     1      -9.453  14.584  69.323  1.00  0.00    -0.405 NA 
HETATM    2  C   UNL     1     -10.648  15.012  68.593  1.00  0.00    -0.237 C  
HETATM    3  H1  UNL     1      -9.245  13.604  69.136  1.00  0.00     0.000 HD 
HETATM    4  H2  UNL     1      -9.537  14.767  70.323  1.00  0.00     0.000 HD 
ENDROOT
BRANCH   2   5
HETATM    5  C   UNL     1     -10.959  16.473  68.872  1.00  0.00    -0.325 C  
HETATM    6  S   UNL     1      -9.866  17.520  67.927  1.00  0.00    -0.308 S  
HETATM    7  O   UNL     1     -10.429  18.945  68.439  1.00  0.00    -0.336 OA 
HETATM    8  O   UNL     1      -8.522  17.426  68.448  1.00  0.00    -0.247 OA 
HETATM    9  O   UNL     1     -10.167  17.399  66.519  1.00  0.00    -0.311 OA 
ENDBRANCH   2   5
TORSDOF 1
ENDMDL
MODEL      116
REMARK 921   NORMALIZED FREE ENERGY PREDICTED BY IDOCK:   -2.05 KCAL/MOL
REMARK 922        TOTAL FREE ENERGY PREDICTED BY IDOCK:   -2.39 KCAL/MOL
REMARK 923 INTER-LIGAND FREE ENERGY PREDICTED BY IDOCK:   -2.21 KCAL/MOL
REMARK 924 INTRA-LIGAND FREE ENERGY PREDICTED BY IDOCK:   -0.19 KCAL/MOL
REMARK 927      BINDING AFFINITY PREDICTED BY RF-SCORE:    0.00 PKD
ROOT
HETATM    1  N   UNL     1     -11.471   6.430  66.795  1.00  0.00    -0.746 NA 
HETATM    2  C   UNL     1     -10.335   5.626  67.249  1.00  0.00    -0.241 C  
HETATM    3  H1  UNL     1     -11.942   5.980  66.010  1.00  0.00     0.000 HD 
HETATM    4  H2  UNL     1     -11.192   7.384  66.569  1.00  0.00     0.000 HD 
ENDROOT
BRANCH   2   5
HETATM    5  C   UNL     1      -9.631   6.297  68.418  1.00  0.00    -0.121 C  
HETATM    6  S   UNL     1     -10.401   5.808  69.953  1.00  0.00    -0.289 S  
HETATM    7  O   UNL     1      -9.463   6.666  70.951  1.00  0.00    -0.164 OA 
HETATM    8  O   UNL     1     -11.715   6.399  70.055  1.00  0.00    -0.429 OA 
HETATM    9  O   UNL     1     -10.153   4.407  70.200  1.00  0.00    -0.217 OA 
ENDBRANCH   2   5
TORSDOF 1
ENDMDL
MODEL      117
REMARK 921   NORMALIZED FREE ENERGY PREDICTED BY IDOCK:   -2.04 KCAL/MOL
REMARK 922        TOTAL FREE ENERGY PREDICTED BY IDOCK:   -2.39 KCAL/MOL
REMARK 923 INTER-LIGAND FREE ENERGY PREDICTED BY IDOCK:   -2.00 KCAL/MOL
REMARK 924 INTRA-LIGAND FREE ENERGY PREDICTED BY IDOCK:   -0.39 KCAL/MOL
REMARK 927      BINDING AFFINITY PREDICTED BY RF-SCORE:    0.00 PKD
ROOT
HETATM    1  N   UNL     1     -11.499   4.434  64.925  1.00  0.00    -1.068 NA 
HETATM    2  C   UNL     1     -10.532   4.753  65.976  1.00  0.00    -0.292 C  
HETATM    3  H1  UNL     1     -12.411   4.840  65.136  1.00  0.00     0.000 HD 
HETATM    4  H2  UNL     1     -11.562   3.430  64.762  1.00  0.00     0.000 HD 
ENDROOT
BRANCH   2   5
HETATM    5  C   UNL     1      -9.173   4.149  65.662  1.00  0.00    -0.149 C  
HETATM    6  S   UNL     1      -9.198   3.405  64.040  1.00  0.00    -0.131 S  
HETATM    7  O   UNL     1      -7.673   2.870  64.020  1.00  0.00    -0.073 OA 
HETATM    8  O   UNL     1     -10.023   2.219  64.055  1.00  0.00    -0.143 OA 
HETATM    9  O   UNL     1      -9.325   4.432  63.032  1.00  0.00    -0.141 OA 
ENDBRANCH   2   5
TORSDOF 1
ENDMDL
MODEL      118
REMARK 921   NORMALIZED FREE ENERGY PREDICTED BY IDOCK:   -2.03 KCAL/MOL
REMARK 922        TOTAL FREE ENERGY PREDICTED BY IDOCK:   -2.37 KCAL/MOL
REMARK 923 INTER-LIGAND FREE ENERGY PREDICTED BY IDOCK:   -2.04 KCAL/MOL
REMARK 924 INTRA-LIGAND FREE ENERGY PREDICTED BY IDOCK:   -0.33 KCAL/MOL
REMARK 927      BINDING AFFINITY PREDICTED BY RF-SCORE:    0.00 PKD
ROOT
HETATM    1  N   UNL     1     -11.696  11.647  67.795  1.00  0.00    -0.557 NA 
HETATM    2  C   UNL     1     -11.635  12.181  66.433  1.00  0.00    -0.364 C  
HETATM    3  H1  UNL     1     -12.509  11.042  67.911  1.00  0.00     0.000 HD 
HETATM    4  H2  UNL     1     -11.676  12.390  68.492  1.00  0.00     0.000 HD 
ENDROOT
BRANCH   2   5
HETATM    5  C   UNL     1     -10.424  13.083  66.259  1.00  0.00    -0.276 C  
HETATM    6  S   UNL     1      -9.642  13.363  67.840  1.00  0.00    -0.222 S  
HETATM    7  O   UNL     1      -8.450  14.325  67.326  1.00  0.00    -0.191 OA 
HETATM    8  O   UNL     1     -10.485  14.199  68.664  1.00  0.00    -0.240 OA 
HETATM    9  O   UNL     1      -9.052  12.136  68.319  1.00  0.00    -0.193 OA 
ENDBRANCH   2   5
TORSDOF 1
ENDMDL
MODEL      119
REMARK 921   NORMALIZED FREE ENERGY PREDICTED BY IDOCK:   -2.02 KCAL/MOL
REMARK 922        TOTAL FREE ENERGY PREDICTED BY IDOCK:   -2.37 KCAL/MOL
REMARK 923 INTER-LIGAND FREE ENERGY PREDICTED BY IDOCK:   -2.13 KCAL/MOL
REMARK 924 INTRA-LIGAND FREE ENERGY PREDICTED BY IDOCK:   -0.24 KCAL/MOL
REMARK 927      BINDING AFFINITY PREDICTED BY RF-SCORE:    0.00 PKD
ROOT
HETATM    1  N   UNL     1      -8.706  10.947  69.466  1.00  0.00    -0.371 NA 
HETATM    2  C   UNL     1      -9.606   9.919  68.941  1.00  0.00    -0.172 C  
HETATM    3  H1  UNL     1      -8.553  10.819  70.467  1.00  0.00     0.000 HD 
HETATM    4  H2  UNL     1      -9.040  11.886  69.254  1.00  0.00     0.000 HD 
ENDROOT
BRANCH   2   5
HETATM    5  C   UNL     1      -9.834  10.109  67.451  1.00  0.00    -0.187 C  
HETATM    6  S   UNL     1     -10.788  11.591  67.166  1.00  0.00    -0.283 S  
HETATM    7  O   UNL     1     -10.859  11.499  65.554  1.00  0.00    -0.282 OA 
HETATM    8  O   UNL     1     -12.145  11.398  67.624  1.00  0.00    -0.630 OA 
HETATM    9  O   UNL     1     -10.005  12.753  67.514  1.00  0.00    -0.205 OA 
ENDBRANCH   2   5
TORSDOF 1
ENDMDL
MODEL      120
REMARK 921   NORMALIZED FREE ENERGY PREDICTED BY IDOCK:   -2.01 KCAL/MOL
REMARK 922        TOTAL FREE ENERGY PREDICTED BY IDOCK:   -2.35 KCAL/MOL
REMARK 923 INTER-LIGAND FREE ENERGY PREDICTED BY IDOCK:   -2.11 KCAL/MOL
REMARK 924 INTRA-LIGAND FREE ENERGY PREDICTED BY IDOCK:   -0.25 KCAL/MOL
REMARK 927      BINDING AFFINITY PREDICTED BY RF-SCORE:    0.00 PKD
ROOT
HETATM    1  N   UNL     1      -9.248   7.639  70.738  1.00  0.00    -0.157 NA 
HETATM    2  C   UNL     1      -9.471   9.040  71.098  1.00  0.00    -0.278 C  
HETATM    3  H1  UNL     1      -8.251   7.442  70.647  1.00  0.00     0.000 HD 
HETATM    4  H2  UNL     1      -9.761   7.379  69.897  1.00  0.00     0.000 HD 
ENDROOT
BRANCH   2   5
HETATM    5  C   UNL     1     -10.956   9.334  71.233  1.00  0.00    -0.351 C  
HETATM    6  S   UNL     1     -11.827   7.856  71.725  1.00  0.00    -0.309 S  
HETATM    7  O   UNL     1     -13.316   8.482  71.768  1.00  0.00    -0.340 OA 
HETATM    8  O   UNL     1     -11.838   6.906  70.637  1.00  0.00    -0.358 OA 
HETATM    9  O   UNL     1     -11.455   7.494  73.073  1.00  0.00    -0.312 OA 
ENDBRANCH   2   5
TORSDOF 1
ENDMDL
MODEL      121
REMARK 921   NORMALIZED FREE ENERGY PREDICTED BY IDOCK:   -2.00 KCAL/MOL
REMARK 922        TOTAL FREE ENERGY PREDICTED BY IDOCK:   -2.35 KCAL/MOL
REMARK 923 INTER-LIGAND FREE ENERGY PREDICTED BY IDOCK:   -2.03 KCAL/MOL
REMARK 924 INTRA-LIGAND FREE ENERGY PREDICTED BY IDOCK:   -0.32 KCAL/MOL
REMARK 927      BINDING AFFINITY PREDICTED BY RF-SCORE:    0.00 PKD
ROOT
HETATM    1  N   UNL     1      -8.670  14.937  69.646  1.00  0.00    -0.441 NA 
HETATM    2  C   UNL     1      -9.510  14.268  68.651  1.00  0.00    -0.178 C  
HETATM    3  H1  UNL     1      -7.682  14.824  69.422  1.00  0.00     0.000 HD 
HETATM    4  H2  UNL     1      -8.881  14.620  70.592  1.00  0.00     0.000 HD 
ENDROOT
BRANCH   2   5
HETATM    5  C   UNL     1     -10.983  14.435  68.984  1.00  0.00    -0.256 C  
HETATM    6  S   UNL     1     -11.192  15.752  70.171  1.00  0.00    -0.380 S  
HETATM    7  O   UNL     1     -12.800  15.667  70.312  1.00  0.00    -0.351 OA 
HETATM    8  O   UNL     1     -10.670  15.345  71.455  1.00  0.00    -0.161 OA 
HETATM    9  O   UNL     1     -10.863  17.019  69.560  1.00  0.00    -0.264 OA 
ENDBRANCH   2   5
TORSDOF 1
ENDMDL
MODEL      122
REMARK 921   NORMALIZED FREE ENERGY PREDICTED BY IDOCK:   -1.99 KCAL/MOL
REMARK 922        TOTAL FREE ENERGY PREDICTED BY IDOCK:   -2.33 KCAL/MOL
REMARK 923 INTER-LIGAND FREE ENERGY PREDICTED BY IDOCK:   -2.10 KCAL/MOL
REMARK 924 INTRA-LIGAND FREE ENERGY PREDICTED BY IDOCK:   -0.23 KCAL/MOL
REMARK 927      BINDING AFFINITY PREDICTED BY RF-SCORE:    0.00 PKD
ROOT
HETATM    1  N   UNL     1      -8.409   9.570  70.962  1.00  0.00    -0.340 NA 
HETATM    2  C   UNL     1      -9.432   9.537  69.916  1.00  0.00    -0.222 C  
HETATM    3  H1  UNL     1      -7.728  10.308  70.781  1.00  0.00     0.000 HD 
HETATM    4  H2  UNL     1      -7.959   8.663  71.078  1.00  0.00     0.000 HD 
ENDROOT
BRANCH   2   5
HETATM    5  C   UNL     1     -10.446   8.438  70.185  1.00  0.00    -0.228 C  
HETATM    6  S   UNL     1     -11.165   8.656  71.804  1.00  0.00    -0.351 S  
HETATM    7  O   UNL     1     -12.149   7.374  71.783  1.00  0.00    -0.289 OA 
HETATM    8  O   UNL     1     -10.181   8.371  72.823  1.00  0.00    -0.292 OA 
HETATM    9  O   UNL     1     -11.982   9.847  71.821  1.00  0.00    -0.381 OA 
ENDBRANCH   2   5
TORSDOF 1
ENDMDL
MODEL      123
REMARK 921   NORMALIZED FREE ENERGY PREDICTED BY IDOCK:   -1.98 KCAL/MOL
REMARK 922        TOTAL FREE ENERGY PREDICTED BY IDOCK:   -2.32 KCAL/MOL
REMARK 923 INTER-LIGAND FREE ENERGY PREDICTED BY IDOCK:   -2.08 KCAL/MOL
REMARK 924 INTRA-LIGAND FREE ENERGY PREDICTED BY IDOCK:   -0.24 KCAL/MOL
REMARK 927      BINDING AFFINITY PREDICTED BY RF-SCORE:    0.00 PKD
ROOT
HETATM    1  N   UNL     1     -11.743   6.630  69.789  1.00  0.00    -0.650 NA 
HETATM    2  C   UNL     1     -10.808   7.756  69.752  1.00  0.00    -0.209 C  
HETATM    3  H1  UNL     1     -12.509   6.815  70.437  1.00  0.00     0.000 HD 
HETATM    4  H2  UNL     1     -11.270   5.754  70.006  1.00  0.00     0.000 HD 
ENDROOT
BRANCH   2   5
HETATM    5  C   UNL     1      -9.667   7.480  68.788  1.00  0.00    -0.151 C  
HETATM    6  S   UNL     1     -10.263   7.539  67.106  1.00  0.00    -0.308 S  
HETATM    7  O   UNL     1      -8.865   7.208  66.366  1.00  0.00    -0.135 OA 
HETATM    8  O   UNL     1     -11.116   6.403  66.846  1.00  0.00    -0.384 OA 
HETATM    9  O   UNL     1     -10.639   8.892  66.767  1.00  0.00    -0.243 OA 
ENDBRANCH   2   5
TORSDOF 1
ENDMDL
MODEL      124
REMARK 921   NORMALIZED FREE ENERGY PREDICTED BY IDOCK:   -1.97 KCAL/MOL
REMARK 922        TOTAL FREE ENERGY PREDICTED BY IDOCK:   -2.32 KCAL/MOL
REMARK 923 INTER-LIGAND FREE ENERGY PREDICTED BY IDOCK:   -1.92 KCAL/MOL
REMARK 924 INTRA-LIGAND FREE ENERGY PREDICTED BY IDOCK:   -0.39 KCAL/MOL
REMARK 927      BINDING AFFINITY PREDICTED BY RF-SCORE:    0.00 PKD
ROOT
HETATM    1  N   UNL     1      -9.209  17.476  68.192  1.00  0.00    -0.269 NA 
HETATM    2  C   UNL     1     -10.491  17.494  68.899  1.00  0.00    -0.286 C  
HETATM    3  H1  UNL     1      -8.640  18.281  68.453  1.00  0.00     0.000 HD 
HETATM    4  H2  UNL     1      -9.336  17.415  67.183  1.00  0.00     0.000 HD 
ENDROOT
BRANCH   2   5
HETATM    5  C   UNL     1     -11.339  16.294  68.511  1.00  0.00    -0.330 C  
HETATM    6  S   UNL     1     -10.406  15.207  67.448  1.00  0.00    -0.247 S  
HETATM    7  O   UNL     1     -11.549  14.088  67.220  1.00  0.00    -0.328 OA 
HETATM    8  O   UNL     1     -10.211  15.828  66.158  1.00  0.00    -0.279 OA 
HETATM    9  O   UNL     1      -9.328  14.600  68.192  1.00  0.00    -0.186 OA 
ENDBRANCH   2   5
TORSDOF 1
ENDMDL
MODEL      125
REMARK 921   NORMALIZED FREE ENERGY PREDICTED BY IDOCK:   -1.97 KCAL/MOL
REMARK 922        TOTAL FREE ENERGY PREDICTED BY IDOCK:   -2.32 KCAL/MOL
REMARK 923 INTER-LIGAND FREE ENERGY PREDICTED BY IDOCK:   -2.31 KCAL/MOL
REMARK 924 INTRA-LIGAND FREE ENERGY PREDICTED BY IDOCK:   -0.01 KCAL/MOL
REMARK 927      BINDING AFFINITY PREDICTED BY RF-SCORE:    0.00 PKD
ROOT
HETATM    1  N   UNL     1      -9.939  13.816  64.826  1.00  0.00    -0.621 NA 
HETATM    2  C   UNL     1      -9.566  14.250  66.174  1.00  0.00    -0.275 C  
HETATM    3  H1  UNL     1      -9.198  13.253  64.409  1.00  0.00     0.000 HD 
HETATM    4  H2  UNL     1     -10.192  14.605  64.233  1.00  0.00     0.000 HD 
ENDROOT
BRANCH   2   5
HETATM    5  C   UNL     1     -10.670  15.090  66.797  1.00  0.00    -0.308 C  
HETATM    6  S   UNL     1     -10.721  14.817  68.560  1.00  0.00    -0.256 S  
HETATM    7  O   UNL     1     -11.954  15.805  68.899  1.00  0.00    -0.382 OA 
HETATM    8  O   UNL     1     -11.207  13.485  68.837  1.00  0.00    -0.251 OA 
HETATM    9  O   UNL     1      -9.531  15.357  69.174  1.00  0.00    -0.211 OA 
ENDBRANCH   2   5
TORSDOF 1
ENDMDL
MODEL      126
REMARK 921   NORMALIZED FREE ENERGY PREDICTED BY IDOCK:   -1.96 KCAL/MOL
REMARK 922        TOTAL FREE ENERGY PREDICTED BY IDOCK:   -2.31 KCAL/MOL
REMARK 923 INTER-LIGAND FREE ENERGY PREDICTED BY IDOCK:   -2.30 KCAL/MOL
REMARK 924 INTRA-LIGAND FREE ENERGY PREDICTED BY IDOCK:   -0.01 KCAL/MOL
REMARK 927      BINDING AFFINITY PREDICTED BY RF-SCORE:    0.00 PKD
ROOT
HETATM    1  N   UNL     1      -8.172  12.982  67.979  1.00  0.00    -0.150 NA 
HETATM    2  C   UNL     1      -9.403  13.135  67.201  1.00  0.00    -0.235 C  
HETATM    3  H1  UNL     1      -8.081  12.029  68.331  1.00  0.00     0.000 HD 
HETATM    4  H2  UNL     1      -8.113  13.669  68.730  1.00  0.00     0.000 HD 
ENDROOT
BRANCH   2   5
HETATM    5  C   UNL     1      -9.539  14.554  66.677  1.00  0.00    -0.276 C  
HETATM    6  S   UNL     1     -10.793  14.617  65.407  1.00  0.00    -0.383 S  
HETATM    7  O   UNL     1     -10.685  16.193  65.069  1.00  0.00    -0.558 OA 
HETATM    8  O   UNL     1     -10.328  13.935  64.222  1.00  0.00    -0.299 OA 
HETATM    9  O   UNL     1     -12.092  14.372  65.990  1.00  0.00    -0.396 OA 
ENDBRANCH   2   5
TORSDOF 1
ENDMDL
MODEL      127
REMARK 921   NORMALIZED FREE ENERGY PREDICTED BY IDOCK:   -1.96 KCAL/MOL
REMARK 922        TOTAL FREE ENERGY PREDICTED BY IDOCK:   -2.30 KCAL/MOL
REMARK 923 INTER-LIGAND FREE ENERGY PREDICTED BY IDOCK:   -2.07 KCAL/MOL
REMARK 924 INTRA-LIGAND FREE ENERGY PREDICTED BY IDOCK:   -0.23 KCAL/MOL
REMARK 927      BINDING AFFINITY PREDICTED BY RF-SCORE:    0.00 PKD
ROOT
HETATM    1  N   UNL     1     -12.370  14.929  68.924  1.00  0.00    -0.588 NA 
HETATM    2  C   UNL     1     -11.592  16.091  69.358  1.00  0.00    -0.320 C  
HETATM    3  H1  UNL     1     -12.980  14.601  69.673  1.00  0.00     0.000 HD 
HETATM    4  H2  UNL     1     -11.769  14.183  68.574  1.00  0.00     0.000 HD 
ENDROOT
BRANCH   2   5
HETATM    5  C   UNL     1     -10.683  16.580  68.243  1.00  0.00    -0.345 C  
HETATM    6  S   UNL     1      -9.248  15.525  68.121  1.00  0.00    -0.190 S  
HETATM    7  O   UNL     1      -8.514  16.293  66.904  1.00  0.00    -0.184 OA 
HETATM    8  O   UNL     1      -8.395  15.719  69.271  1.00  0.00    -0.231 OA 
HETATM    9  O   UNL     1      -9.641  14.216  67.653  1.00  0.00    -0.209 OA 
ENDBRANCH   2   5
TORSDOF 1
ENDMDL
MODEL      128
REMARK 921   NORMALIZED FREE ENERGY PREDICTED BY IDOCK:   -1.94 KCAL/MOL
REMARK 922        TOTAL FREE ENERGY PREDICTED BY IDOCK:   -2.28 KCAL/MOL
REMARK 923 INTER-LIGAND FREE ENERGY PREDICTED BY IDOCK:   -1.89 KCAL/MOL
REMARK 924 INTRA-LIGAND FREE ENERGY PREDICTED BY IDOCK:   -0.39 KCAL/MOL
REMARK 927      BINDING AFFINITY PREDICTED BY RF-SCORE:    0.00 PKD
ROOT
HETATM    1  N   UNL     1     -12.081  10.256  69.036  1.00  0.00    -0.614 NA 
HETATM    2  C   UNL     1     -11.950  10.126  70.488  1.00  0.00    -0.311 C  
HETATM    3  H1  UNL     1     -13.022  10.556  68.782  1.00  0.00     0.000 HD 
HETATM    4  H2  UNL     1     -11.816   9.397  68.555  1.00  0.00     0.000 HD 
ENDROOT
BRANCH   2   5
HETATM    5  C   UNL     1     -10.548   9.679  70.868  1.00  0.00    -0.316 C  
HETATM    6  S   UNL     1      -9.554   9.481  69.398  1.00  0.00    -0.191 S  
HETATM    7  O   UNL     1      -8.187   9.011  70.120  1.00  0.00    -0.109 OA 
HETATM    8  O   UNL     1     -10.008   8.334  68.647  1.00  0.00    -0.179 OA 
HETATM    9  O   UNL     1      -9.318  10.770  68.789  1.00  0.00    -0.169 OA 
ENDBRANCH   2   5
TORSDOF 1
ENDMDL
MODEL      129
REMARK 921   NORMALIZED FREE ENERGY PREDICTED BY IDOCK:   -1.94 KCAL/MOL
REMARK 922        TOTAL FREE ENERGY PREDICTED BY IDOCK:   -2.28 KCAL/MOL
REMARK 923 INTER-LIGAND FREE ENERGY PREDICTED BY IDOCK:   -1.90 KCAL/MOL
REMARK 924 INTRA-LIGAND FREE ENERGY PREDICTED BY IDOCK:   -0.38 KCAL/MOL
REMARK 927      BINDING AFFINITY PREDICTED BY RF-SCORE:    0.00 PKD
ROOT
HETATM    1  N   UNL     1     -12.033  12.127  67.467  1.00  0.00    -0.553 NA 
HETATM    2  C   UNL     1     -11.161  11.935  68.627  1.00  0.00    -0.257 C  
HETATM    3  H1  UNL     1     -12.993  12.304  67.760  1.00  0.00     0.000 HD 
HETATM    4  H2  UNL     1     -11.976  11.342  66.819  1.00  0.00     0.000 HD 
ENDROOT
BRANCH   2   5
HETATM    5  C   UNL     1      -9.730  11.669  68.191  1.00  0.00    -0.189 C  
HETATM    6  S   UNL     1      -9.638  11.606  66.409  1.00  0.00    -0.223 S  
HETATM    7  O   UNL     1      -8.055  11.312  66.281  1.00  0.00    -0.165 OA 
HETATM    8  O   UNL     1     -10.293  10.413  65.925  1.00  0.00    -0.245 OA 
HETATM    9  O   UNL     1      -9.896  12.916  65.859  1.00  0.00    -0.268 OA 
ENDBRANCH   2   5
TORSDOF 1
ENDMDL
MODEL      130
REMARK 921   NORMALIZED FREE ENERGY PREDICTED BY IDOCK:   -1.94 KCAL/MOL
REMARK 922        TOTAL FREE ENERGY PREDICTED BY IDOCK:   -2.28 KCAL/MOL
REMARK 923 INTER-LIGAND FREE ENERGY PREDICTED BY IDOCK:   -2.26 KCAL/MOL
REMARK 924 INTRA-LIGAND FREE ENERGY PREDICTED BY IDOCK:   -0.02 KCAL/MOL
REMARK 927      BINDING AFFINITY PREDICTED BY RF-SCORE:    0.00 PKD
ROOT
HETATM    1  N   UNL     1     -12.264  11.656  63.254  1.00  0.00    -0.917 NA 
HETATM    2  C   UNL     1     -10.981  12.000  63.869  1.00  0.00    -0.401 C  
HETATM    3  H1  UNL     1     -12.156  11.498  62.252  1.00  0.00     0.000 HD 
HETATM    4  H2  UNL     1     -12.976  12.358  63.450  1.00  0.00     0.000 HD 
ENDROOT
BRANCH   2   5
HETATM    5  C   UNL     1     -11.142  12.235  65.362  1.00  0.00    -0.311 C  
HETATM    6  S   UNL     1      -9.834  11.409  66.253  1.00  0.00    -0.227 S  
HETATM    7  O   UNL     1     -10.285  11.832  67.746  1.00  0.00    -0.185 OA 
HETATM    8  O   UNL     1     -10.021   9.978  66.184  1.00  0.00    -0.229 OA 
HETATM    9  O   UNL     1      -8.570  12.046  65.970  1.00  0.00     0.012 OA 
ENDBRANCH   2   5
TORSDOF 1
ENDMDL
MODEL      131
REMARK 921   NORMALIZED FREE ENERGY PREDICTED BY IDOCK:   -1.93 KCAL/MOL
REMARK 922        TOTAL FREE ENERGY PREDICTED BY IDOCK:   -2.27 KCAL/MOL
REMARK 923 INTER-LIGAND FREE ENERGY PREDICTED BY IDOCK:   -2.04 KCAL/MOL
REMARK 924 INTRA-LIGAND FREE ENERGY PREDICTED BY IDOCK:   -0.23 KCAL/MOL
REMARK 927      BINDING AFFINITY PREDICTED BY RF-SCORE:    0.00 PKD
ROOT
HETATM    1  N   UNL     1      -9.600   9.842  64.645  1.00  0.00    -0.422 NA 
HETATM    2  C   UNL     1      -9.844  11.195  65.149  1.00  0.00    -0.259 C  
HETATM    3  H1  UNL     1      -9.853   9.771  63.660  1.00  0.00     0.000 HD 
HETATM    4  H2  UNL     1     -10.077   9.138  65.208  1.00  0.00     0.000 HD 
ENDROOT
BRANCH   2   5
HETATM    5  C   UNL     1      -9.468  11.301  66.617  1.00  0.00    -0.186 C  
HETATM    6  S   UNL     1     -10.516  10.235  67.593  1.00  0.00    -0.258 S  
HETATM    7  O   UNL     1      -9.889  10.578  69.042  1.00  0.00    -0.194 OA 
HETATM    8  O   UNL     1     -11.862  10.759  67.620  1.00  0.00    -0.505 OA 
HETATM    9  O   UNL     1     -10.223   8.853  67.294  1.00  0.00    -0.216 OA 
ENDBRANCH   2   5
TORSDOF 1
ENDMDL
MODEL      132
REMARK 921   NORMALIZED FREE ENERGY PREDICTED BY IDOCK:   -1.93 KCAL/MOL
REMARK 922        TOTAL FREE ENERGY PREDICTED BY IDOCK:   -2.27 KCAL/MOL
REMARK 923 INTER-LIGAND FREE ENERGY PREDICTED BY IDOCK:   -2.25 KCAL/MOL
REMARK 924 INTRA-LIGAND FREE ENERGY PREDICTED BY IDOCK:   -0.02 KCAL/MOL
REMARK 927      BINDING AFFINITY PREDICTED BY RF-SCORE:    0.00 PKD
ROOT
HETATM    1  N   UNL     1      -9.232   7.354  74.169  1.00  0.00    -0.362 NA 
HETATM    2  C   UNL     1     -10.601   7.137  73.699  1.00  0.00    -0.333 C  
HETATM    3  H1  UNL     1      -9.229   7.839  75.067  1.00  0.00     0.000 HD 
HETATM    4  H2  UNL     1      -8.668   7.844  73.475  1.00  0.00     0.000 HD 
ENDROOT
BRANCH   2   5
HETATM    5  C   UNL     1     -10.606   6.416  72.362  1.00  0.00    -0.213 C  
HETATM    6  S   UNL     1     -11.699   7.250  71.224  1.00  0.00    -0.312 S  
HETATM    7  O   UNL     1     -11.491   6.267  69.959  1.00  0.00    -0.412 OA 
HETATM    8  O   UNL     1     -13.071   7.066  71.634  1.00  0.00    -0.377 OA 
HETATM    9  O   UNL     1     -11.154   8.543  70.880  1.00  0.00    -0.243 OA 
ENDBRANCH   2   5
TORSDOF 1
ENDMDL
MODEL      133
REMARK 921   NORMALIZED FREE ENERGY PREDICTED BY IDOCK:   -1.91 KCAL/MOL
REMARK 922        TOTAL FREE ENERGY PREDICTED BY IDOCK:   -2.25 KCAL/MOL
REMARK 923 INTER-LIGAND FREE ENERGY PREDICTED BY IDOCK:   -2.07 KCAL/MOL
REMARK 924 INTRA-LIGAND FREE ENERGY PREDICTED BY IDOCK:   -0.18 KCAL/MOL
REMARK 927      BINDING AFFINITY PREDICTED BY RF-SCORE:    0.00 PKD
ROOT
HETATM    1  N   UNL     1      -8.137  17.549  65.884  1.00  0.00    -0.555 NA 
HETATM    2  C   UNL     1      -7.771  17.439  67.298  1.00  0.00    -0.200 C  
HETATM    3  H1  UNL     1      -7.332  17.364  65.286  1.00  0.00     0.000 HD 
HETATM    4  H2  UNL     1      -8.562  18.452  65.674  1.00  0.00     0.000 HD 
ENDROOT
BRANCH   2   5
HETATM    5  C   UNL     1      -8.970  17.716  68.190  1.00  0.00    -0.269 C  
HETATM    6  S   UNL     1      -9.865  16.202  68.495  1.00  0.00    -0.234 S  
HETATM    7  O   UNL     1     -11.032  16.821  69.425  1.00  0.00    -0.293 OA 
HETATM    8  O   UNL     1     -10.524  15.767  67.285  1.00  0.00    -0.294 OA 
HETATM    9  O   UNL     1      -9.066  15.317  69.310  1.00  0.00    -0.227 OA 
ENDBRANCH   2   5
TORSDOF 1
ENDMDL
MODEL      134
REMARK 921   NORMALIZED FREE ENERGY PREDICTED BY IDOCK:   -1.90 KCAL/MOL
REMARK 922        TOTAL FREE ENERGY PREDICTED BY IDOCK:   -2.24 KCAL/MOL
REMARK 923 INTER-LIGAND FREE ENERGY PREDICTED BY IDOCK:   -2.21 KCAL/MOL
REMARK 924 INTRA-LIGAND FREE ENERGY PREDICTED BY IDOCK:   -0.03 KCAL/MOL
REMARK 927      BINDING AFFINITY PREDICTED BY RF-SCORE:    0.00 PKD
ROOT
HETATM    1  N   UNL     1      -7.136  17.194  67.159  1.00  0.00    -0.162 NA 
HETATM    2  C   UNL     1      -8.258  16.426  67.701  1.00  0.00    -0.153 C  
HETATM    3  H1  UNL     1      -6.863  17.939  67.800  1.00  0.00     0.000 HD 
HETATM    4  H2  UNL     1      -7.342  17.555  66.228  1.00  0.00     0.000 HD 
ENDROOT
BRANCH   2   5
HETATM    5  C   UNL     1      -8.667  15.317  66.746  1.00  0.00    -0.270 C  
HETATM    6  S   UNL     1     -10.326  15.603  66.155  1.00  0.00    -0.334 S  
HETATM    7  O   UNL     1     -10.451  14.297  65.212  1.00  0.00    -0.340 OA 
HETATM    8  O   UNL     1     -11.273  15.397  67.226  1.00  0.00    -0.327 OA 
HETATM    9  O   UNL     1     -10.349  16.771  65.306  1.00  0.00    -0.622 OA 
ENDBRANCH   2   5
TORSDOF 1
ENDMDL
MODEL      135
REMARK 921   NORMALIZED FREE ENERGY PREDICTED BY IDOCK:   -1.90 KCAL/MOL
REMARK 922        TOTAL FREE ENERGY PREDICTED BY IDOCK:   -2.24 KCAL/MOL
REMARK 923 INTER-LIGAND FREE ENERGY PREDICTED BY IDOCK:   -2.01 KCAL/MOL
REMARK 924 INTRA-LIGAND FREE ENERGY PREDICTED BY IDOCK:   -0.23 KCAL/MOL
REMARK 927      BINDING AFFINITY PREDICTED BY RF-SCORE:    0.00 PKD
ROOT
HETATM    1  N   UNL     1     -11.483  12.123  66.733  1.00  0.00    -0.378 NA 
HETATM    2  C   UNL     1     -12.208  13.373  66.969  1.00  0.00    -0.268 C  
HETATM    3  H1  UNL     1     -11.927  11.348  67.226  1.00  0.00     0.000 HD 
HETATM    4  H2  UNL     1     -10.497  12.208  66.974  1.00  0.00     0.000 HD 
ENDROOT
BRANCH   2   5
HETATM    5  C   UNL     1     -11.547  14.528  66.234  1.00  0.00    -0.360 C  
HETATM    6  S   UNL     1      -9.888  14.770  66.847  1.00  0.00    -0.250 S  
HETATM    7  O   UNL     1      -9.488  16.022  65.907  1.00  0.00    -0.318 OA 
HETATM    8  O   UNL     1      -9.932  15.295  68.192  1.00  0.00    -0.218 OA 
HETATM    9  O   UNL     1      -9.060  13.647  66.474  1.00  0.00    -0.216 OA 
ENDBRANCH   2   5
TORSDOF 1
ENDMDL
MODEL      136
REMARK 921   NORMALIZED FREE ENERGY PREDICTED BY IDOCK:   -1.90 KCAL/MOL
REMARK 922        TOTAL FREE ENERGY PREDICTED BY IDOCK:   -2.24 KCAL/MOL
REMARK 923 INTER-LIGAND FREE ENERGY PREDICTED BY IDOCK:   -1.85 KCAL/MOL
REMARK 924 INTRA-LIGAND FREE ENERGY PREDICTED BY IDOCK:   -0.39 KCAL/MOL
REMARK 927      BINDING AFFINITY PREDICTED BY RF-SCORE:    0.00 PKD
ROOT
HETATM    1  N   UNL     1     -12.397   7.054  70.562  1.00  0.00    -0.614 NA 
HETATM    2  C   UNL     1     -11.376   6.289  71.280  1.00  0.00    -0.297 C  
HETATM    3  H1  UNL     1     -13.316   6.916  70.981  1.00  0.00     0.000 HD 
HETATM    4  H2  UNL     1     -12.400   6.836  69.566  1.00  0.00     0.000 HD 
ENDROOT
BRANCH   2   5
HETATM    5  C   UNL     1     -10.006   6.495  70.655  1.00  0.00    -0.184 C  
HETATM    6  S   UNL     1     -10.135   7.593  69.254  1.00  0.00    -0.194 S  
HETATM    7  O   UNL     1      -8.575   7.593  68.831  1.00  0.00    -0.128 OA 
HETATM    8  O   UNL     1     -10.828   6.932  68.173  1.00  0.00    -0.223 OA 
HETATM    9  O   UNL     1     -10.477   8.922  69.703  1.00  0.00    -0.208 OA 
ENDBRANCH   2   5
TORSDOF 1
ENDMDL
MODEL      137
REMARK 921   NORMALIZED FREE ENERGY PREDICTED BY IDOCK:   -1.89 KCAL/MOL
REMARK 922        TOTAL FREE ENERGY PREDICTED BY IDOCK:   -2.23 KCAL/MOL
REMARK 923 INTER-LIGAND FREE ENERGY PREDICTED BY IDOCK:   -2.01 KCAL/MOL
REMARK 924 INTRA-LIGAND FREE ENERGY PREDICTED BY IDOCK:   -0.22 KCAL/MOL
REMARK 927      BINDING AFFINITY PREDICTED BY RF-SCORE:    0.00 PKD
ROOT
HETATM    1  N   UNL     1      -8.315   8.606  72.589  1.00  0.00    -0.408 NA 
HETATM    2  C   UNL     1      -9.676   8.712  72.060  1.00  0.00    -0.321 C  
HETATM    3  H1  UNL     1      -7.687   9.249  72.106  1.00  0.00     0.000 HD 
HETATM    4  H2  UNL     1      -7.971   7.647  72.554  1.00  0.00     0.000 HD 
ENDROOT
BRANCH   2   5
HETATM    5  C   UNL     1     -10.612   7.753  72.778  1.00  0.00    -0.341 C  
HETATM    6  S   UNL     1     -10.470   6.120  72.070  1.00  0.00    -0.218 S  
HETATM    7  O   UNL     1     -11.554   5.379  73.011  1.00  0.00    -0.296 OA 
HETATM    8  O   UNL     1     -11.038   6.108  70.743  1.00  0.00    -0.285 OA 
HETATM    9  O   UNL     1      -9.168   5.569  72.368  1.00  0.00    -0.144 OA 
ENDBRANCH   2   5
TORSDOF 1
ENDMDL
MODEL      138
REMARK 921   NORMALIZED FREE ENERGY PREDICTED BY IDOCK:   -1.89 KCAL/MOL
REMARK 922        TOTAL FREE ENERGY PREDICTED BY IDOCK:   -2.23 KCAL/MOL
REMARK 923 INTER-LIGAND FREE ENERGY PREDICTED BY IDOCK:   -1.86 KCAL/MOL
REMARK 924 INTRA-LIGAND FREE ENERGY PREDICTED BY IDOCK:   -0.37 KCAL/MOL
REMARK 927      BINDING AFFINITY PREDICTED BY RF-SCORE:    0.00 PKD
ROOT
HETATM    1  N   UNL     1     -10.023  11.832  68.604  1.00  0.00    -0.310 NA 
HETATM    2  C   UNL     1     -11.358  11.983  69.185  1.00  0.00    -0.281 C  
HETATM    3  H1  UNL     1      -9.730  12.691  68.138  1.00  0.00     0.000 HD 
HETATM    4  H2  UNL     1      -9.972  11.028  67.979  1.00  0.00     0.000 HD 
ENDROOT
BRANCH   2   5
HETATM    5  C   UNL     1     -11.795  10.704  69.879  1.00  0.00    -0.315 C  
HETATM    6  S   UNL     1     -10.561   9.435  69.648  1.00  0.00    -0.231 S  
HETATM    7  O   UNL     1     -11.305   8.255  70.464  1.00  0.00    -0.267 OA 
HETATM    8  O   UNL     1     -10.551   9.003  68.269  1.00  0.00    -0.214 OA 
HETATM    9  O   UNL     1      -9.358   9.785  70.365  1.00  0.00    -0.242 OA 
ENDBRANCH   2   5
TORSDOF 1
ENDMDL
MODEL      139
REMARK 921   NORMALIZED FREE ENERGY PREDICTED BY IDOCK:   -1.88 KCAL/MOL
REMARK 922        TOTAL FREE ENERGY PREDICTED BY IDOCK:   -2.22 KCAL/MOL
REMARK 923 INTER-LIGAND FREE ENERGY PREDICTED BY IDOCK:   -1.88 KCAL/MOL
REMARK 924 INTRA-LIGAND FREE ENERGY PREDICTED BY IDOCK:   -0.34 KCAL/MOL
REMARK 927      BINDING AFFINITY PREDICTED BY RF-SCORE:    0.00 PKD
ROOT
HETATM    1  N   UNL     1     -10.433  17.536  68.779  1.00  0.00    -0.348 NA 
HETATM    2  C   UNL     1     -10.657  17.071  67.409  1.00  0.00    -0.289 C  
HETATM    3  H1  UNL     1     -10.637  18.532  68.862  1.00  0.00     0.000 HD 
HETATM    4  H2  UNL     1      -9.492  17.315  69.103  1.00  0.00     0.000 HD 
ENDROOT
BRANCH   2   5
HETATM    5  C   UNL     1     -10.354  15.587  67.285  1.00  0.00    -0.267 C  
HETATM    6  S   UNL     1     -10.209  14.857  68.907  1.00  0.00    -0.242 S  
HETATM    7  O   UNL     1      -9.888  13.344  68.439  1.00  0.00    -0.229 OA 
HETATM    8  O   UNL     1      -9.004  15.326  69.552  1.00  0.00    -0.242 OA 
HETATM    9  O   UNL     1     -11.496  14.860  69.562  1.00  0.00    -0.264 OA 
ENDBRANCH   2   5
TORSDOF 1
ENDMDL
MODEL      140
REMARK 921   NORMALIZED FREE ENERGY PREDICTED BY IDOCK:   -1.87 KCAL/MOL
REMARK 922        TOTAL FREE ENERGY PREDICTED BY IDOCK:   -2.21 KCAL/MOL
REMARK 923 INTER-LIGAND FREE ENERGY PREDICTED BY IDOCK:   -2.19 KCAL/MOL
REMARK 924 INTRA-LIGAND FREE ENERGY PREDICTED BY IDOCK:   -0.01 KCAL/MOL
REMARK 927      BINDING AFFINITY PREDICTED BY RF-SCORE:    0.00 PKD
ROOT
HETATM    1  N   UNL     1     -10.284  14.805  70.050  1.00  0.00    -0.453 NA 
HETATM    2  C   UNL     1     -10.541  14.691  68.614  1.00  0.00    -0.252 C  
HETATM    3  H1  UNL     1     -11.090  14.489  70.590  1.00  0.00     0.000 HD 
HETATM    4  H2  UNL     1     -10.005  15.751  70.309  1.00  0.00     0.000 HD 
ENDROOT
BRANCH   2   5
HETATM    5  C   UNL     1      -9.341  15.163  67.809  1.00  0.00    -0.189 C  
HETATM    6  S   UNL     1      -9.889  16.052  66.362  1.00  0.00    -0.312 S  
HETATM    7  O   UNL     1      -8.434  16.392  65.749  1.00  0.00    -0.346 OA 
HETATM    8  O   UNL     1     -10.500  15.139  65.425  1.00  0.00    -0.331 OA 
HETATM    9  O   UNL     1     -10.510  17.295  66.758  1.00  0.00    -0.313 OA 
ENDBRANCH   2   5
TORSDOF 1
ENDMDL
MODEL      141
REMARK 921   NORMALIZED FREE ENERGY PREDICTED BY IDOCK:   -1.85 KCAL/MOL
REMARK 922        TOTAL FREE ENERGY PREDICTED BY IDOCK:   -2.19 KCAL/MOL
REMARK 923 INTER-LIGAND FREE ENERGY PREDICTED BY IDOCK:   -1.82 KCAL/MOL
REMARK 924 INTRA-LIGAND FREE ENERGY PREDICTED BY IDOCK:   -0.36 KCAL/MOL
REMARK 927      BINDING AFFINITY PREDICTED BY RF-SCORE:    0.00 PKD
ROOT
HETATM    1  N   UNL     1     -12.458   6.970  72.262  1.00  0.00    -0.522 NA 
HETATM    2  C   UNL     1     -11.273   7.661  72.773  1.00  0.00    -0.377 C  
HETATM    3  H1  UNL     1     -13.258   7.117  72.879  1.00  0.00     0.000 HD 
HETATM    4  H2  UNL     1     -12.280   5.978  72.109  1.00  0.00     0.000 HD 
ENDROOT
BRANCH   2   5
HETATM    5  C   UNL     1     -10.082   7.441  71.855  1.00  0.00    -0.178 C  
HETATM    6  S   UNL     1     -10.521   6.306  70.549  1.00  0.00    -0.235 S  
HETATM    7  O   UNL     1      -9.094   6.281  69.791  1.00  0.00    -0.141 OA 
HETATM    8  O   UNL     1     -10.694   4.977  71.089  1.00  0.00    -0.138 OA 
HETATM    9  O   UNL     1     -11.485   6.922  69.668  1.00  0.00    -0.232 OA 
ENDBRANCH   2   5
TORSDOF 1
ENDMDL
MODEL      142
REMARK 921   NORMALIZED FREE ENERGY PREDICTED BY IDOCK:   -1.84 KCAL/MOL
REMARK 922        TOTAL FREE ENERGY PREDICTED BY IDOCK:   -2.18 KCAL/MOL
REMARK 923 INTER-LIGAND FREE ENERGY PREDICTED BY IDOCK:   -1.94 KCAL/MOL
REMARK 924 INTRA-LIGAND FREE ENERGY PREDICTED BY IDOCK:   -0.24 KCAL/MOL
REMARK 927      BINDING AFFINITY PREDICTED BY RF-SCORE:    0.00 PKD
ROOT
HETATM    1  N   UNL     1     -11.420   4.481  65.070  1.00  0.00    -1.108 NA 
HETATM    2  C   UNL     1     -10.649   5.048  66.178  1.00  0.00    -0.265 C  
HETATM    3  H1  UNL     1     -12.422   4.564  65.245  1.00  0.00     0.000 HD 
HETATM    4  H2  UNL     1     -11.150   3.517  64.878  1.00  0.00     0.000 HD 
ENDROOT
BRANCH   2   5
HETATM    5  C   UNL     1      -9.157   4.923  65.919  1.00  0.00    -0.147 C  
HETATM    6  S   UNL     1      -8.623   3.249  66.232  1.00  0.00    -0.127 S  
HETATM    7  O   UNL     1      -7.057   3.450  65.888  1.00  0.00    -0.060 OA 
HETATM    8  O   UNL     1      -8.674   2.973  67.649  1.00  0.00    -0.098 OA 
HETATM    9  O   UNL     1      -9.188   2.361  65.243  1.00  0.00    -0.139 OA 
ENDBRANCH   2   5
TORSDOF 1
ENDMDL
MODEL      143
REMARK 921   NORMALIZED FREE ENERGY PREDICTED BY IDOCK:   -1.84 KCAL/MOL
REMARK 922        TOTAL FREE ENERGY PREDICTED BY IDOCK:   -2.18 KCAL/MOL
REMARK 923 INTER-LIGAND FREE ENERGY PREDICTED BY IDOCK:   -1.96 KCAL/MOL
REMARK 924 INTRA-LIGAND FREE ENERGY PREDICTED BY IDOCK:   -0.22 KCAL/MOL
REMARK 927      BINDING AFFINITY PREDICTED BY RF-SCORE:    0.00 PKD
ROOT
HETATM    1  N   UNL     1     -10.521  13.784  66.781  1.00  0.00    -0.269 NA 
HETATM    2  C   UNL     1     -11.699  12.924  66.652  1.00  0.00    -0.390 C  
HETATM    3  H1  UNL     1     -10.770  14.763  66.646  1.00  0.00     0.000 HD 
HETATM    4  H2  UNL     1      -9.773  13.495  66.151  1.00  0.00     0.000 HD 
ENDROOT
BRANCH   2   5
HETATM    5  C   UNL     1     -11.328  11.464  66.853  1.00  0.00    -0.210 C  
HETATM    6  S   UNL     1     -10.065  10.990  65.683  1.00  0.00    -0.268 S  
HETATM    7  O   UNL     1      -9.912   9.448  66.138  1.00  0.00    -0.274 OA 
HETATM    8  O   UNL     1     -10.620  10.947  64.351  1.00  0.00    -0.360 OA 
HETATM    9  O   UNL     1      -8.830  11.673  65.992  1.00  0.00    -0.188 OA 
ENDBRANCH   2   5
TORSDOF 1
ENDMDL
MODEL      144
REMARK 921   NORMALIZED FREE ENERGY PREDICTED BY IDOCK:   -1.84 KCAL/MOL
REMARK 922        TOTAL FREE ENERGY PREDICTED BY IDOCK:   -2.18 KCAL/MOL
REMARK 923 INTER-LIGAND FREE ENERGY PREDICTED BY IDOCK:   -1.83 KCAL/MOL
REMARK 924 INTRA-LIGAND FREE ENERGY PREDICTED BY IDOCK:   -0.35 KCAL/MOL
REMARK 927      BINDING AFFINITY PREDICTED BY RF-SCORE:    0.00 PKD
ROOT
HETATM    1  N   UNL     1     -11.501   6.636  67.213  1.00  0.00    -0.749 NA 
HETATM    2  C   UNL     1     -10.422   6.136  68.067  1.00  0.00    -0.228 C  
HETATM    3  H1  UNL     1     -12.181   5.901  67.020  1.00  0.00     0.000 HD 
HETATM    4  H2  UNL     1     -11.141   7.050  66.354  1.00  0.00     0.000 HD 
ENDROOT
BRANCH   2   5
HETATM    5  C   UNL     1      -9.408   7.231  68.354  1.00  0.00    -0.143 C  
HETATM    6  S   UNL     1      -9.794   8.686  67.394  1.00  0.00    -0.211 S  
HETATM    7  O   UNL     1      -8.574   9.614  67.903  1.00  0.00    -0.122 OA 
HETATM    8  O   UNL     1      -9.533   8.436  65.996  1.00  0.00    -0.209 OA 
HETATM    9  O   UNL     1     -11.028   9.270  67.865  1.00  0.00    -0.168 OA 
ENDBRANCH   2   5
TORSDOF 1
ENDMDL
MODEL      145
REMARK 921   NORMALIZED FREE ENERGY PREDICTED BY IDOCK:   -1.83 KCAL/MOL
REMARK 922        TOTAL FREE ENERGY PREDICTED BY IDOCK:   -2.16 KCAL/MOL
REMARK 923 INTER-LIGAND FREE ENERGY PREDICTED BY IDOCK:   -1.93 KCAL/MOL
REMARK 924 INTRA-LIGAND FREE ENERGY PREDICTED BY IDOCK:   -0.23 KCAL/MOL
REMARK 927      BINDING AFFINITY PREDICTED BY RF-SCORE:    0.00 PKD
ROOT
HETATM    1  N   UNL     1      -9.106   9.550  70.869  1.00  0.00    -0.324 NA 
HETATM    2  C   UNL     1      -9.199   8.345  70.042  1.00  0.00    -0.158 C  
HETATM    3  H1  UNL     1      -8.137   9.858  70.953  1.00  0.00     0.000 HD 
HETATM    4  H2  UNL     1      -9.538   9.415  71.782  1.00  0.00     0.000 HD 
ENDROOT
BRANCH   2   5
HETATM    5  C   UNL     1     -10.642   7.884  69.918  1.00  0.00    -0.242 C  
HETATM    6  S   UNL     1     -11.292   7.476  71.529  1.00  0.00    -0.262 S  
HETATM    7  O   UNL     1     -12.774   7.034  71.062  1.00  0.00    -0.367 OA 
HETATM    8  O   UNL     1     -10.666   6.271  72.022  1.00  0.00    -0.215 OA 
HETATM    9  O   UNL     1     -11.413   8.675  72.326  1.00  0.00    -0.365 OA 
ENDBRANCH   2   5
TORSDOF 1
ENDMDL
MODEL      146
REMARK 921   NORMALIZED FREE ENERGY PREDICTED BY IDOCK:   -1.82 KCAL/MOL
REMARK 922        TOTAL FREE ENERGY PREDICTED BY IDOCK:   -2.16 KCAL/MOL
REMARK 923 INTER-LIGAND FREE ENERGY PREDICTED BY IDOCK:   -1.94 KCAL/MOL
REMARK 924 INTRA-LIGAND FREE ENERGY PREDICTED BY IDOCK:   -0.21 KCAL/MOL
REMARK 927      BINDING AFFINITY PREDICTED BY RF-SCORE:    0.00 PKD
ROOT
HETATM    1  N   UNL     1     -10.309  16.982  67.645  1.00  0.00    -0.321 NA 
HETATM    2  C   UNL     1     -11.119  15.825  68.030  1.00  0.00    -0.337 C  
HETATM    3  H1  UNL     1     -10.347  17.707  68.362  1.00  0.00     0.000 HD 
HETATM    4  H2  UNL     1     -10.578  17.342  66.730  1.00  0.00     0.000 HD 
ENDROOT
BRANCH   2   5
HETATM    5  C   UNL     1     -11.064  14.745  66.963  1.00  0.00    -0.333 C  
HETATM    6  S   UNL     1      -9.598  13.750  67.179  1.00  0.00    -0.252 S  
HETATM    7  O   UNL     1      -9.827  12.748  65.932  1.00  0.00    -0.263 OA 
HETATM    8  O   UNL     1      -8.425  14.522  66.843  1.00  0.00    -0.211 OA 
HETATM    9  O   UNL     1      -9.704  12.981  68.397  1.00  0.00    -0.227 OA 
ENDBRANCH   2   5
TORSDOF 1
ENDMDL
MODEL      147
REMARK 921   NORMALIZED FREE ENERGY PREDICTED BY IDOCK:   -1.81 KCAL/MOL
REMARK 922        TOTAL FREE ENERGY PREDICTED BY IDOCK:   -2.15 KCAL/MOL
REMARK 923 INTER-LIGAND FREE ENERGY PREDICTED BY IDOCK:   -1.92 KCAL/MOL
REMARK 924 INTRA-LIGAND FREE ENERGY PREDICTED BY IDOCK:   -0.23 KCAL/MOL
REMARK 927      BINDING AFFINITY PREDICTED BY RF-SCORE:    0.00 PKD
ROOT
HETATM    1  N   UNL     1     -10.326   9.329  71.431  1.00  0.00    -0.335 NA 
HETATM    2  C   UNL     1     -10.554   8.380  70.339  1.00  0.00    -0.223 C  
HETATM    3  H1  UNL     1     -10.558  10.279  71.141  1.00  0.00     0.000 HD 
HETATM    4  H2  UNL     1      -9.375   9.267  71.792  1.00  0.00     0.000 HD 
ENDROOT
BRANCH   2   5
HETATM    5  C   UNL     1     -10.208   6.965  70.772  1.00  0.00    -0.195 C  
HETATM    6  S   UNL     1     -11.143   6.528  72.228  1.00  0.00    -0.276 S  
HETATM    7  O   UNL     1     -10.559   5.034  72.423  1.00  0.00    -0.211 OA 
HETATM    8  O   UNL     1     -10.665   7.281  73.364  1.00  0.00    -0.365 OA 
HETATM    9  O   UNL     1     -12.545   6.421  71.897  1.00  0.00    -0.314 OA 
ENDBRANCH   2   5
TORSDOF 1
ENDMDL
MODEL      148
REMARK 921   NORMALIZED FREE ENERGY PREDICTED BY IDOCK:   -1.81 KCAL/MOL
REMARK 922        TOTAL FREE ENERGY PREDICTED BY IDOCK:   -2.14 KCAL/MOL
REMARK 923 INTER-LIGAND FREE ENERGY PREDICTED BY IDOCK:   -1.75 KCAL/MOL
REMARK 924 INTRA-LIGAND FREE ENERGY PREDICTED BY IDOCK:   -0.39 KCAL/MOL
REMARK 927      BINDING AFFINITY PREDICTED BY RF-SCORE:    0.00 PKD
ROOT
HETATM    1  N   UNL     1     -10.767  16.461  67.081  1.00  0.00    -0.279 NA 
HETATM    2  C   UNL     1     -10.783  15.646  68.297  1.00  0.00    -0.283 C  
HETATM    3  H1  UNL     1     -11.650  16.379  66.577  1.00  0.00     0.000 HD 
HETATM    4  H2  UNL     1      -9.971  16.235  66.485  1.00  0.00     0.000 HD 
ENDROOT
BRANCH   2   5
HETATM    5  C   UNL     1      -9.467  15.768  69.047  1.00  0.00    -0.247 C  
HETATM    6  S   UNL     1      -8.429  16.989  68.261  1.00  0.00    -0.241 S  
HETATM    7  O   UNL     1      -7.161  16.871  69.255  1.00  0.00    -0.237 OA 
HETATM    8  O   UNL     1      -7.967  16.493  66.985  1.00  0.00    -0.167 OA 
HETATM    9  O   UNL     1      -9.006  18.302  68.425  1.00  0.00    -0.297 OA 
ENDBRANCH   2   5
TORSDOF 1
ENDMDL
MODEL      149
REMARK 921   NORMALIZED FREE ENERGY PREDICTED BY IDOCK:   -1.81 KCAL/MOL
REMARK 922        TOTAL FREE ENERGY PREDICTED BY IDOCK:   -2.14 KCAL/MOL
REMARK 923 INTER-LIGAND FREE ENERGY PREDICTED BY IDOCK:   -1.91 KCAL/MOL
REMARK 924 INTRA-LIGAND FREE ENERGY PREDICTED BY IDOCK:   -0.23 KCAL/MOL
REMARK 927      BINDING AFFINITY PREDICTED BY RF-SCORE:    0.00 PKD
ROOT
HETATM    1  N   UNL     1      -8.547  20.727  67.143  1.00  0.00    -0.551 NA 
HETATM    2  C   UNL     1      -8.474  19.942  65.909  1.00  0.00    -0.159 C  
HETATM    3  H1  UNL     1      -9.395  21.292  67.164  1.00  0.00     0.000 HD 
HETATM    4  H2  UNL     1      -7.711  21.295  67.278  1.00  0.00     0.000 HD 
ENDROOT
BRANCH   2   5
HETATM    5  C   UNL     1      -7.210  19.099  65.877  1.00  0.00    -0.266 C  
HETATM    6  S   UNL     1      -7.432  17.631  66.867  1.00  0.00    -0.215 S  
HETATM    7  O   UNL     1      -5.967  16.989  66.639  1.00  0.00    -0.188 OA 
HETATM    8  O   UNL     1      -7.485  17.984  68.267  1.00  0.00    -0.246 OA 
HETATM    9  O   UNL     1      -8.403  16.762  66.244  1.00  0.00    -0.288 OA 
ENDBRANCH   2   5
TORSDOF 1
ENDMDL
MODEL      150
REMARK 921   NORMALIZED FREE ENERGY PREDICTED BY IDOCK:   -1.80 KCAL/MOL
REMARK 922        TOTAL FREE ENERGY PREDICTED BY IDOCK:   -2.14 KCAL/MOL
REMARK 923 INTER-LIGAND FREE ENERGY PREDICTED BY IDOCK:   -1.86 KCAL/MOL
REMARK 924 INTRA-LIGAND FREE ENERGY PREDICTED BY IDOCK:   -0.27 KCAL/MOL
REMARK 927      BINDING AFFINITY PREDICTED BY RF-SCORE:    0.00 PKD
ROOT
HETATM    1  N   UNL     1     -10.522   6.731  73.882  1.00  0.00    -0.426 NA 
HETATM    2  C   UNL     1     -11.282   7.604  72.985  1.00  0.00    -0.333 C  
HETATM    3  H1  UNL     1     -10.447   7.144  74.812  1.00  0.00     0.000 HD 
HETATM    4  H2  UNL     1      -9.607   6.500  73.497  1.00  0.00     0.000 HD 
ENDROOT
BRANCH   2   5
HETATM    5  C   UNL     1     -11.394   6.990  71.599  1.00  0.00    -0.257 C  
HETATM    6  S   UNL     1     -10.213   5.663  71.424  1.00  0.00    -0.221 S  
HETATM    7  O   UNL     1     -10.571   5.250  69.903  1.00  0.00    -0.306 OA 
HETATM    8  O   UNL     1      -8.873   6.199  71.374  1.00  0.00    -0.138 OA 
HETATM    9  O   UNL     1     -10.582   4.563  72.285  1.00  0.00    -0.182 OA 
ENDBRANCH   2   5
TORSDOF 1
ENDMDL
MODEL      151
REMARK 921   NORMALIZED FREE ENERGY PREDICTED BY IDOCK:   -1.79 KCAL/MOL
REMARK 922        TOTAL FREE ENERGY PREDICTED BY IDOCK:   -2.12 KCAL/MOL
REMARK 923 INTER-LIGAND FREE ENERGY PREDICTED BY IDOCK:   -1.89 KCAL/MOL
REMARK 924 INTRA-LIGAND FREE ENERGY PREDICTED BY IDOCK:   -0.22 KCAL/MOL
REMARK 927      BINDING AFFINITY PREDICTED BY RF-SCORE:    0.00 PKD
ROOT
HETATM    1  N   UNL     1      -7.294  15.008  66.838  1.00  0.00    -0.310 NA 
HETATM    2  C   UNL     1      -6.932  15.829  67.995  1.00  0.00    -0.125 C  
HETATM    3  H1  UNL     1      -6.590  14.288  66.670  1.00  0.00     0.000 HD 
HETATM    4  H2  UNL     1      -7.457  15.577  66.008  1.00  0.00     0.000 HD 
ENDROOT
BRANCH   2   5
HETATM    5  C   UNL     1      -7.979  16.901  68.246  1.00  0.00    -0.211 C  
HETATM    6  S   UNL     1      -7.703  18.289  67.157  1.00  0.00    -0.225 S  
HETATM    7  O   UNL     1      -8.927  19.213  67.666  1.00  0.00    -0.291 OA 
HETATM    8  O   UNL     1      -6.502  18.989  67.548  1.00  0.00    -0.193 OA 
HETATM    9  O   UNL     1      -7.973  17.901  65.793  1.00  0.00    -0.540 OA 
ENDBRANCH   2   5
TORSDOF 1
ENDMDL
MODEL      152
REMARK 921   NORMALIZED FREE ENERGY PREDICTED BY IDOCK:   -1.77 KCAL/MOL
REMARK 922        TOTAL FREE ENERGY PREDICTED BY IDOCK:   -2.10 KCAL/MOL
REMARK 923 INTER-LIGAND FREE ENERGY PREDICTED BY IDOCK:   -1.87 KCAL/MOL
REMARK 924 INTRA-LIGAND FREE ENERGY PREDICTED BY IDOCK:   -0.23 KCAL/MOL
REMARK 927      BINDING AFFINITY PREDICTED BY RF-SCORE:    0.00 PKD
ROOT
HETATM    1  N   UNL     1     -11.157   5.375  66.039  1.00  0.00    -0.789 NA 
HETATM    2  C   UNL     1      -9.708   5.170  65.976  1.00  0.00    -0.165 C  
HETATM    3  H1  UNL     1     -11.637   4.783  65.362  1.00  0.00     0.000 HD 
HETATM    4  H2  UNL     1     -11.403   6.357  65.923  1.00  0.00     0.000 HD 
ENDROOT
BRANCH   2   5
HETATM    5  C   UNL     1      -8.992   6.052  66.985  1.00  0.00    -0.113 C  
HETATM    6  S   UNL     1      -9.311   7.771  66.626  1.00  0.00    -0.197 S  
HETATM    7  O   UNL     1      -8.435   8.411  67.823  1.00  0.00    -0.128 OA 
HETATM    8  O   UNL     1      -8.635   8.152  65.407  1.00  0.00    -0.160 OA 
HETATM    9  O   UNL     1     -10.700   8.074  66.875  1.00  0.00    -0.322 OA 
ENDBRANCH   2   5
TORSDOF 1
ENDMDL
MODEL      153
REMARK 921   NORMALIZED FREE ENERGY PREDICTED BY IDOCK:   -1.76 KCAL/MOL
REMARK 922        TOTAL FREE ENERGY PREDICTED BY IDOCK:   -2.09 KCAL/MOL
REMARK 923 INTER-LIGAND FREE ENERGY PREDICTED BY IDOCK:   -1.75 KCAL/MOL
REMARK 924 INTRA-LIGAND FREE ENERGY PREDICTED BY IDOCK:   -0.34 KCAL/MOL
REMARK 927      BINDING AFFINITY PREDICTED BY RF-SCORE:    0.00 PKD
ROOT
HETATM    1  N   UNL     1      -8.080  16.592  66.371  1.00  0.00    -0.307 NA 
HETATM    2  C   UNL     1      -6.845  16.181  67.043  1.00  0.00    -0.181 C  
HETATM    3  H1  UNL     1      -8.755  15.828  66.356  1.00  0.00     0.000 HD 
HETATM    4  H2  UNL     1      -7.898  16.953  65.436  1.00  0.00     0.000 HD 
ENDROOT
BRANCH   2   5
HETATM    5  C   UNL     1      -5.838  17.319  67.065  1.00  0.00    -0.164 C  
HETATM    6  S   UNL     1      -6.632  18.845  66.591  1.00  0.00    -0.194 S  
HETATM    7  O   UNL     1      -5.340  19.809  66.703  1.00  0.00    -0.164 OA 
HETATM    8  O   UNL     1      -6.967  18.810  65.186  1.00  0.00    -0.502 OA 
HETATM    9  O   UNL     1      -7.576  19.243  67.608  1.00  0.00    -0.238 OA 
ENDBRANCH   2   5
TORSDOF 1
ENDMDL
MODEL      154
REMARK 921   NORMALIZED FREE ENERGY PREDICTED BY IDOCK:   -1.76 KCAL/MOL
REMARK 922        TOTAL FREE ENERGY PREDICTED BY IDOCK:   -2.09 KCAL/MOL
REMARK 923 INTER-LIGAND FREE ENERGY PREDICTED BY IDOCK:   -1.70 KCAL/MOL
REMARK 924 INTRA-LIGAND FREE ENERGY PREDICTED BY IDOCK:   -0.39 KCAL/MOL
REMARK 927      BINDING AFFINITY PREDICTED BY RF-SCORE:    0.00 PKD
ROOT
HETATM    1  N   UNL     1     -11.133   5.685  66.398  1.00  0.00    -0.758 NA 
HETATM    2  C   UNL     1     -10.828   6.958  67.054  1.00  0.00    -0.366 C  
HETATM    3  H1  UNL     1     -12.139   5.576  66.268  1.00  0.00     0.000 HD 
HETATM    4  H2  UNL     1     -10.731   4.895  66.901  1.00  0.00     0.000 HD 
ENDROOT
BRANCH   2   5
HETATM    5  C   UNL     1      -9.330   7.121  67.249  1.00  0.00    -0.134 C  
HETATM    6  S   UNL     1      -8.468   5.730  66.534  1.00  0.00    -0.118 S  
HETATM    7  O   UNL     1      -6.964   6.189  66.905  1.00  0.00    -0.067 OA 
HETATM    8  O   UNL     1      -8.714   4.543  67.318  1.00  0.00    -0.104 OA 
HETATM    9  O   UNL     1      -8.602   5.758  65.096  1.00  0.00    -0.149 OA 
ENDBRANCH   2   5
TORSDOF 1
ENDMDL
MODEL      155
REMARK 921   NORMALIZED FREE ENERGY PREDICTED BY IDOCK:   -1.76 KCAL/MOL
REMARK 922        TOTAL FREE ENERGY PREDICTED BY IDOCK:   -2.09 KCAL/MOL
REMARK 923 INTER-LIGAND FREE ENERGY PREDICTED BY IDOCK:   -1.72 KCAL/MOL
REMARK 924 INTRA-LIGAND FREE ENERGY PREDICTED BY IDOCK:   -0.37 KCAL/MOL
REMARK 927      BINDING AFFINITY PREDICTED BY RF-SCORE:    0.00 PKD
ROOT
HETATM    1  N   UNL     1      -9.437  12.057  67.949  1.00  0.00    -0.190 NA 
HETATM    2  C   UNL     1     -10.353  13.177  68.171  1.00  0.00    -0.244 C  
HETATM    3  H1  UNL     1      -8.586  12.371  67.483  1.00  0.00     0.000 HD 
HETATM    4  H2  UNL     1      -9.887  11.297  67.440  1.00  0.00     0.000 HD 
ENDROOT
BRANCH   2   5
HETATM    5  C   UNL     1     -11.622  12.709  68.865  1.00  0.00    -0.317 C  
HETATM    6  S   UNL     1     -11.589  10.935  69.062  1.00  0.00    -0.320 S  
HETATM    7  O   UNL     1     -13.022  10.769  69.791  1.00  0.00    -0.143 OA 
HETATM    8  O   UNL     1     -11.734  10.295  67.775  1.00  0.00    -0.247 OA 
HETATM    9  O   UNL     1     -10.561  10.566  70.006  1.00  0.00    -0.256 OA 
ENDBRANCH   2   5
TORSDOF 1
ENDMDL
MODEL      156
REMARK 921   NORMALIZED FREE ENERGY PREDICTED BY IDOCK:   -1.75 KCAL/MOL
REMARK 922        TOTAL FREE ENERGY PREDICTED BY IDOCK:   -2.08 KCAL/MOL
REMARK 923 INTER-LIGAND FREE ENERGY PREDICTED BY IDOCK:   -1.83 KCAL/MOL
REMARK 924 INTRA-LIGAND FREE ENERGY PREDICTED BY IDOCK:   -0.25 KCAL/MOL
REMARK 927      BINDING AFFINITY PREDICTED BY RF-SCORE:    0.00 PKD
ROOT
HETATM    1  N   UNL     1      -6.938  15.747  68.014  1.00  0.00    -0.117 NA 
HETATM    2  C   UNL     1      -8.238  16.070  67.424  1.00  0.00    -0.167 C  
HETATM    3  H1  UNL     1      -7.044  15.090  68.788  1.00  0.00     0.000 HD 
HETATM    4  H2  UNL     1      -6.434  16.586  68.299  1.00  0.00     0.000 HD 
ENDROOT
BRANCH   2   5
HETATM    5  C   UNL     1      -8.082  17.049  66.273  1.00  0.00    -0.297 C  
HETATM    6  S   UNL     1      -6.498  17.867  66.380  1.00  0.00    -0.254 S  
HETATM    7  O   UNL     1      -6.648  18.806  65.074  1.00  0.00    -0.496 OA 
HETATM    8  O   UNL     1      -6.487  18.771  67.507  1.00  0.00    -0.195 OA 
HETATM    9  O   UNL     1      -5.439  16.918  66.131  1.00  0.00    -0.308 OA 
ENDBRANCH   2   5
TORSDOF 1
ENDMDL
MODEL      157
REMARK 921   NORMALIZED FREE ENERGY PREDICTED BY IDOCK:   -1.74 KCAL/MOL
REMARK 922        TOTAL FREE ENERGY PREDICTED BY IDOCK:   -2.07 KCAL/MOL
REMARK 923 INTER-LIGAND FREE ENERGY PREDICTED BY IDOCK:   -1.86 KCAL/MOL
REMARK 924 INTRA-LIGAND FREE ENERGY PREDICTED BY IDOCK:   -0.21 KCAL/MOL
REMARK 927      BINDING AFFINITY PREDICTED BY RF-SCORE:    0.00 PKD
ROOT
HETATM    1  N   UNL     1      -9.600   3.839  70.138  1.00  0.00    -0.193 NA 
HETATM    2  C   UNL     1      -9.376   4.841  71.182  1.00  0.00    -0.148 C  
HETATM    3  H1  UNL     1      -8.716   3.438  69.825  1.00  0.00     0.000 HD 
HETATM    4  H2  UNL     1     -10.137   4.220  69.360  1.00  0.00     0.000 HD 
ENDROOT
BRANCH   2   5
HETATM    5  C   UNL     1     -10.692   5.440  71.649  1.00  0.00    -0.198 C  
HETATM    6  S   UNL     1     -11.179   6.765  70.556  1.00  0.00    -0.344 S  
HETATM    7  O   UNL     1     -12.550   7.175  71.306  1.00  0.00    -0.364 OA 
HETATM    8  O   UNL     1     -10.294   7.894  70.727  1.00  0.00    -0.201 OA 
HETATM    9  O   UNL     1     -11.521   6.230  69.259  1.00  0.00    -0.411 OA 
ENDBRANCH   2   5
TORSDOF 1
ENDMDL
MODEL      158
REMARK 921   NORMALIZED FREE ENERGY PREDICTED BY IDOCK:   -1.74 KCAL/MOL
REMARK 922        TOTAL FREE ENERGY PREDICTED BY IDOCK:   -2.07 KCAL/MOL
REMARK 923 INTER-LIGAND FREE ENERGY PREDICTED BY IDOCK:   -1.68 KCAL/MOL
REMARK 924 INTRA-LIGAND FREE ENERGY PREDICTED BY IDOCK:   -0.39 KCAL/MOL
REMARK 927      BINDING AFFINITY PREDICTED BY RF-SCORE:    0.00 PKD
ROOT
HETATM    1  N   UNL     1     -11.697   6.573  69.330  1.00  0.00    -0.632 NA 
HETATM    2  C   UNL     1     -10.658   7.597  69.453  1.00  0.00    -0.215 C  
HETATM    3  H1  UNL     1     -12.500   6.798  69.918  1.00  0.00     0.000 HD 
HETATM    4  H2  UNL     1     -11.334   5.642  69.529  1.00  0.00     0.000 HD 
ENDROOT
BRANCH   2   5
HETATM    5  C   UNL     1      -9.462   7.261  68.578  1.00  0.00    -0.140 C  
HETATM    6  S   UNL     1      -9.783   5.769  67.654  1.00  0.00    -0.126 S  
HETATM    7  O   UNL     1      -8.373   5.690  66.868  1.00  0.00    -0.108 OA 
HETATM    8  O   UNL     1      -9.794   4.631  68.544  1.00  0.00    -0.156 OA 
HETATM    9  O   UNL     1     -10.824   6.009  66.682  1.00  0.00    -0.299 OA 
ENDBRANCH   2   5
TORSDOF 1
ENDMDL
MODEL      159
REMARK 921   NORMALIZED FREE ENERGY PREDICTED BY IDOCK:   -1.72 KCAL/MOL
REMARK 922        TOTAL FREE ENERGY PREDICTED BY IDOCK:   -2.05 KCAL/MOL
REMARK 923 INTER-LIGAND FREE ENERGY PREDICTED BY IDOCK:   -1.81 KCAL/MOL
REMARK 924 INTRA-LIGAND FREE ENERGY PREDICTED BY IDOCK:   -0.24 KCAL/MOL
REMARK 927      BINDING AFFINITY PREDICTED BY RF-SCORE:    0.00 PKD
ROOT
HETATM    1  N   UNL     1      -8.716   8.529  63.475  1.00  0.00    -0.417 NA 
HETATM    2  C   UNL     1      -8.259   8.673  64.858  1.00  0.00    -0.157 C  
HETATM    3  H1  UNL     1      -8.702   7.550  63.188  1.00  0.00     0.000 HD 
HETATM    4  H2  UNL     1      -8.179   9.116  62.838  1.00  0.00     0.000 HD 
ENDROOT
BRANCH   2   5
HETATM    5  C   UNL     1      -8.280  10.131  65.286  1.00  0.00    -0.157 C  
HETATM    6  S   UNL     1      -9.965  10.672  65.522  1.00  0.00    -0.287 S  
HETATM    7  O   UNL     1      -9.648  12.199  65.944  1.00  0.00    -0.239 OA 
HETATM    8  O   UNL     1     -10.638  10.756  64.247  1.00  0.00    -0.350 OA 
HETATM    9  O   UNL     1     -10.539  10.002  66.665  1.00  0.00    -0.198 OA 
ENDBRANCH   2   5
TORSDOF 1
ENDMDL
MODEL      160
REMARK 921   NORMALIZED FREE ENERGY PREDICTED BY IDOCK:   -1.72 KCAL/MOL
REMARK 922        TOTAL FREE ENERGY PREDICTED BY IDOCK:   -2.04 KCAL/MOL
REMARK 923 INTER-LIGAND FREE ENERGY PREDICTED BY IDOCK:   -1.65 KCAL/MOL
REMARK 924 INTRA-LIGAND FREE ENERGY PREDICTED BY IDOCK:   -0.39 KCAL/MOL
REMARK 927      BINDING AFFINITY PREDICTED BY RF-SCORE:    0.00 PKD
ROOT
HETATM    1  N   UNL     1     -11.495   7.112  70.450  1.00  0.00    -0.378 NA 
HETATM    2  C   UNL     1     -12.233   6.809  71.678  1.00  0.00    -0.365 C  
HETATM    3  H1  UNL     1     -11.971   7.835  69.910  1.00  0.00     0.000 HD 
HETATM    4  H2  UNL     1     -11.329   6.275  69.893  1.00  0.00     0.000 HD 
ENDROOT
BRANCH   2   5
HETATM    5  C   UNL     1     -11.525   5.732  72.482  1.00  0.00    -0.296 C  
HETATM    6  S   UNL     1     -10.015   5.251  71.660  1.00  0.00    -0.186 S  
HETATM    7  O   UNL     1      -9.533   4.134  72.723  1.00  0.00    -0.121 OA 
HETATM    8  O   UNL     1     -10.323   4.526  70.450  1.00  0.00    -0.161 OA 
HETATM    9  O   UNL     1      -9.069   6.342  71.697  1.00  0.00    -0.144 OA 
ENDBRANCH   2   5
TORSDOF 1
ENDMDL
MODEL      161
REMARK 921   NORMALIZED FREE ENERGY PREDICTED BY IDOCK:   -1.71 KCAL/MOL
REMARK 922        TOTAL FREE ENERGY PREDICTED BY IDOCK:   -2.04 KCAL/MOL
REMARK 923 INTER-LIGAND FREE ENERGY PREDICTED BY IDOCK:   -1.67 KCAL/MOL
REMARK 924 INTRA-LIGAND FREE ENERGY PREDICTED BY IDOCK:   -0.37 KCAL/MOL
REMARK 927      BINDING AFFINITY PREDICTED BY RF-SCORE:    0.00 PKD
ROOT
HETATM    1  N   UNL     1      -9.352  15.764  66.067  1.00  0.00    -0.342 NA 
HETATM    2  C   UNL     1     -10.190  15.533  64.888  1.00  0.00    -0.074 C  
HETATM    3  H1  UNL     1      -9.071  16.743  66.126  1.00  0.00     0.000 HD 
HETATM    4  H2  UNL     1      -8.547  15.139  66.085  1.00  0.00     0.000 HD 
ENDROOT
BRANCH   2   5
HETATM    5  C   UNL     1     -10.608  14.075  64.800  1.00  0.00    -0.421 C  
HETATM    6  S   UNL     1     -10.142  13.216  66.293  1.00  0.00    -0.289 S  
HETATM    7  O   UNL     1     -10.697  11.753  65.887  1.00  0.00    -0.264 OA 
HETATM    8  O   UNL     1      -8.705  13.080  66.355  1.00  0.00    -0.010 OA 
HETATM    9  O   UNL     1     -10.929  13.701  67.403  1.00  0.00    -0.269 OA 
ENDBRANCH   2   5
TORSDOF 1
ENDMDL
MODEL      162
REMARK 921   NORMALIZED FREE ENERGY PREDICTED BY IDOCK:   -1.71 KCAL/MOL
REMARK 922        TOTAL FREE ENERGY PREDICTED BY IDOCK:   -2.03 KCAL/MOL
REMARK 923 INTER-LIGAND FREE ENERGY PREDICTED BY IDOCK:   -1.80 KCAL/MOL
REMARK 924 INTRA-LIGAND FREE ENERGY PREDICTED BY IDOCK:   -0.23 KCAL/MOL
REMARK 927      BINDING AFFINITY PREDICTED BY RF-SCORE:    0.00 PKD
ROOT
HETATM    1  N   UNL     1     -12.187   7.168  70.655  1.00  0.00    -0.571 NA 
HETATM    2  C   UNL     1     -11.416   7.730  71.766  1.00  0.00    -0.266 C  
HETATM    3  H1  UNL     1     -12.706   6.343  70.955  1.00  0.00     0.000 HD 
HETATM    4  H2  UNL     1     -11.597   6.970  69.849  1.00  0.00     0.000 HD 
ENDROOT
BRANCH   2   5
HETATM    5  C   UNL     1     -10.643   8.960  71.320  1.00  0.00    -0.281 C  
HETATM    6  S   UNL     1      -9.450   8.510  70.071  1.00  0.00    -0.166 S  
HETATM    7  O   UNL     1      -8.818   9.978  69.832  1.00  0.00    -0.205 OA 
HETATM    8  O   UNL     1      -8.391   7.725  70.662  1.00  0.00    -0.120 OA 
HETATM    9  O   UNL     1     -10.133   8.114  68.862  1.00  0.00    -0.191 OA 
ENDBRANCH   2   5
TORSDOF 1
ENDMDL
MODEL      163
REMARK 921   NORMALIZED FREE ENERGY PREDICTED BY IDOCK:   -1.67 KCAL/MOL
REMARK 922        TOTAL FREE ENERGY PREDICTED BY IDOCK:   -2.00 KCAL/MOL
REMARK 923 INTER-LIGAND FREE ENERGY PREDICTED BY IDOCK:   -1.60 KCAL/MOL
REMARK 924 INTRA-LIGAND FREE ENERGY PREDICTED BY IDOCK:   -0.39 KCAL/MOL
REMARK 927      BINDING AFFINITY PREDICTED BY RF-SCORE:    0.00 PKD
ROOT
HETATM    1  N   UNL     1      -9.068   9.620  70.568  1.00  0.00    -0.321 NA 
HETATM    2  C   UNL     1      -8.955   9.427  69.121  1.00  0.00    -0.147 C  
HETATM    3  H1  UNL     1      -8.620  10.490  70.855  1.00  0.00     0.000 HD 
HETATM    4  H2  UNL     1      -8.703   8.820  71.085  1.00  0.00     0.000 HD 
ENDROOT
BRANCH   2   5
HETATM    5  C   UNL     1      -9.622   8.131  68.694  1.00  0.00    -0.149 C  
HETATM    6  S   UNL     1     -10.347   7.323  70.111  1.00  0.00    -0.217 S  
HETATM    7  O   UNL     1     -10.939   6.029  69.347  1.00  0.00    -0.332 OA 
HETATM    8  O   UNL     1      -9.306   6.819  70.976  1.00  0.00    -0.160 OA 
HETATM    9  O   UNL     1     -11.461   8.102  70.601  1.00  0.00    -0.278 OA 
ENDBRANCH   2   5
TORSDOF 1
ENDMDL
MODEL      164
REMARK 921   NORMALIZED FREE ENERGY PREDICTED BY IDOCK:   -1.65 KCAL/MOL
REMARK 922        TOTAL FREE ENERGY PREDICTED BY IDOCK:   -1.98 KCAL/MOL
REMARK 923 INTER-LIGAND FREE ENERGY PREDICTED BY IDOCK:   -1.74 KCAL/MOL
REMARK 924 INTRA-LIGAND FREE ENERGY PREDICTED BY IDOCK:   -0.24 KCAL/MOL
REMARK 927      BINDING AFFINITY PREDICTED BY RF-SCORE:    0.00 PKD
ROOT
HETATM    1  N   UNL     1     -10.369   4.650  73.765  1.00  0.00    -0.187 NA 
HETATM    2  C   UNL     1     -10.793   4.869  72.381  1.00  0.00    -0.137 C  
HETATM    3  H1  UNL     1      -9.847   3.778  73.850  1.00  0.00     0.000 HD 
HETATM    4  H2  UNL     1     -11.157   4.681  74.410  1.00  0.00     0.000 HD 
ENDROOT
BRANCH   2   5
HETATM    5  C   UNL     1     -11.572   6.168  72.253  1.00  0.00    -0.313 C  
HETATM    6  S   UNL     1     -10.457   7.558  72.353  1.00  0.00    -0.265 S  
HETATM    7  O   UNL     1     -11.557   8.732  72.200  1.00  0.00    -0.362 OA 
HETATM    8  O   UNL     1      -9.945   7.683  73.698  1.00  0.00    -0.312 OA 
HETATM    9  O   UNL     1      -9.606   7.588  71.187  1.00  0.00    -0.159 OA 
ENDBRANCH   2   5
TORSDOF 1
ENDMDL
MODEL      165
REMARK 921   NORMALIZED FREE ENERGY PREDICTED BY IDOCK:   -1.63 KCAL/MOL
REMARK 922        TOTAL FREE ENERGY PREDICTED BY IDOCK:   -1.95 KCAL/MOL
REMARK 923 INTER-LIGAND FREE ENERGY PREDICTED BY IDOCK:   -1.92 KCAL/MOL
REMARK 924 INTRA-LIGAND FREE ENERGY PREDICTED BY IDOCK:   -0.03 KCAL/MOL
REMARK 927      BINDING AFFINITY PREDICTED BY RF-SCORE:    0.00 PKD
ROOT
HETATM    1  N   UNL     1     -12.648   8.240  70.699  1.00  0.00    -0.379 NA 
HETATM    2  C   UNL     1     -12.434   7.635  72.015  1.00  0.00    -0.270 C  
HETATM    3  H1  UNL     1     -13.459   7.827  70.237  1.00  0.00     0.000 HD 
HETATM    4  H2  UNL     1     -11.813   8.183  70.117  1.00  0.00     0.000 HD 
ENDROOT
BRANCH   2   5
HETATM    5  C   UNL     1     -11.227   8.250  72.703  1.00  0.00    -0.340 C  
HETATM    6  S   UNL     1     -10.048   6.975  73.119  1.00  0.00    -0.259 S  
HETATM    7  O   UNL     1      -8.939   7.921  73.815  1.00  0.00    -0.261 OA 
HETATM    8  O   UNL     1     -10.572   6.149  74.182  1.00  0.00    -0.260 OA 
HETATM    9  O   UNL     1      -9.475   6.426  71.913  1.00  0.00    -0.153 OA 
ENDBRANCH   2   5
TORSDOF 1
ENDMDL
MODEL      166
REMARK 921   NORMALIZED FREE ENERGY PREDICTED BY IDOCK:   -1.60 KCAL/MOL
REMARK 922        TOTAL FREE ENERGY PREDICTED BY IDOCK:   -1.92 KCAL/MOL
REMARK 923 INTER-LIGAND FREE ENERGY PREDICTED BY IDOCK:   -1.68 KCAL/MOL
REMARK 924 INTRA-LIGAND FREE ENERGY PREDICTED BY IDOCK:   -0.24 KCAL/MOL
REMARK 927      BINDING AFFINITY PREDICTED BY RF-SCORE:    0.00 PKD
ROOT
HETATM    1  N   UNL     1      -8.568  10.223  69.736  1.00  0.00    -0.369 NA 
HETATM    2  C   UNL     1      -9.887  10.205  69.102  1.00  0.00    -0.214 C  
HETATM    3  H1  UNL     1      -7.930  10.836  69.228  1.00  0.00     0.000 HD 
HETATM    4  H2  UNL     1      -8.186   9.284  69.839  1.00  0.00     0.000 HD 
ENDROOT
BRANCH   2   5
HETATM    5  C   UNL     1     -10.839   9.292  69.858  1.00  0.00    -0.234 C  
HETATM    6  S   UNL     1     -10.287   7.599  69.731  1.00  0.00    -0.227 S  
HETATM    7  O   UNL     1     -11.470   6.917  70.595  1.00  0.00    -0.297 OA 
HETATM    8  O   UNL     1     -10.471   7.121  68.380  1.00  0.00    -0.189 OA 
HETATM    9  O   UNL     1      -9.049   7.431  70.456  1.00  0.00    -0.155 OA 
ENDBRANCH   2   5
TORSDOF 1
ENDMDL
MODEL      167
REMARK 921   NORMALIZED FREE ENERGY PREDICTED BY IDOCK:   -1.58 KCAL/MOL
REMARK 922        TOTAL FREE ENERGY PREDICTED BY IDOCK:   -1.90 KCAL/MOL
REMARK 923 INTER-LIGAND FREE ENERGY PREDICTED BY IDOCK:   -1.61 KCAL/MOL
REMARK 924 INTRA-LIGAND FREE ENERGY PREDICTED BY IDOCK:   -0.29 KCAL/MOL
REMARK 927      BINDING AFFINITY PREDICTED BY RF-SCORE:    0.00 PKD
ROOT
HETATM    1  N   UNL     1      -8.782  19.355  68.992  1.00  0.00    -0.298 NA 
HETATM    2  C   UNL     1      -8.870  18.042  68.349  1.00  0.00    -0.292 C  
HETATM    3  H1  UNL     1      -9.640  19.568  69.501  1.00  0.00     0.000 HD 
HETATM    4  H2  UNL     1      -8.549  20.087  68.322  1.00  0.00     0.000 HD 
ENDROOT
BRANCH   2   5
HETATM    5  C   UNL     1      -7.592  17.724  67.591  1.00  0.00    -0.210 C  
HETATM    6  S   UNL     1      -6.592  19.194  67.440  1.00  0.00    -0.193 S  
HETATM    7  O   UNL     1      -5.367  18.542  66.612  1.00  0.00    -0.137 OA 
HETATM    8  O   UNL     1      -7.219  20.126  66.532  1.00  0.00    -0.246 OA 
HETATM    9  O   UNL     1      -6.096  19.585  68.739  1.00  0.00    -0.232 OA 
ENDBRANCH   2   5
TORSDOF 1
ENDMDL
MODEL      168
REMARK 921   NORMALIZED FREE ENERGY PREDICTED BY IDOCK:   -1.56 KCAL/MOL
REMARK 922        TOTAL FREE ENERGY PREDICTED BY IDOCK:   -1.88 KCAL/MOL
REMARK 923 INTER-LIGAND FREE ENERGY PREDICTED BY IDOCK:   -1.62 KCAL/MOL
REMARK 924 INTRA-LIGAND FREE ENERGY PREDICTED BY IDOCK:   -0.26 KCAL/MOL
REMARK 927      BINDING AFFINITY PREDICTED BY RF-SCORE:    0.00 PKD
ROOT
HETATM    1  N   UNL     1      -8.916   9.761  70.676  1.00  0.00    -0.359 NA 
HETATM    2  C   UNL     1      -8.078   9.923  69.486  1.00  0.00    -0.152 C  
HETATM    3  H1  UNL     1      -8.540  10.294  71.460  1.00  0.00     0.000 HD 
HETATM    4  H2  UNL     1      -9.045   8.779  70.915  1.00  0.00     0.000 HD 
ENDROOT
BRANCH   2   5
HETATM    5  C   UNL     1      -8.638   9.128  68.318  1.00  0.00    -0.129 C  
HETATM    6  S   UNL     1     -10.397   8.902  68.522  1.00  0.00    -0.181 S  
HETATM    7  O   UNL     1     -10.666   8.049  67.177  1.00  0.00    -0.322 OA 
HETATM    8  O   UNL     1     -10.652   7.992  69.614  1.00  0.00    -0.226 OA 
HETATM    9  O   UNL     1     -11.072  10.172  68.390  1.00  0.00    -0.250 OA 
ENDBRANCH   2   5
TORSDOF 1
ENDMDL
MODEL      169
REMARK 921   NORMALIZED FREE ENERGY PREDICTED BY IDOCK:   -1.56 KCAL/MOL
REMARK 922        TOTAL FREE ENERGY PREDICTED BY IDOCK:   -1.88 KCAL/MOL
REMARK 923 INTER-LIGAND FREE ENERGY PREDICTED BY IDOCK:   -1.50 KCAL/MOL
REMARK 924 INTRA-LIGAND FREE ENERGY PREDICTED BY IDOCK:   -0.38 KCAL/MOL
REMARK 927      BINDING AFFINITY PREDICTED BY RF-SCORE:    0.00 PKD
ROOT
HETATM    1  N   UNL     1      -9.615   4.176  68.656  1.00  0.00    -0.151 NA 
HETATM    2  C   UNL     1      -8.477   5.026  69.013  1.00  0.00    -0.082 C  
HETATM    3  H1  UNL     1      -9.342   3.194  68.637  1.00  0.00     0.000 HD 
HETATM    4  H2  UNL     1     -10.041   4.467  67.777  1.00  0.00     0.000 HD 
ENDROOT
BRANCH   2   5
HETATM    5  C   UNL     1      -8.883   6.490  69.042  1.00  0.00    -0.130 C  
HETATM    6  S   UNL     1     -10.652   6.636  68.848  1.00  0.00    -0.252 S  
HETATM    7  O   UNL     1     -10.747   8.247  68.909  1.00  0.00    -0.175 OA 
HETATM    8  O   UNL     1     -11.030   6.277  67.501  1.00  0.00    -0.320 OA 
HETATM    9  O   UNL     1     -11.317   6.103  70.014  1.00  0.00    -0.392 OA 
ENDBRANCH   2   5
TORSDOF 1
ENDMDL
MODEL      170
REMARK 921   NORMALIZED FREE ENERGY PREDICTED BY IDOCK:   -1.55 KCAL/MOL
REMARK 922        TOTAL FREE ENERGY PREDICTED BY IDOCK:   -1.87 KCAL/MOL
REMARK 923 INTER-LIGAND FREE ENERGY PREDICTED BY IDOCK:   -1.62 KCAL/MOL
REMARK 924 INTRA-LIGAND FREE ENERGY PREDICTED BY IDOCK:   -0.24 KCAL/MOL
REMARK 927      BINDING AFFINITY PREDICTED BY RF-SCORE:    0.00 PKD
ROOT
HETATM    1  N   UNL     1      -8.579   8.186  66.624  1.00  0.00    -0.130 NA 
HETATM    2  C   UNL     1      -8.149   7.520  67.854  1.00  0.00    -0.119 C  
HETATM    3  H1  UNL     1      -7.804   8.267  65.965  1.00  0.00     0.000 HD 
HETATM    4  H2  UNL     1      -9.006   9.092  66.815  1.00  0.00     0.000 HD 
ENDROOT
BRANCH   2   5
HETATM    5  C   UNL     1      -9.302   7.400  68.836  1.00  0.00    -0.145 C  
HETATM    6  S   UNL     1     -10.439   6.137  68.288  1.00  0.00    -0.261 S  
HETATM    7  O   UNL     1     -11.507   6.265  69.494  1.00  0.00    -0.428 OA 
HETATM    8  O   UNL     1     -11.138   6.584  67.105  1.00  0.00    -0.390 OA 
HETATM    9  O   UNL     1      -9.812   4.840  68.381  1.00  0.00    -0.152 OA 
ENDBRANCH   2   5
TORSDOF 1
ENDMDL
MODEL      171
REMARK 921   NORMALIZED FREE ENERGY PREDICTED BY IDOCK:   -1.53 KCAL/MOL
REMARK 922        TOTAL FREE ENERGY PREDICTED BY IDOCK:   -1.85 KCAL/MOL
REMARK 923 INTER-LIGAND FREE ENERGY PREDICTED BY IDOCK:   -1.82 KCAL/MOL
REMARK 924 INTRA-LIGAND FREE ENERGY PREDICTED BY IDOCK:   -0.03 KCAL/MOL
REMARK 927      BINDING AFFINITY PREDICTED BY RF-SCORE:    0.00 PKD
ROOT
HETATM    1  N   UNL     1     -12.345  14.013  67.284  1.00  0.00    -0.540 NA 
HETATM    2  C   UNL     1     -11.312  14.721  68.042  1.00  0.00    -0.316 C  
HETATM    3  H1  UNL     1     -11.926  13.407  66.578  1.00  0.00     0.000 HD 
HETATM    4  H2  UNL     1     -13.021  14.657  66.875  1.00  0.00     0.000 HD 
ENDROOT
BRANCH   2   5
HETATM    5  C   UNL     1     -11.935  15.624  69.094  1.00  0.00    -0.310 C  
HETATM    6  S   UNL     1     -11.338  15.174  70.715  1.00  0.00    -0.293 S  
HETATM    7  O   UNL     1     -12.165  16.270  71.566  1.00  0.00    -0.391 OA 
HETATM    8  O   UNL     1     -11.883  13.893  71.101  1.00  0.00    -0.225 OA 
HETATM    9  O   UNL     1      -9.933  15.489  70.824  1.00  0.00     0.250 OA 
ENDBRANCH   2   5
TORSDOF 1
ENDMDL
MODEL      172
REMARK 921   NORMALIZED FREE ENERGY PREDICTED BY IDOCK:   -1.53 KCAL/MOL
REMARK 922        TOTAL FREE ENERGY PREDICTED BY IDOCK:   -1.85 KCAL/MOL
REMARK 923 INTER-LIGAND FREE ENERGY PREDICTED BY IDOCK:   -1.61 KCAL/MOL
REMARK 924 INTRA-LIGAND FREE ENERGY PREDICTED BY IDOCK:   -0.24 KCAL/MOL
REMARK 927      BINDING AFFINITY PREDICTED BY RF-SCORE:    0.00 PKD
ROOT
HETATM    1  N   UNL     1      -8.587   6.455  64.480  1.00  0.00    -0.344 NA 
HETATM    2  C   UNL     1      -8.739   5.558  65.627  1.00  0.00    -0.153 C  
HETATM    3  H1  UNL     1      -8.659   5.938  63.603  1.00  0.00     0.000 HD 
HETATM    4  H2  UNL     1      -7.721   6.989  64.531  1.00  0.00     0.000 HD 
ENDROOT
BRANCH   2   5
HETATM    5  C   UNL     1      -8.631   6.327  66.933  1.00  0.00    -0.113 C  
HETATM    6  S   UNL     1     -10.031   7.419  67.114  1.00  0.00    -0.239 S  
HETATM    7  O   UNL     1      -9.621   8.067  68.536  1.00  0.00    -0.151 OA 
HETATM    8  O   UNL     1      -9.941   8.498  66.158  1.00  0.00    -0.239 OA 
HETATM    9  O   UNL     1     -11.235   6.644  67.306  1.00  0.00    -0.366 OA 
ENDBRANCH   2   5
TORSDOF 1
ENDMDL
MODEL      173
REMARK 921   NORMALIZED FREE ENERGY PREDICTED BY IDOCK:   -1.50 KCAL/MOL
REMARK 922        TOTAL FREE ENERGY PREDICTED BY IDOCK:   -1.82 KCAL/MOL
REMARK 923 INTER-LIGAND FREE ENERGY PREDICTED BY IDOCK:   -1.58 KCAL/MOL
REMARK 924 INTRA-LIGAND FREE ENERGY PREDICTED BY IDOCK:   -0.24 KCAL/MOL
REMARK 927      BINDING AFFINITY PREDICTED BY RF-SCORE:    0.00 PKD
ROOT
HETATM    1  N   UNL     1      -7.344   6.371  72.000  1.00  0.00    -0.091 NA 
HETATM    2  C   UNL     1      -8.342   6.358  70.929  1.00  0.00    -0.126 C  
HETATM    3  H1  UNL     1      -6.415   6.165  71.632  1.00  0.00     0.000 HD 
HETATM    4  H2  UNL     1      -7.596   5.739  72.759  1.00  0.00     0.000 HD 
ENDROOT
BRANCH   2   5
HETATM    5  C   UNL     1      -9.726   6.664  71.477  1.00  0.00    -0.164 C  
HETATM    6  S   UNL     1      -9.761   8.315  72.155  1.00  0.00    -0.304 S  
HETATM    7  O   UNL     1     -11.303   8.320  72.641  1.00  0.00    -0.390 OA 
HETATM    8  O   UNL     1      -8.975   8.367  73.366  1.00  0.00    -0.229 OA 
HETATM    9  O   UNL     1      -9.624   9.283  71.093  1.00  0.00    -0.273 OA 
ENDBRANCH   2   5
TORSDOF 1
ENDMDL
MODEL      174
REMARK 921   NORMALIZED FREE ENERGY PREDICTED BY IDOCK:   -1.50 KCAL/MOL
REMARK 922        TOTAL FREE ENERGY PREDICTED BY IDOCK:   -1.82 KCAL/MOL
REMARK 923 INTER-LIGAND FREE ENERGY PREDICTED BY IDOCK:   -1.42 KCAL/MOL
REMARK 924 INTRA-LIGAND FREE ENERGY PREDICTED BY IDOCK:   -0.39 KCAL/MOL
REMARK 927      BINDING AFFINITY PREDICTED BY RF-SCORE:    0.00 PKD
ROOT
HETATM    1  N   UNL     1     -10.900   8.423  71.165  1.00  0.00    -0.229 NA 
HETATM    2  C   UNL     1     -10.843   7.555  69.987  1.00  0.00    -0.249 C  
HETATM    3  H1  UNL     1     -11.419   7.975  71.920  1.00  0.00     0.000 HD 
HETATM    4  H2  UNL     1     -11.282   9.340  70.939  1.00  0.00     0.000 HD 
ENDROOT
BRANCH   2   5
HETATM    5  C   UNL     1     -10.071   8.222  68.861  1.00  0.00    -0.199 C  
HETATM    6  S   UNL     1      -9.435   9.797  69.408  1.00  0.00    -0.214 S  
HETATM    7  O   UNL     1      -8.707  10.230  68.032  1.00  0.00    -0.121 OA 
HETATM    8  O   UNL     1     -10.521  10.733  69.582  1.00  0.00    -0.219 OA 
HETATM    9  O   UNL     1      -8.414   9.591  70.409  1.00  0.00    -0.191 OA 
ENDBRANCH   2   5
TORSDOF 1
ENDMDL
MODEL      175
REMARK 921   NORMALIZED FREE ENERGY PREDICTED BY IDOCK:   -1.48 KCAL/MOL
REMARK 922        TOTAL FREE ENERGY PREDICTED BY IDOCK:   -1.79 KCAL/MOL
REMARK 923 INTER-LIGAND FREE ENERGY PREDICTED BY IDOCK:   -1.77 KCAL/MOL
REMARK 924 INTRA-LIGAND FREE ENERGY PREDICTED BY IDOCK:   -0.02 KCAL/MOL
REMARK 927      BINDING AFFINITY PREDICTED BY RF-SCORE:    0.00 PKD
ROOT
HETATM    1  N   UNL     1     -10.074  12.766  64.382  1.00  0.00    -0.570 NA 
HETATM    2  C   UNL     1     -10.668  11.650  65.120  1.00  0.00    -0.296 C  
HETATM    3  H1  UNL     1     -10.576  12.931  63.509  1.00  0.00     0.000 HD 
HETATM    4  H2  UNL     1      -9.078  12.625  64.222  1.00  0.00     0.000 HD 
ENDROOT
BRANCH   2   5
HETATM    5  C   UNL     1      -9.921  11.403  66.420  1.00  0.00    -0.214 C  
HETATM    6  S   UNL     1      -9.443   9.687  66.532  1.00  0.00    -0.195 S  
HETATM    7  O   UNL     1      -8.712   9.756  67.971  1.00  0.00    -0.119 OA 
HETATM    8  O   UNL     1     -10.613   8.863  66.733  1.00  0.00    -0.243 OA 
HETATM    9  O   UNL     1      -8.442   9.391  65.534  1.00  0.00    -0.130 OA 
ENDBRANCH   2   5
TORSDOF 1
ENDMDL
MODEL      176
REMARK 921   NORMALIZED FREE ENERGY PREDICTED BY IDOCK:   -1.46 KCAL/MOL
REMARK 922        TOTAL FREE ENERGY PREDICTED BY IDOCK:   -1.77 KCAL/MOL
REMARK 923 INTER-LIGAND FREE ENERGY PREDICTED BY IDOCK:   -1.60 KCAL/MOL
REMARK 924 INTRA-LIGAND FREE ENERGY PREDICTED BY IDOCK:   -0.17 KCAL/MOL
REMARK 927      BINDING AFFINITY PREDICTED BY RF-SCORE:    0.00 PKD
ROOT
HETATM    1  N   UNL     1      -6.242  13.992  71.433  1.00  0.00    -0.483 NA 
HETATM    2  C   UNL     1      -5.439  14.636  70.392  1.00  0.00    -0.126 C  
HETATM    3  H1  UNL     1      -6.424  14.638  72.201  1.00  0.00     0.000 HD 
HETATM    4  H2  UNL     1      -5.812  13.128  71.760  1.00  0.00     0.000 HD 
ENDROOT
BRANCH   2   5
HETATM    5  C   UNL     1      -5.167  13.674  69.246  1.00  0.00    -0.077 C  
HETATM    6  S   UNL     1      -6.462  13.801  68.025  1.00  0.00    -0.155 S  
HETATM    7  O   UNL     1      -5.900  12.691  66.994  1.00  0.00    -0.319 OA 
HETATM    8  O   UNL     1      -7.690  13.252  68.551  1.00  0.00    -0.131 OA 
HETATM    9  O   UNL     1      -6.398  15.089  67.375  1.00  0.00    -0.308 OA 
ENDBRANCH   2   5
TORSDOF 1
ENDMDL
MODEL      177
REMARK 921   NORMALIZED FREE ENERGY PREDICTED BY IDOCK:   -1.44 KCAL/MOL
REMARK 922        TOTAL FREE ENERGY PREDICTED BY IDOCK:   -1.75 KCAL/MOL
REMARK 923 INTER-LIGAND FREE ENERGY PREDICTED BY IDOCK:   -1.71 KCAL/MOL
REMARK 924 INTRA-LIGAND FREE ENERGY PREDICTED BY IDOCK:   -0.04 KCAL/MOL
REMARK 927      BINDING AFFINITY PREDICTED BY RF-SCORE:    0.00 PKD
ROOT
HETATM    1  N   UNL     1     -11.071  10.992  70.156  1.00  0.00    -0.473 NA 
HETATM    2  C   UNL     1     -10.055   9.939  70.133  1.00  0.00    -0.255 C  
HETATM    3  H1  UNL     1     -10.687  11.859  70.532  1.00  0.00     0.000 HD 
HETATM    4  H2  UNL     1     -11.906  10.700  70.663  1.00  0.00     0.000 HD 
ENDROOT
BRANCH   2   5
HETATM    5  C   UNL     1     -10.627   8.647  69.574  1.00  0.00    -0.213 C  
HETATM    6  S   UNL     1      -9.878   8.281  67.995  1.00  0.00    -0.176 S  
HETATM    7  O   UNL     1     -10.679   6.913  67.684  1.00  0.00    -0.230 OA 
HETATM    8  O   UNL     1     -10.332   9.229  67.004  1.00  0.00    -0.243 OA 
HETATM    9  O   UNL     1      -8.484   7.953  68.180  1.00  0.00    -0.123 OA 
ENDBRANCH   2   5
TORSDOF 1
ENDMDL
MODEL      178
REMARK 921   NORMALIZED FREE ENERGY PREDICTED BY IDOCK:   -1.44 KCAL/MOL
REMARK 922        TOTAL FREE ENERGY PREDICTED BY IDOCK:   -1.75 KCAL/MOL
REMARK 923 INTER-LIGAND FREE ENERGY PREDICTED BY IDOCK:   -1.36 KCAL/MOL
REMARK 924 INTRA-LIGAND FREE ENERGY PREDICTED BY IDOCK:   -0.39 KCAL/MOL
REMARK 927      BINDING AFFINITY PREDICTED BY RF-SCORE:    0.00 PKD
ROOT
HETATM    1  N   UNL     1      -9.227   7.359  67.876  1.00  0.00    -0.132 NA 
HETATM    2  C   UNL     1      -8.388   6.717  68.891  1.00  0.00    -0.121 C  
HETATM    3  H1  UNL     1      -8.771   7.340  66.964  1.00  0.00     0.000 HD 
HETATM    4  H2  UNL     1      -9.488   8.306  68.147  1.00  0.00     0.000 HD 
ENDROOT
BRANCH   2   5
HETATM    5  C   UNL     1      -9.067   6.746  70.250  1.00  0.00    -0.153 C  
HETATM    6  S   UNL     1     -10.671   7.518  70.114  1.00  0.00    -0.240 S  
HETATM    7  O   UNL     1     -11.102   7.403  71.667  1.00  0.00    -0.233 OA 
HETATM    8  O   UNL     1     -10.516   8.932  69.860  1.00  0.00    -0.203 OA 
HETATM    9  O   UNL     1     -11.554   6.678  69.341  1.00  0.00    -0.274 OA 
ENDBRANCH   2   5
TORSDOF 1
ENDMDL
MODEL      179
REMARK 921   NORMALIZED FREE ENERGY PREDICTED BY IDOCK:   -1.42 KCAL/MOL
REMARK 922        TOTAL FREE ENERGY PREDICTED BY IDOCK:   -1.73 KCAL/MOL
REMARK 923 INTER-LIGAND FREE ENERGY PREDICTED BY IDOCK:   -1.56 KCAL/MOL
REMARK 924 INTRA-LIGAND FREE ENERGY PREDICTED BY IDOCK:   -0.17 KCAL/MOL
REMARK 927      BINDING AFFINITY PREDICTED BY RF-SCORE:    0.00 PKD
ROOT
HETATM    1  N   UNL     1     -11.880  12.166  67.482  1.00  0.00    -0.553 NA 
HETATM    2  C   UNL     1     -10.829  11.377  66.837  1.00  0.00    -0.285 C  
HETATM    3  H1  UNL     1     -12.585  12.455  66.803  1.00  0.00     0.000 HD 
HETATM    4  H2  UNL     1     -11.497  12.962  67.989  1.00  0.00     0.000 HD 
ENDROOT
BRANCH   2   5
HETATM    5  C   UNL     1      -9.779  10.947  67.848  1.00  0.00    -0.165 C  
HETATM    6  S   UNL     1      -8.478  12.166  67.932  1.00  0.00    -0.172 S  
HETATM    7  O   UNL     1      -7.560  11.432  69.040  1.00  0.00    -0.126 OA 
HETATM    8  O   UNL     1      -7.704  12.145  66.713  1.00  0.00    -0.093 OA 
HETATM    9  O   UNL     1      -8.989  13.387  68.511  1.00  0.00    -0.161 OA 
ENDBRANCH   2   5
TORSDOF 1
ENDMDL
MODEL      180
REMARK 921   NORMALIZED FREE ENERGY PREDICTED BY IDOCK:   -1.41 KCAL/MOL
REMARK 922        TOTAL FREE ENERGY PREDICTED BY IDOCK:   -1.72 KCAL/MOL
REMARK 923 INTER-LIGAND FREE ENERGY PREDICTED BY IDOCK:   -1.48 KCAL/MOL
REMARK 924 INTRA-LIGAND FREE ENERGY PREDICTED BY IDOCK:   -0.24 KCAL/MOL
REMARK 927      BINDING AFFINITY PREDICTED BY RF-SCORE:    0.00 PKD
ROOT
HETATM    1  N   UNL     1      -8.802   4.774  74.037  1.00  0.00    -0.110 NA 
HETATM    2  C   UNL     1      -9.722   5.833  74.457  1.00  0.00    -0.221 C  
HETATM    3  H1  UNL     1      -8.714   4.062  74.761  1.00  0.00     0.000 HD 
HETATM    4  H2  UNL     1      -7.894   5.150  73.766  1.00  0.00     0.000 HD 
ENDROOT
BRANCH   2   5
HETATM    5  C   UNL     1      -9.853   6.896  73.379  1.00  0.00    -0.218 C  
HETATM    6  S   UNL     1     -10.808   6.260  72.011  1.00  0.00    -0.257 S  
HETATM    7  O   UNL     1     -10.753   7.576  71.075  1.00  0.00    -0.227 OA 
HETATM    8  O   UNL     1     -10.048   5.253  71.307  1.00  0.00    -0.195 OA 
HETATM    9  O   UNL     1     -12.178   6.059  72.421  1.00  0.00    -0.251 OA 
ENDBRANCH   2   5
TORSDOF 1
ENDMDL
MODEL      181
REMARK 921   NORMALIZED FREE ENERGY PREDICTED BY IDOCK:   -1.41 KCAL/MOL
REMARK 922        TOTAL FREE ENERGY PREDICTED BY IDOCK:   -1.72 KCAL/MOL
REMARK 923 INTER-LIGAND FREE ENERGY PREDICTED BY IDOCK:   -1.50 KCAL/MOL
REMARK 924 INTRA-LIGAND FREE ENERGY PREDICTED BY IDOCK:   -0.22 KCAL/MOL
REMARK 927      BINDING AFFINITY PREDICTED BY RF-SCORE:    0.00 PKD
ROOT
HETATM    1  N   UNL     1      -6.216  13.798  71.584  1.00  0.00    -0.489 NA 
HETATM    2  C   UNL     1      -5.376  14.713  70.808  1.00  0.00    -0.136 C  
HETATM    3  H1  UNL     1      -5.914  13.766  72.558  1.00  0.00     0.000 HD 
HETATM    4  H2  UNL     1      -6.244  12.868  71.168  1.00  0.00     0.000 HD 
ENDROOT
BRANCH   2   5
HETATM    5  C   UNL     1      -5.825  14.761  69.357  1.00  0.00    -0.097 C  
HETATM    6  S   UNL     1      -7.206  15.878  69.184  1.00  0.00    -0.207 S  
HETATM    7  O   UNL     1      -7.436  15.698  67.595  1.00  0.00    -0.135 OA 
HETATM    8  O   UNL     1      -8.379  15.313  69.810  1.00  0.00    -0.194 OA 
HETATM    9  O   UNL     1      -6.771  17.235  69.422  1.00  0.00    -0.244 OA 
ENDBRANCH   2   5
TORSDOF 1
ENDMDL
MODEL      182
REMARK 921   NORMALIZED FREE ENERGY PREDICTED BY IDOCK:   -1.41 KCAL/MOL
REMARK 922        TOTAL FREE ENERGY PREDICTED BY IDOCK:   -1.72 KCAL/MOL
REMARK 923 INTER-LIGAND FREE ENERGY PREDICTED BY IDOCK:   -1.71 KCAL/MOL
REMARK 924 INTRA-LIGAND FREE ENERGY PREDICTED BY IDOCK:   -0.01 KCAL/MOL
REMARK 927      BINDING AFFINITY PREDICTED BY RF-SCORE:    0.00 PKD
ROOT
HETATM    1  N   UNL     1     -12.354  14.203  68.267  1.00  0.00    -0.556 NA 
HETATM    2  C   UNL     1     -11.218  13.284  68.365  1.00  0.00    -0.280 C  
HETATM    3  H1  UNL     1     -13.218  13.744  68.559  1.00  0.00     0.000 HD 
HETATM    4  H2  UNL     1     -12.437  14.602  67.333  1.00  0.00     0.000 HD 
ENDROOT
BRANCH   2   5
HETATM    5  C   UNL     1      -9.932  13.967  67.929  1.00  0.00    -0.242 C  
HETATM    6  S   UNL     1      -8.720  12.742  67.465  1.00  0.00    -0.197 S  
HETATM    7  O   UNL     1      -7.521  13.754  67.080  1.00  0.00    -0.092 OA 
HETATM    8  O   UNL     1      -8.265  12.031  68.637  1.00  0.00    -0.132 OA 
HETATM    9  O   UNL     1      -9.142  12.069  66.258  1.00  0.00    -0.211 OA 
ENDBRANCH   2   5
TORSDOF 1
ENDMDL
MODEL      183
REMARK 921   NORMALIZED FREE ENERGY PREDICTED BY IDOCK:   -1.39 KCAL/MOL
REMARK 922        TOTAL FREE ENERGY PREDICTED BY IDOCK:   -1.70 KCAL/MOL
REMARK 923 INTER-LIGAND FREE ENERGY PREDICTED BY IDOCK:   -1.36 KCAL/MOL
REMARK 924 INTRA-LIGAND FREE ENERGY PREDICTED BY IDOCK:   -0.34 KCAL/MOL
REMARK 927      BINDING AFFINITY PREDICTED BY RF-SCORE:    0.00 PKD
ROOT
HETATM    1  N   UNL     1      -8.706   5.907  70.133  1.00  0.00    -0.139 NA 
HETATM    2  C   UNL     1      -8.738   7.369  70.061  1.00  0.00    -0.140 C  
HETATM    3  H1  UNL     1      -8.145   5.518  69.375  1.00  0.00     0.000 HD 
HETATM    4  H2  UNL     1      -9.645   5.510  70.149  1.00  0.00     0.000 HD 
ENDROOT
BRANCH   2   5
HETATM    5  C   UNL     1      -9.574   7.948  71.190  1.00  0.00    -0.158 C  
HETATM    6  S   UNL     1      -9.911   6.687  72.407  1.00  0.00    -0.166 S  
HETATM    7  O   UNL     1     -10.788   7.590  73.421  1.00  0.00    -0.394 OA 
HETATM    8  O   UNL     1     -10.829   5.713  71.865  1.00  0.00    -0.238 OA 
HETATM    9  O   UNL     1      -8.689   6.317  73.081  1.00  0.00    -0.124 OA 
ENDBRANCH   2   5
TORSDOF 1
ENDMDL
MODEL      184
REMARK 921   NORMALIZED FREE ENERGY PREDICTED BY IDOCK:   -1.39 KCAL/MOL
REMARK 922        TOTAL FREE ENERGY PREDICTED BY IDOCK:   -1.70 KCAL/MOL
REMARK 923 INTER-LIGAND FREE ENERGY PREDICTED BY IDOCK:   -1.65 KCAL/MOL
REMARK 924 INTRA-LIGAND FREE ENERGY PREDICTED BY IDOCK:   -0.04 KCAL/MOL
REMARK 927      BINDING AFFINITY PREDICTED BY RF-SCORE:    0.00 PKD
ROOT
HETATM    1  N   UNL     1     -10.465   8.842  71.985  1.00  0.00    -0.340 NA 
HETATM    2  C   UNL     1     -11.109   7.853  72.851  1.00  0.00    -0.379 C  
HETATM    3  H1  UNL     1     -10.570   9.782  72.367  1.00  0.00     0.000 HD 
HETATM    4  H2  UNL     1     -10.808   8.784  71.027  1.00  0.00     0.000 HD 
ENDROOT
BRANCH   2   5
HETATM    5  C   UNL     1     -10.954   6.453  72.282  1.00  0.00    -0.254 C  
HETATM    6  S   UNL     1      -9.762   5.534  73.243  1.00  0.00    -0.153 S  
HETATM    7  O   UNL     1      -9.822   4.154  72.405  1.00  0.00    -0.146 OA 
HETATM    8  O   UNL     1      -8.437   6.064  73.020  1.00  0.00    -0.120 OA 
HETATM    9  O   UNL     1     -10.289   5.280  74.563  1.00  0.00    -0.264 OA 
ENDBRANCH   2   5
TORSDOF 1
ENDMDL
MODEL      185
REMARK 921   NORMALIZED FREE ENERGY PREDICTED BY IDOCK:   -1.38 KCAL/MOL
REMARK 922        TOTAL FREE ENERGY PREDICTED BY IDOCK:   -1.69 KCAL/MOL
REMARK 923 INTER-LIGAND FREE ENERGY PREDICTED BY IDOCK:   -1.68 KCAL/MOL
REMARK 924 INTRA-LIGAND FREE ENERGY PREDICTED BY IDOCK:   -0.01 KCAL/MOL
REMARK 927      BINDING AFFINITY PREDICTED BY RF-SCORE:    0.00 PKD
ROOT
HETATM    1  N   UNL     1      -7.104  10.390  70.662  1.00  0.00    -0.442 NA 
HETATM    2  C   UNL     1      -8.263  10.156  69.799  1.00  0.00    -0.145 C  
HETATM    3  H1  UNL     1      -6.654  11.277  70.433  1.00  0.00     0.000 HD 
HETATM    4  H2  UNL     1      -6.445   9.613  70.626  1.00  0.00     0.000 HD 
ENDROOT
BRANCH   2   5
HETATM    5  C   UNL     1      -8.933   8.835  70.140  1.00  0.00    -0.166 C  
HETATM    6  S   UNL     1     -10.649   8.878  69.649  1.00  0.00    -0.213 S  
HETATM    7  O   UNL     1     -11.055   7.393  70.139  1.00  0.00    -0.263 OA 
HETATM    8  O   UNL     1     -11.383   9.781  70.505  1.00  0.00    -0.269 OA 
HETATM    9  O   UNL     1     -10.745   8.917  68.209  1.00  0.00    -0.180 OA 
ENDBRANCH   2   5
TORSDOF 1
ENDMDL
MODEL      186
REMARK 921   NORMALIZED FREE ENERGY PREDICTED BY IDOCK:   -1.37 KCAL/MOL
REMARK 922        TOTAL FREE ENERGY PREDICTED BY IDOCK:   -1.68 KCAL/MOL
REMARK 923 INTER-LIGAND FREE ENERGY PREDICTED BY IDOCK:   -1.29 KCAL/MOL
REMARK 924 INTRA-LIGAND FREE ENERGY PREDICTED BY IDOCK:   -0.39 KCAL/MOL
REMARK 927      BINDING AFFINITY PREDICTED BY RF-SCORE:    0.00 PKD
ROOT
HETATM    1  N   UNL     1      -8.551   5.674  67.344  1.00  0.00    -0.110 NA 
HETATM    2  C   UNL     1     -10.008   5.539  67.393  1.00  0.00    -0.162 C  
HETATM    3  H1  UNL     1      -8.096   4.803  67.616  1.00  0.00     0.000 HD 
HETATM    4  H2  UNL     1      -8.226   6.460  67.906  1.00  0.00     0.000 HD 
ENDROOT
BRANCH   2   5
HETATM    5  C   UNL     1     -10.686   6.837  66.988  1.00  0.00    -0.365 C  
HETATM    6  S   UNL     1      -9.456   8.074  66.609  1.00  0.00    -0.225 S  
HETATM    7  O   UNL     1     -10.465   9.281  66.242  1.00  0.00    -0.188 OA 
HETATM    8  O   UNL     1      -8.784   8.487  67.820  1.00  0.00    -0.135 OA 
HETATM    9  O   UNL     1      -8.743   7.705  65.409  1.00  0.00    -0.108 OA 
ENDBRANCH   2   5
TORSDOF 1
ENDMDL
MODEL      187
REMARK 921   NORMALIZED FREE ENERGY PREDICTED BY IDOCK:   -1.37 KCAL/MOL
REMARK 922        TOTAL FREE ENERGY PREDICTED BY IDOCK:   -1.68 KCAL/MOL
REMARK 923 INTER-LIGAND FREE ENERGY PREDICTED BY IDOCK:   -1.65 KCAL/MOL
REMARK 924 INTRA-LIGAND FREE ENERGY PREDICTED BY IDOCK:   -0.03 KCAL/MOL
REMARK 927      BINDING AFFINITY PREDICTED BY RF-SCORE:    0.00 PKD
ROOT
HETATM    1  N   UNL     1     -10.895   9.395  71.614  1.00  0.00    -0.351 NA 
HETATM    2  C   UNL     1     -11.388   8.720  70.412  1.00  0.00    -0.192 C  
HETATM    3  H1  UNL     1     -10.898  10.407  71.489  1.00  0.00     0.000 HD 
HETATM    4  H2  UNL     1      -9.975   9.052  71.889  1.00  0.00     0.000 HD 
ENDROOT
BRANCH   2   5
HETATM    5  C   UNL     1     -11.384   7.212  70.598  1.00  0.00    -0.292 C  
HETATM    6  S   UNL     1     -10.251   6.459  69.442  1.00  0.00    -0.208 S  
HETATM    7  O   UNL     1     -10.483   4.921  69.877  1.00  0.00    -0.238 OA 
HETATM    8  O   UNL     1     -10.776   6.564  68.100  1.00  0.00    -0.225 OA 
HETATM    9  O   UNL     1      -8.894   6.821  69.779  1.00  0.00    -0.140 OA 
ENDBRANCH   2   5
TORSDOF 1
ENDMDL
MODEL      188
REMARK 921   NORMALIZED FREE ENERGY PREDICTED BY IDOCK:   -1.35 KCAL/MOL
REMARK 922        TOTAL FREE ENERGY PREDICTED BY IDOCK:   -1.66 KCAL/MOL
REMARK 923 INTER-LIGAND FREE ENERGY PREDICTED BY IDOCK:   -1.42 KCAL/MOL
REMARK 924 INTRA-LIGAND FREE ENERGY PREDICTED BY IDOCK:   -0.24 KCAL/MOL
REMARK 927      BINDING AFFINITY PREDICTED BY RF-SCORE:    0.00 PKD
ROOT
HETATM    1  N   UNL     1      -7.668   8.022  69.510  1.00  0.00    -0.101 NA 
HETATM    2  C   UNL     1      -9.025   7.477  69.584  1.00  0.00    -0.141 C  
HETATM    3  H1  UNL     1      -6.975   7.296  69.689  1.00  0.00     0.000 HD 
HETATM    4  H2  UNL     1      -7.548   8.820  70.132  1.00  0.00     0.000 HD 
ENDROOT
BRANCH   2   5
HETATM    5  C   UNL     1     -10.059   8.558  69.318  1.00  0.00    -0.202 C  
HETATM    6  S   UNL     1     -10.046   8.999  67.588  1.00  0.00    -0.232 S  
HETATM    7  O   UNL     1     -11.200  10.129  67.642  1.00  0.00    -0.284 OA 
HETATM    8  O   UNL     1      -8.827   9.707  67.270  1.00  0.00    -0.131 OA 
HETATM    9  O   UNL     1     -10.536   7.895  66.797  1.00  0.00    -0.326 OA 
ENDBRANCH   2   5
TORSDOF 1
ENDMDL
MODEL      189
REMARK 921   NORMALIZED FREE ENERGY PREDICTED BY IDOCK:   -1.35 KCAL/MOL
REMARK 922        TOTAL FREE ENERGY PREDICTED BY IDOCK:   -1.65 KCAL/MOL
REMARK 923 INTER-LIGAND FREE ENERGY PREDICTED BY IDOCK:   -1.41 KCAL/MOL
REMARK 924 INTRA-LIGAND FREE ENERGY PREDICTED BY IDOCK:   -0.24 KCAL/MOL
REMARK 927      BINDING AFFINITY PREDICTED BY RF-SCORE:    0.00 PKD
ROOT
HETATM    1  N   UNL     1      -9.173   8.742  68.815  1.00  0.00    -0.141 NA 
HETATM    2  C   UNL     1     -10.423   8.088  68.424  1.00  0.00    -0.163 C  
HETATM    3  H1  UNL     1      -9.263   9.757  68.765  1.00  0.00     0.000 HD 
HETATM    4  H2  UNL     1      -8.384   8.406  68.264  1.00  0.00     0.000 HD 
ENDROOT
BRANCH   2   5
HETATM    5  C   UNL     1     -10.290   6.576  68.498  1.00  0.00    -0.192 C  
HETATM    6  S   UNL     1     -10.162   6.059  70.201  1.00  0.00    -0.226 S  
HETATM    7  O   UNL     1     -10.028   4.470  69.938  1.00  0.00    -0.219 OA 
HETATM    8  O   UNL     1      -8.889   6.469  70.746  1.00  0.00    -0.142 OA 
HETATM    9  O   UNL     1     -11.415   6.296  70.880  1.00  0.00    -0.327 OA 
ENDBRANCH   2   5
TORSDOF 1
ENDMDL
MODEL      190
REMARK 921   NORMALIZED FREE ENERGY PREDICTED BY IDOCK:   -1.34 KCAL/MOL
REMARK 922        TOTAL FREE ENERGY PREDICTED BY IDOCK:   -1.65 KCAL/MOL
REMARK 923 INTER-LIGAND FREE ENERGY PREDICTED BY IDOCK:   -1.64 KCAL/MOL
REMARK 924 INTRA-LIGAND FREE ENERGY PREDICTED BY IDOCK:   -0.01 KCAL/MOL
REMARK 927      BINDING AFFINITY PREDICTED BY RF-SCORE:    0.00 PKD
ROOT
HETATM    1  N   UNL     1     -11.732   6.587  69.420  1.00  0.00    -0.632 NA 
HETATM    2  C   UNL     1     -10.812   5.899  70.328  1.00  0.00    -0.320 C  
HETATM    3  H1  UNL     1     -12.444   5.945  69.070  1.00  0.00     0.000 HD 
HETATM    4  H2  UNL     1     -11.236   7.050  68.660  1.00  0.00     0.000 HD 
ENDROOT
BRANCH   2   5
HETATM    5  C   UNL     1      -9.752   6.855  70.850  1.00  0.00    -0.178 C  
HETATM    6  S   UNL     1      -9.011   6.192  72.332  1.00  0.00    -0.135 S  
HETATM    7  O   UNL     1      -7.980   7.402  72.622  1.00  0.00    -0.095 OA 
HETATM    8  O   UNL     1      -9.963   6.228  73.417  1.00  0.00    -0.165 OA 
HETATM    9  O   UNL     1      -8.239   5.014  72.009  1.00  0.00    -0.112 OA 
ENDBRANCH   2   5
TORSDOF 1
ENDMDL
MODEL      191
REMARK 921   NORMALIZED FREE ENERGY PREDICTED BY IDOCK:   -1.34 KCAL/MOL
REMARK 922        TOTAL FREE ENERGY PREDICTED BY IDOCK:   -1.64 KCAL/MOL
REMARK 923 INTER-LIGAND FREE ENERGY PREDICTED BY IDOCK:   -1.27 KCAL/MOL
REMARK 924 INTRA-LIGAND FREE ENERGY PREDICTED BY IDOCK:   -0.37 KCAL/MOL
REMARK 927      BINDING AFFINITY PREDICTED BY RF-SCORE:    0.00 PKD
ROOT
HETATM    1  N   UNL     1      -9.087   4.430  73.128  1.00  0.00    -0.118 NA 
HETATM    2  C   UNL     1      -8.552   4.837  71.828  1.00  0.00    -0.122 C  
HETATM    3  H1  UNL     1      -9.058   3.416  73.231  1.00  0.00     0.000 HD 
HETATM    4  H2  UNL     1     -10.025   4.798  73.282  1.00  0.00     0.000 HD 
ENDROOT
BRANCH   2   5
HETATM    5  C   UNL     1      -8.595   6.348  71.674  1.00  0.00    -0.129 C  
HETATM    6  S   UNL     1      -9.063   7.105  73.221  1.00  0.00    -0.162 S  
HETATM    7  O   UNL     1      -9.026   8.645  72.732  1.00  0.00    -0.356 OA 
HETATM    8  O   UNL     1     -10.450   6.823  73.507  1.00  0.00    -0.272 OA 
HETATM    9  O   UNL     1      -8.012   6.919  74.194  1.00  0.00    -0.109 OA 
ENDBRANCH   2   5
TORSDOF 1
ENDMDL
MODEL      192
REMARK 921   NORMALIZED FREE ENERGY PREDICTED BY IDOCK:   -1.33 KCAL/MOL
REMARK 922        TOTAL FREE ENERGY PREDICTED BY IDOCK:   -1.63 KCAL/MOL
REMARK 923 INTER-LIGAND FREE ENERGY PREDICTED BY IDOCK:   -1.39 KCAL/MOL
REMARK 924 INTRA-LIGAND FREE ENERGY PREDICTED BY IDOCK:   -0.24 KCAL/MOL
REMARK 927      BINDING AFFINITY PREDICTED BY RF-SCORE:    0.00 PKD
ROOT
HETATM    1  N   UNL     1      -8.759   5.416  70.661  1.00  0.00    -0.126 NA 
HETATM    2  C   UNL     1      -7.502   6.156  70.790  1.00  0.00    -0.091 C  
HETATM    3  H1  UNL     1      -8.836   4.989  69.738  1.00  0.00     0.000 HD 
HETATM    4  H2  UNL     1      -9.565   6.003  70.873  1.00  0.00     0.000 HD 
ENDROOT
BRANCH   2   5
HETATM    5  C   UNL     1      -7.387   6.792  72.165  1.00  0.00    -0.088 C  
HETATM    6  S   UNL     1      -8.486   8.194  72.281  1.00  0.00    -0.186 S  
HETATM    7  O   UNL     1      -8.127   8.630  73.794  1.00  0.00    -0.400 OA 
HETATM    8  O   UNL     1      -8.003   9.269  71.445  1.00  0.00    -0.335 OA 
HETATM    9  O   UNL     1      -9.858   7.744  72.258  1.00  0.00    -0.169 OA 
ENDBRANCH   2   5
TORSDOF 1
ENDMDL
MODEL      193
REMARK 921   NORMALIZED FREE ENERGY PREDICTED BY IDOCK:   -1.31 KCAL/MOL
REMARK 922        TOTAL FREE ENERGY PREDICTED BY IDOCK:   -1.62 KCAL/MOL
REMARK 923 INTER-LIGAND FREE ENERGY PREDICTED BY IDOCK:   -1.24 KCAL/MOL
REMARK 924 INTRA-LIGAND FREE ENERGY PREDICTED BY IDOCK:   -0.38 KCAL/MOL
REMARK 927      BINDING AFFINITY PREDICTED BY RF-SCORE:    0.00 PKD
ROOT
HETATM    1  N   UNL     1     -10.445   4.291  72.599  1.00  0.00    -0.184 NA 
HETATM    2  C   UNL     1     -10.891   5.686  72.574  1.00  0.00    -0.251 C  
HETATM    3  H1  UNL     1     -10.933   3.768  73.326  1.00  0.00     0.000 HD 
HETATM    4  H2  UNL     1      -9.434   4.220  72.698  1.00  0.00     0.000 HD 
ENDROOT
BRANCH   2   5
HETATM    5  C   UNL     1     -10.164   6.466  71.491  1.00  0.00    -0.194 C  
HETATM    6  S   UNL     1      -9.185   5.356  70.493  1.00  0.00    -0.151 S  
HETATM    7  O   UNL     1      -8.561   6.457  69.488  1.00  0.00    -0.131 OA 
HETATM    8  O   UNL     1      -8.069   4.858  71.262  1.00  0.00    -0.100 OA 
HETATM    9  O   UNL     1     -10.053   4.492  69.727  1.00  0.00    -0.229 OA 
ENDBRANCH   2   5
TORSDOF 1
ENDMDL
MODEL      194
REMARK 921   NORMALIZED FREE ENERGY PREDICTED BY IDOCK:   -1.31 KCAL/MOL
REMARK 922        TOTAL FREE ENERGY PREDICTED BY IDOCK:   -1.61 KCAL/MOL
REMARK 923 INTER-LIGAND FREE ENERGY PREDICTED BY IDOCK:   -1.38 KCAL/MOL
REMARK 924 INTRA-LIGAND FREE ENERGY PREDICTED BY IDOCK:   -0.24 KCAL/MOL
REMARK 927      BINDING AFFINITY PREDICTED BY RF-SCORE:    0.00 PKD
ROOT
HETATM    1  N   UNL     1      -5.518   7.902  73.444  1.00  0.00    -0.044 NA 
HETATM    2  C   UNL     1      -6.253   7.170  72.411  1.00  0.00    -0.044 C  
HETATM    3  H1  UNL     1      -4.608   8.205  73.095  1.00  0.00     0.000 HD 
HETATM    4  H2  UNL     1      -5.430   7.358  74.301  1.00  0.00     0.000 HD 
ENDROOT
BRANCH   2   5
HETATM    5  C   UNL     1      -7.608   6.717  72.930  1.00  0.00    -0.094 C  
HETATM    6  S   UNL     1      -8.599   8.137  73.366  1.00  0.00    -0.219 S  
HETATM    7  O   UNL     1      -9.912   7.342  73.868  1.00  0.00    -0.311 OA 
HETATM    8  O   UNL     1      -8.057   8.772  74.544  1.00  0.00    -0.283 OA 
HETATM    9  O   UNL     1      -8.950   8.873  72.174  1.00  0.00    -0.381 OA 
ENDBRANCH   2   5
TORSDOF 1
ENDMDL
MODEL      195
REMARK 921   NORMALIZED FREE ENERGY PREDICTED BY IDOCK:   -1.31 KCAL/MOL
REMARK 922        TOTAL FREE ENERGY PREDICTED BY IDOCK:   -1.61 KCAL/MOL
REMARK 923 INTER-LIGAND FREE ENERGY PREDICTED BY IDOCK:   -1.59 KCAL/MOL
REMARK 924 INTRA-LIGAND FREE ENERGY PREDICTED BY IDOCK:   -0.02 KCAL/MOL
REMARK 927      BINDING AFFINITY PREDICTED BY RF-SCORE:    0.00 PKD
ROOT
HETATM    1  N   UNL     1      -9.494  12.833  65.622  1.00  0.00    -0.464 NA 
HETATM    2  C   UNL     1      -9.627  11.436  66.040  1.00  0.00    -0.221 C  
HETATM    3  H1  UNL     1      -8.941  12.905  64.768  1.00  0.00     0.000 HD 
HETATM    4  H2  UNL     1      -9.112  13.414  66.368  1.00  0.00     0.000 HD 
ENDROOT
BRANCH   2   5
HETATM    5  C   UNL     1     -10.450  11.328  67.313  1.00  0.00    -0.214 C  
HETATM    6  S   UNL     1      -9.553  10.390  68.539  1.00  0.00    -0.165 S  
HETATM    7  O   UNL     1     -10.661  10.450  69.714  1.00  0.00    -0.251 OA 
HETATM    8  O   UNL     1      -9.485   9.002  68.144  1.00  0.00    -0.141 OA 
HETATM    9  O   UNL     1      -8.396  11.135  68.976  1.00  0.00    -0.134 OA 
ENDBRANCH   2   5
TORSDOF 1
ENDMDL
MODEL      196
REMARK 921   NORMALIZED FREE ENERGY PREDICTED BY IDOCK:   -1.28 KCAL/MOL
REMARK 922        TOTAL FREE ENERGY PREDICTED BY IDOCK:   -1.59 KCAL/MOL
REMARK 923 INTER-LIGAND FREE ENERGY PREDICTED BY IDOCK:   -1.37 KCAL/MOL
REMARK 924 INTRA-LIGAND FREE ENERGY PREDICTED BY IDOCK:   -0.22 KCAL/MOL
REMARK 927      BINDING AFFINITY PREDICTED BY RF-SCORE:    0.00 PKD
ROOT
HETATM    1  N   UNL     1     -11.534   6.462  68.737  1.00  0.00    -0.548 NA 
HETATM    2  C   UNL     1     -10.555   6.664  67.667  1.00  0.00    -0.263 C  
HETATM    3  H1  UNL     1     -12.269   7.168  68.695  1.00  0.00     0.000 HD 
HETATM    4  H2  UNL     1     -11.090   6.435  69.654  1.00  0.00     0.000 HD 
ENDROOT
BRANCH   2   5
HETATM    5  C   UNL     1      -9.460   5.613  67.731  1.00  0.00    -0.115 C  
HETATM    6  S   UNL     1      -8.695   5.627  69.344  1.00  0.00    -0.109 S  
HETATM    7  O   UNL     1      -7.615   4.452  69.084  1.00  0.00    -0.055 OA 
HETATM    8  O   UNL     1      -7.919   6.834  69.510  1.00  0.00    -0.119 OA 
HETATM    9  O   UNL     1      -9.635   5.160  70.335  1.00  0.00    -0.163 OA 
ENDBRANCH   2   5
TORSDOF 1
ENDMDL
MODEL      197
REMARK 921   NORMALIZED FREE ENERGY PREDICTED BY IDOCK:   -1.26 KCAL/MOL
REMARK 922        TOTAL FREE ENERGY PREDICTED BY IDOCK:   -1.56 KCAL/MOL
REMARK 923 INTER-LIGAND FREE ENERGY PREDICTED BY IDOCK:   -1.32 KCAL/MOL
REMARK 924 INTRA-LIGAND FREE ENERGY PREDICTED BY IDOCK:   -0.24 KCAL/MOL
REMARK 927      BINDING AFFINITY PREDICTED BY RF-SCORE:    0.00 PKD
ROOT
HETATM    1  N   UNL     1      -8.084   9.207  71.112  1.00  0.00    -0.306 NA 
HETATM    2  C   UNL     1      -9.430   8.905  71.604  1.00  0.00    -0.281 C  
HETATM    3  H1  UNL     1      -7.593   9.827  71.757  1.00  0.00     0.000 HD 
HETATM    4  H2  UNL     1      -8.105   9.588  70.167  1.00  0.00     0.000 HD 
ENDROOT
BRANCH   2   5
HETATM    5  C   UNL     1     -10.162   7.983  70.644  1.00  0.00    -0.196 C  
HETATM    6  S   UNL     1      -8.994   6.930  69.800  1.00  0.00    -0.140 S  
HETATM    7  O   UNL     1     -10.051   6.117  68.888  1.00  0.00    -0.153 OA 
HETATM    8  O   UNL     1      -8.206   7.711  68.875  1.00  0.00    -0.125 OA 
HETATM    9  O   UNL     1      -8.405   6.002  70.737  1.00  0.00    -0.122 OA 
ENDBRANCH   2   5
TORSDOF 1
ENDMDL
MODEL      198
REMARK 921   NORMALIZED FREE ENERGY PREDICTED BY IDOCK:   -1.26 KCAL/MOL
REMARK 922        TOTAL FREE ENERGY PREDICTED BY IDOCK:   -1.56 KCAL/MOL
REMARK 923 INTER-LIGAND FREE ENERGY PREDICTED BY IDOCK:   -1.17 KCAL/MOL
REMARK 924 INTRA-LIGAND FREE ENERGY PREDICTED BY IDOCK:   -0.39 KCAL/MOL
REMARK 927      BINDING AFFINITY PREDICTED BY RF-SCORE:    0.00 PKD
ROOT
HETATM    1  N   UNL     1      -9.913  10.230  70.017  1.00  0.00    -0.420 NA 
HETATM    2  C   UNL     1     -10.389   9.371  68.931  1.00  0.00    -0.213 C  
HETATM    3  H1  UNL     1     -10.578  10.239  70.790  1.00  0.00     0.000 HD 
HETATM    4  H2  UNL     1      -9.705  11.173  69.688  1.00  0.00     0.000 HD 
ENDROOT
BRANCH   2   5
HETATM    5  C   UNL     1      -9.399   9.358  67.778  1.00  0.00    -0.128 C  
HETATM    6  S   UNL     1      -8.015  10.422  68.151  1.00  0.00    -0.112 S  
HETATM    7  O   UNL     1      -7.191  10.200  66.779  1.00  0.00    -0.089 OA 
HETATM    8  O   UNL     1      -8.437  11.804  68.129  1.00  0.00    -0.144 OA 
HETATM    9  O   UNL     1      -7.243   9.859  69.234  1.00  0.00    -0.062 OA 
ENDBRANCH   2   5
TORSDOF 1
ENDMDL
MODEL      199
REMARK 921   NORMALIZED FREE ENERGY PREDICTED BY IDOCK:   -1.25 KCAL/MOL
REMARK 922        TOTAL FREE ENERGY PREDICTED BY IDOCK:   -1.55 KCAL/MOL
REMARK 923 INTER-LIGAND FREE ENERGY PREDICTED BY IDOCK:   -1.31 KCAL/MOL
REMARK 924 INTRA-LIGAND FREE ENERGY PREDICTED BY IDOCK:   -0.23 KCAL/MOL
REMARK 927      BINDING AFFINITY PREDICTED BY RF-SCORE:    0.00 PKD
ROOT
HETATM    1  N   UNL     1      -8.584   7.192  67.352  1.00  0.00    -0.121 NA 
HETATM    2  C   UNL     1     -10.035   7.382  67.384  1.00  0.00    -0.183 C  
HETATM    3  H1  UNL     1      -8.341   6.219  67.535  1.00  0.00     0.000 HD 
HETATM    4  H2  UNL     1      -8.107   7.826  67.992  1.00  0.00     0.000 HD 
ENDROOT
BRANCH   2   5
HETATM    5  C   UNL     1     -10.398   8.832  67.112  1.00  0.00    -0.293 C  
HETATM    6  S   UNL     1     -10.131   9.812  68.580  1.00  0.00    -0.177 S  
HETATM    7  O   UNL     1     -10.601  11.237  67.981  1.00  0.00    -0.181 OA 
HETATM    8  O   UNL     1     -11.113   9.473  69.584  1.00  0.00    -0.234 OA 
HETATM    9  O   UNL     1      -8.718   9.891  68.867  1.00  0.00    -0.127 OA 
ENDBRANCH   2   5
TORSDOF 1
ENDMDL
MODEL      200
REMARK 921   NORMALIZED FREE ENERGY PREDICTED BY IDOCK:   -1.24 KCAL/MOL
REMARK 922        TOTAL FREE ENERGY PREDICTED BY IDOCK:   -1.54 KCAL/MOL
REMARK 923 INTER-LIGAND FREE ENERGY PREDICTED BY IDOCK:   -1.19 KCAL/MOL
REMARK 924 INTRA-LIGAND FREE ENERGY PREDICTED BY IDOCK:   -0.35 KCAL/MOL
REMARK 927      BINDING AFFINITY PREDICTED BY RF-SCORE:    0.00 PKD
ROOT
HETATM    1  N   UNL     1      -8.356   7.565  63.191  1.00  0.00    -0.373 NA 
HETATM    2  C   UNL     1      -7.850   6.834  64.355  1.00  0.00    -0.113 C  
HETATM    3  H1  UNL     1      -8.583   6.923  62.431  1.00  0.00     0.000 HD 
HETATM    4  H2  UNL     1      -7.706   8.290  62.890  1.00  0.00     0.000 HD 
ENDROOT
BRANCH   2   5
HETATM    5  C   UNL     1      -7.510   7.789  65.487  1.00  0.00    -0.076 C  
HETATM    6  S   UNL     1      -8.160   9.413  65.130  1.00  0.00    -0.134 S  
HETATM    7  O   UNL     1      -7.639  10.156  66.467  1.00  0.00    -0.103 OA 
HETATM    8  O   UNL     1      -7.421  10.010  64.043  1.00  0.00    -0.133 OA 
HETATM    9  O   UNL     1      -9.603   9.382  65.169  1.00  0.00    -0.256 OA 
ENDBRANCH   2   5
TORSDOF 1
ENDMDL
MODEL      201
REMARK 921   NORMALIZED FREE ENERGY PREDICTED BY IDOCK:   -1.22 KCAL/MOL
REMARK 922        TOTAL FREE ENERGY PREDICTED BY IDOCK:   -1.51 KCAL/MOL
REMARK 923 INTER-LIGAND FREE ENERGY PREDICTED BY IDOCK:   -1.12 KCAL/MOL
REMARK 924 INTRA-LIGAND FREE ENERGY PREDICTED BY IDOCK:   -0.39 KCAL/MOL
REMARK 927      BINDING AFFINITY PREDICTED BY RF-SCORE:    0.00 PKD
ROOT
HETATM    1  N   UNL     1      -9.651   1.932  67.739  1.00  0.00    -0.405 NA 
HETATM    2  C   UNL     1      -8.196   2.091  67.788  1.00  0.00    -0.065 C  
HETATM    3  H1  UNL     1      -9.903   0.990  67.440  1.00  0.00     0.000 HD 
HETATM    4  H2  UNL     1     -10.088   2.643  67.154  1.00  0.00     0.000 HD 
ENDROOT
BRANCH   2   5
HETATM    5  C   UNL     1      -7.820   3.494  68.234  1.00  0.00    -0.067 C  
HETATM    6  S   UNL     1      -9.294   4.439  68.581  1.00  0.00    -0.156 S  
HETATM    7  O   UNL     1      -8.574   5.823  69.000  1.00  0.00    -0.106 OA 
HETATM    8  O   UNL     1      -9.996   4.725  67.351  1.00  0.00    -0.179 OA 
HETATM    9  O   UNL     1      -9.954   3.905  69.749  1.00  0.00    -0.145 OA 
ENDBRANCH   2   5
TORSDOF 1
ENDMDL
MODEL      202
REMARK 921   NORMALIZED FREE ENERGY PREDICTED BY IDOCK:   -1.20 KCAL/MOL
REMARK 922        TOTAL FREE ENERGY PREDICTED BY IDOCK:   -1.49 KCAL/MOL
REMARK 923 INTER-LIGAND FREE ENERGY PREDICTED BY IDOCK:   -1.49 KCAL/MOL
REMARK 924 INTRA-LIGAND FREE ENERGY PREDICTED BY IDOCK:   -0.01 KCAL/MOL
REMARK 927      BINDING AFFINITY PREDICTED BY RF-SCORE:    0.00 PKD
ROOT
HETATM    1  N   UNL     1      -6.979   7.240  72.225  1.00  0.00    -0.063 NA 
HETATM    2  C   UNL     1      -8.146   7.690  71.463  1.00  0.00    -0.098 C  
HETATM    3  H1  UNL     1      -6.191   7.053  71.605  1.00  0.00     0.000 HD 
HETATM    4  H2  UNL     1      -7.199   6.434  72.809  1.00  0.00     0.000 HD 
ENDROOT
BRANCH   2   5
HETATM    5  C   UNL     1      -9.320   7.968  72.386  1.00  0.00    -0.208 C  
HETATM    6  S   UNL     1     -10.829   8.068  71.437  1.00  0.00    -0.237 S  
HETATM    7  O   UNL     1     -11.839   8.370  72.663  1.00  0.00    -0.393 OA 
HETATM    8  O   UNL     1     -10.827   9.269  70.634  1.00  0.00    -0.236 OA 
HETATM    9  O   UNL     1     -11.156   6.769  70.898  1.00  0.00    -0.250 OA 
ENDBRANCH   2   5
TORSDOF 1
ENDMDL
MODEL      203
REMARK 921   NORMALIZED FREE ENERGY PREDICTED BY IDOCK:   -1.20 KCAL/MOL
REMARK 922        TOTAL FREE ENERGY PREDICTED BY IDOCK:   -1.49 KCAL/MOL
REMARK 923 INTER-LIGAND FREE ENERGY PREDICTED BY IDOCK:   -1.48 KCAL/MOL
REMARK 924 INTRA-LIGAND FREE ENERGY PREDICTED BY IDOCK:   -0.02 KCAL/MOL
REMARK 927      BINDING AFFINITY PREDICTED BY RF-SCORE:    0.00 PKD
ROOT
HETATM    1  N   UNL     1      -9.807  10.249  69.945  1.00  0.00    -0.409 NA 
HETATM    2  C   UNL     1      -9.856   9.582  68.643  1.00  0.00    -0.162 C  
HETATM    3  H1  UNL     1     -10.651  10.055  70.485  1.00  0.00     0.000 HD 
HETATM    4  H2  UNL     1      -9.643  11.251  69.850  1.00  0.00     0.000 HD 
ENDROOT
BRANCH   2   5
HETATM    5  C   UNL     1      -8.599   9.872  67.839  1.00  0.00    -0.125 C  
HETATM    6  S   UNL     1      -9.036  10.320  66.167  1.00  0.00    -0.159 S  
HETATM    7  O   UNL     1      -7.539  10.544  65.602  1.00  0.00    -0.148 OA 
HETATM    8  O   UNL     1      -9.545   9.165  65.465  1.00  0.00    -0.257 OA 
HETATM    9  O   UNL     1      -9.712  11.596  66.163  1.00  0.00    -0.216 OA 
ENDBRANCH   2   5
TORSDOF 1
ENDMDL
MODEL      204
REMARK 921   NORMALIZED FREE ENERGY PREDICTED BY IDOCK:   -1.19 KCAL/MOL
REMARK 922        TOTAL FREE ENERGY PREDICTED BY IDOCK:   -1.49 KCAL/MOL
REMARK 923 INTER-LIGAND FREE ENERGY PREDICTED BY IDOCK:   -1.10 KCAL/MOL
REMARK 924 INTRA-LIGAND FREE ENERGY PREDICTED BY IDOCK:   -0.39 KCAL/MOL
REMARK 927      BINDING AFFINITY PREDICTED BY RF-SCORE:    0.00 PKD
ROOT
HETATM    1  N   UNL     1      -9.657   4.894  62.969  1.00  0.00    -0.349 NA 
HETATM    2  C   UNL     1     -10.236   3.827  63.787  1.00  0.00    -0.216 C  
HETATM    3  H1  UNL     1     -10.169   4.997  62.092  1.00  0.00     0.000 HD 
HETATM    4  H2  UNL     1      -8.661   4.748  62.808  1.00  0.00     0.000 HD 
ENDROOT
BRANCH   2   5
HETATM    5  C   UNL     1      -9.474   3.672  65.092  1.00  0.00    -0.162 C  
HETATM    6  S   UNL     1      -8.239   4.953  65.232  1.00  0.00    -0.128 S  
HETATM    7  O   UNL     1      -7.628   4.514  66.662  1.00  0.00    -0.084 OA 
HETATM    8  O   UNL     1      -7.182   4.724  64.274  1.00  0.00    -0.053 OA 
HETATM    9  O   UNL     1      -8.880   6.237  65.394  1.00  0.00    -0.104 OA 
ENDBRANCH   2   5
TORSDOF 1
ENDMDL
MODEL      205
REMARK 921   NORMALIZED FREE ENERGY PREDICTED BY IDOCK:   -1.19 KCAL/MOL
REMARK 922        TOTAL FREE ENERGY PREDICTED BY IDOCK:   -1.49 KCAL/MOL
REMARK 923 INTER-LIGAND FREE ENERGY PREDICTED BY IDOCK:   -1.48 KCAL/MOL
REMARK 924 INTRA-LIGAND FREE ENERGY PREDICTED BY IDOCK:   -0.01 KCAL/MOL
REMARK 927      BINDING AFFINITY PREDICTED BY RF-SCORE:    0.00 PKD
ROOT
HETATM    1  N   UNL     1     -11.424   6.280  69.883  1.00  0.00    -0.436 NA 
HETATM    2  C   UNL     1     -11.010   6.407  68.485  1.00  0.00    -0.319 C  
HETATM    3  H1  UNL     1     -12.325   6.734  70.037  1.00  0.00     0.000 HD 
HETATM    4  H2  UNL     1     -10.711   6.632  70.521  1.00  0.00     0.000 HD 
ENDROOT
BRANCH   2   5
HETATM    5  C   UNL     1      -9.668   5.732  68.255  1.00  0.00    -0.129 C  
HETATM    6  S   UNL     1      -9.256   5.772  66.519  1.00  0.00    -0.146 S  
HETATM    7  O   UNL     1      -7.840   4.998  66.612  1.00  0.00    -0.098 OA 
HETATM    8  O   UNL     1     -10.132   4.888  65.785  1.00  0.00    -0.191 OA 
HETATM    9  O   UNL     1      -8.997   7.132  66.108  1.00  0.00    -0.159 OA 
ENDBRANCH   2   5
TORSDOF 1
ENDMDL
MODEL      206
REMARK 921   NORMALIZED FREE ENERGY PREDICTED BY IDOCK:   -1.16 KCAL/MOL
REMARK 922        TOTAL FREE ENERGY PREDICTED BY IDOCK:   -1.45 KCAL/MOL
REMARK 923 INTER-LIGAND FREE ENERGY PREDICTED BY IDOCK:   -1.23 KCAL/MOL
REMARK 924 INTRA-LIGAND FREE ENERGY PREDICTED BY IDOCK:   -0.23 KCAL/MOL
REMARK 927      BINDING AFFINITY PREDICTED BY RF-SCORE:    0.00 PKD
ROOT
HETATM    1  N   UNL     1      -8.800   7.777  67.096  1.00  0.00    -0.123 NA 
HETATM    2  C   UNL     1      -8.106   7.410  68.332  1.00  0.00    -0.125 C  
HETATM    3  H1  UNL     1      -8.217   7.582  66.282  1.00  0.00     0.000 HD 
HETATM    4  H2  UNL     1      -9.111   8.747  67.113  1.00  0.00     0.000 HD 
ENDROOT
BRANCH   2   5
HETATM    5  C   UNL     1      -8.973   7.701  69.546  1.00  0.00    -0.139 C  
HETATM    6  S   UNL     1      -9.376   9.439  69.604  1.00  0.00    -0.203 S  
HETATM    7  O   UNL     1     -10.258   9.414  70.958  1.00  0.00    -0.287 OA 
HETATM    8  O   UNL     1      -8.195  10.206  69.926  1.00  0.00    -0.177 OA 
HETATM    9  O   UNL     1     -10.251   9.776  68.506  1.00  0.00    -0.172 OA 
ENDBRANCH   2   5
TORSDOF 1
ENDMDL
MODEL      207
REMARK 921   NORMALIZED FREE ENERGY PREDICTED BY IDOCK:   -1.14 KCAL/MOL
REMARK 922        TOTAL FREE ENERGY PREDICTED BY IDOCK:   -1.43 KCAL/MOL
REMARK 923 INTER-LIGAND FREE ENERGY PREDICTED BY IDOCK:   -1.20 KCAL/MOL
REMARK 924 INTRA-LIGAND FREE ENERGY PREDICTED BY IDOCK:   -0.23 KCAL/MOL
REMARK 927      BINDING AFFINITY PREDICTED BY RF-SCORE:    0.00 PKD
ROOT
HETATM    1  N   UNL     1     -10.421   9.244  67.563  1.00  0.00    -0.261 NA 
HETATM    2  C   UNL     1      -9.192   8.518  67.238  1.00  0.00    -0.141 C  
HETATM    3  H1  UNL     1     -10.219  10.052  68.154  1.00  0.00     0.000 HD 
HETATM    4  H2  UNL     1     -11.119   8.634  67.986  1.00  0.00     0.000 HD 
ENDROOT
BRANCH   2   5
HETATM    5  C   UNL     1      -9.491   7.315  66.359  1.00  0.00    -0.127 C  
HETATM    6  S   UNL     1     -10.130   5.978  67.354  1.00  0.00    -0.187 S  
HETATM    7  O   UNL     1     -10.327   4.897  66.169  1.00  0.00    -0.254 OA 
HETATM    8  O   UNL     1      -9.083   5.445  68.193  1.00  0.00    -0.108 OA 
HETATM    9  O   UNL     1     -11.436   6.327  67.862  1.00  0.00    -0.123 OA 
ENDBRANCH   2   5
TORSDOF 1
ENDMDL
MODEL      208
REMARK 921   NORMALIZED FREE ENERGY PREDICTED BY IDOCK:   -1.11 KCAL/MOL
REMARK 922        TOTAL FREE ENERGY PREDICTED BY IDOCK:   -1.40 KCAL/MOL
REMARK 923 INTER-LIGAND FREE ENERGY PREDICTED BY IDOCK:   -1.17 KCAL/MOL
REMARK 924 INTRA-LIGAND FREE ENERGY PREDICTED BY IDOCK:   -0.23 KCAL/MOL
REMARK 927      BINDING AFFINITY PREDICTED BY RF-SCORE:    0.00 PKD
ROOT
HETATM    1  N   UNL     1      -7.637   5.295  63.922  1.00  0.00    -0.066 NA 
HETATM    2  C   UNL     1      -8.010   6.171  65.035  1.00  0.00    -0.123 C  
HETATM    3  H1  UNL     1      -7.526   5.830  63.061  1.00  0.00     0.000 HD 
HETATM    4  H2  UNL     1      -8.300   4.529  63.808  1.00  0.00     0.000 HD 
ENDROOT
BRANCH   2   5
HETATM    5  C   UNL     1      -8.176   5.375  66.318  1.00  0.00    -0.110 C  
HETATM    6  S   UNL     1      -9.760   4.553  66.325  1.00  0.00    -0.228 S  
HETATM    7  O   UNL     1      -9.629   3.835  67.766  1.00  0.00    -0.186 OA 
HETATM    8  O   UNL     1     -10.818   5.526  66.472  1.00  0.00    -0.288 OA 
HETATM    9  O   UNL     1      -9.782   3.523  65.312  1.00  0.00    -0.166 OA 
ENDBRANCH   2   5
TORSDOF 1
ENDMDL
MODEL      209
REMARK 921   NORMALIZED FREE ENERGY PREDICTED BY IDOCK:   -1.10 KCAL/MOL
REMARK 922        TOTAL FREE ENERGY PREDICTED BY IDOCK:   -1.39 KCAL/MOL
REMARK 923 INTER-LIGAND FREE ENERGY PREDICTED BY IDOCK:   -1.15 KCAL/MOL
REMARK 924 INTRA-LIGAND FREE ENERGY PREDICTED BY IDOCK:   -0.24 KCAL/MOL
REMARK 927      BINDING AFFINITY PREDICTED BY RF-SCORE:    0.00 PKD
ROOT
HETATM    1  N   UNL     1      -8.380   7.317  67.478  1.00  0.00    -0.116 NA 
HETATM    2  C   UNL     1      -9.592   8.060  67.828  1.00  0.00    -0.151 C  
HETATM    3  H1  UNL     1      -8.552   6.312  67.496  1.00  0.00     0.000 HD 
HETATM    4  H2  UNL     1      -7.594   7.576  68.075  1.00  0.00     0.000 HD 
ENDROOT
BRANCH   2   5
HETATM    5  C   UNL     1      -9.336   9.557  67.802  1.00  0.00    -0.127 C  
HETATM    6  S   UNL     1      -8.923  10.076  66.145  1.00  0.00    -0.154 S  
HETATM    7  O   UNL     1      -8.710  11.647  66.453  1.00  0.00    -0.192 OA 
HETATM    8  O   UNL     1      -7.618   9.573  65.783  1.00  0.00    -0.097 OA 
HETATM    9  O   UNL     1     -10.077   9.940  65.287  1.00  0.00    -0.313 OA 
ENDBRANCH   2   5
TORSDOF 1
ENDMDL
MODEL      210
REMARK 921   NORMALIZED FREE ENERGY PREDICTED BY IDOCK:   -1.10 KCAL/MOL
REMARK 922        TOTAL FREE ENERGY PREDICTED BY IDOCK:   -1.39 KCAL/MOL
REMARK 923 INTER-LIGAND FREE ENERGY PREDICTED BY IDOCK:   -1.17 KCAL/MOL
REMARK 924 INTRA-LIGAND FREE ENERGY PREDICTED BY IDOCK:   -0.22 KCAL/MOL
REMARK 927      BINDING AFFINITY PREDICTED BY RF-SCORE:    0.00 PKD
ROOT
HETATM    1  N   UNL     1      -9.509   2.338  72.153  1.00  0.00    -0.096 NA 
HETATM    2  C   UNL     1      -8.937   3.621  71.741  1.00  0.00    -0.106 C  
HETATM    3  H1  UNL     1      -8.794   1.738  72.564  1.00  0.00     0.000 HD 
HETATM    4  H2  UNL     1      -9.992   1.876  71.383  1.00  0.00     0.000 HD 
ENDROOT
BRANCH   2   5
HETATM    5  C   UNL     1     -10.002   4.516  71.128  1.00  0.00    -0.187 C  
HETATM    6  S   UNL     1     -10.932   5.328  72.417  1.00  0.00    -0.180 S  
HETATM    7  O   UNL     1     -11.943   6.158  71.469  1.00  0.00    -0.249 OA 
HETATM    8  O   UNL     1     -11.756   4.365  73.110  1.00  0.00    -0.177 OA 
HETATM    9  O   UNL     1     -10.087   6.274  73.108  1.00  0.00    -0.175 OA 
ENDBRANCH   2   5
TORSDOF 1
ENDMDL
MODEL      211
REMARK 921   NORMALIZED FREE ENERGY PREDICTED BY IDOCK:   -1.08 KCAL/MOL
REMARK 922        TOTAL FREE ENERGY PREDICTED BY IDOCK:   -1.38 KCAL/MOL
REMARK 923 INTER-LIGAND FREE ENERGY PREDICTED BY IDOCK:   -1.28 KCAL/MOL
REMARK 924 INTRA-LIGAND FREE ENERGY PREDICTED BY IDOCK:   -0.10 KCAL/MOL
REMARK 927      BINDING AFFINITY PREDICTED BY RF-SCORE:    0.00 PKD
ROOT
HETATM    1  N   UNL     1      -6.604  11.502  69.951  1.00  0.00    -0.297 NA 
HETATM    2  C   UNL     1      -7.207  10.446  69.136  1.00  0.00    -0.089 C  
HETATM    3  H1  UNL     1      -5.632  11.656  69.684  1.00  0.00     0.000 HD 
HETATM    4  H2  UNL     1      -6.695  11.307  70.948  1.00  0.00     0.000 HD 
ENDROOT
BRANCH   2   5
HETATM    5  C   UNL     1      -8.655  10.215  69.534  1.00  0.00    -0.164 C  
HETATM    6  S   UNL     1      -9.738  11.120  68.440  1.00  0.00    -0.196 S  
HETATM    7  O   UNL     1     -11.142  10.686  69.114  1.00  0.00    -0.220 OA 
HETATM    8  O   UNL     1      -9.614  12.538  68.687  1.00  0.00    -0.144 OA 
HETATM    9  O   UNL     1      -9.683  10.550  67.115  1.00  0.00    -0.165 OA 
ENDBRANCH   2   5
TORSDOF 1
ENDMDL
MODEL      212
REMARK 921   NORMALIZED FREE ENERGY PREDICTED BY IDOCK:   -1.06 KCAL/MOL
REMARK 922        TOTAL FREE ENERGY PREDICTED BY IDOCK:   -1.35 KCAL/MOL
REMARK 923 INTER-LIGAND FREE ENERGY PREDICTED BY IDOCK:   -1.34 KCAL/MOL
REMARK 924 INTRA-LIGAND FREE ENERGY PREDICTED BY IDOCK:   -0.01 KCAL/MOL
REMARK 927      BINDING AFFINITY PREDICTED BY RF-SCORE:    0.00 PKD
ROOT
HETATM    1  N   UNL     1      -6.761  11.504  70.178  1.00  0.00    -0.464 NA 
HETATM    2  C   UNL     1      -7.171  10.261  69.523  1.00  0.00    -0.122 C  
HETATM    3  H1  UNL     1      -5.888  11.852  69.782  1.00  0.00     0.000 HD 
HETATM    4  H2  UNL     1      -6.697  11.393  71.190  1.00  0.00     0.000 HD 
ENDROOT
BRANCH   2   5
HETATM    5  C   UNL     1      -8.471   9.741  70.114  1.00  0.00    -0.174 C  
HETATM    6  S   UNL     1      -8.797   8.092  69.511  1.00  0.00    -0.143 S  
HETATM    7  O   UNL     1     -10.193   7.847  70.288  1.00  0.00    -0.195 OA 
HETATM    8  O   UNL     1      -9.139   8.140  68.108  1.00  0.00    -0.135 OA 
HETATM    9  O   UNL     1      -7.820   7.173  70.046  1.00  0.00    -0.108 OA 
ENDBRANCH   2   5
TORSDOF 1
ENDMDL
MODEL      213
REMARK 921   NORMALIZED FREE ENERGY PREDICTED BY IDOCK:   -1.04 KCAL/MOL
REMARK 922        TOTAL FREE ENERGY PREDICTED BY IDOCK:   -1.33 KCAL/MOL
REMARK 923 INTER-LIGAND FREE ENERGY PREDICTED BY IDOCK:   -1.31 KCAL/MOL
REMARK 924 INTRA-LIGAND FREE ENERGY PREDICTED BY IDOCK:   -0.02 KCAL/MOL
REMARK 927      BINDING AFFINITY PREDICTED BY RF-SCORE:    0.00 PKD
ROOT
HETATM    1  N   UNL     1      -8.828   7.822  67.282  1.00  0.00    -0.127 NA 
HETATM    2  C   UNL     1      -8.557   7.446  68.671  1.00  0.00    -0.129 C  
HETATM    3  H1  UNL     1      -8.019   7.632  66.690  1.00  0.00     0.000 HD 
HETATM    4  H2  UNL     1      -9.130   8.793  67.206  1.00  0.00     0.000 HD 
ENDROOT
BRANCH   2   5
HETATM    5  C   UNL     1      -9.762   7.730  69.553  1.00  0.00    -0.165 C  
HETATM    6  S   UNL     1     -10.069   6.340  70.629  1.00  0.00    -0.194 S  
HETATM    7  O   UNL     1     -11.363   6.936  71.392  1.00  0.00    -0.249 OA 
HETATM    8  O   UNL     1     -10.558   5.220  69.858  1.00  0.00    -0.306 OA 
HETATM    9  O   UNL     1      -8.999   6.218  71.590  1.00  0.00    -0.144 OA 
ENDBRANCH   2   5
TORSDOF 1
ENDMDL
MODEL      214
REMARK 921   NORMALIZED FREE ENERGY PREDICTED BY IDOCK:   -1.00 KCAL/MOL
REMARK 922        TOTAL FREE ENERGY PREDICTED BY IDOCK:   -1.29 KCAL/MOL
REMARK 923 INTER-LIGAND FREE ENERGY PREDICTED BY IDOCK:   -1.04 KCAL/MOL
REMARK 924 INTRA-LIGAND FREE ENERGY PREDICTED BY IDOCK:   -0.24 KCAL/MOL
REMARK 927      BINDING AFFINITY PREDICTED BY RF-SCORE:    0.00 PKD
ROOT
HETATM    1  N   UNL     1     -11.219   6.216  70.168  1.00  0.00    -0.378 NA 
HETATM    2  C   UNL     1     -10.307   6.452  69.047  1.00  0.00    -0.199 C  
HETATM    3  H1  UNL     1     -12.183   6.414  69.899  1.00  0.00     0.000 HD 
HETATM    4  H2  UNL     1     -10.942   6.743  70.995  1.00  0.00     0.000 HD 
ENDROOT
BRANCH   2   5
HETATM    5  C   UNL     1      -8.871   6.157  69.446  1.00  0.00    -0.126 C  
HETATM    6  S   UNL     1      -8.677   4.414  69.781  1.00  0.00    -0.076 S  
HETATM    7  O   UNL     1      -7.109   4.439  70.170  1.00  0.00    -0.043 OA 
HETATM    8  O   UNL     1      -9.373   4.067  70.998  1.00  0.00    -0.124 OA 
HETATM    9  O   UNL     1      -8.823   3.662  68.557  1.00  0.00    -0.097 OA 
ENDBRANCH   2   5
TORSDOF 1
ENDMDL
MODEL      215
REMARK 921   NORMALIZED FREE ENERGY PREDICTED BY IDOCK:   -0.99 KCAL/MOL
REMARK 922        TOTAL FREE ENERGY PREDICTED BY IDOCK:   -1.28 KCAL/MOL
REMARK 923 INTER-LIGAND FREE ENERGY PREDICTED BY IDOCK:   -0.91 KCAL/MOL
REMARK 924 INTRA-LIGAND FREE ENERGY PREDICTED BY IDOCK:   -0.36 KCAL/MOL
REMARK 927      BINDING AFFINITY PREDICTED BY RF-SCORE:    0.00 PKD
ROOT
HETATM    1  N   UNL     1      -7.418   6.114  72.661  1.00  0.00    -0.093 NA 
HETATM    2  C   UNL     1      -7.201   6.860  71.421  1.00  0.00    -0.080 C  
HETATM    3  H1  UNL     1      -6.762   6.411  73.383  1.00  0.00     0.000 HD 
HETATM    4  H2  UNL     1      -7.378   5.107  72.507  1.00  0.00     0.000 HD 
ENDROOT
BRANCH   2   5
HETATM    5  C   UNL     1      -8.178   6.417  70.344  1.00  0.00    -0.121 C  
HETATM    6  S   UNL     1      -9.160   5.051  70.939  1.00  0.00    -0.147 S  
HETATM    7  O   UNL     1     -10.049   4.825  69.609  1.00  0.00    -0.229 OA 
HETATM    8  O   UNL     1      -8.338   3.869  71.059  1.00  0.00    -0.066 OA 
HETATM    9  O   UNL     1     -10.038   5.501  71.993  1.00  0.00    -0.176 OA 
ENDBRANCH   2   5
TORSDOF 1
ENDMDL
MODEL      216
REMARK 921   NORMALIZED FREE ENERGY PREDICTED BY IDOCK:   -0.98 KCAL/MOL
REMARK 922        TOTAL FREE ENERGY PREDICTED BY IDOCK:   -1.27 KCAL/MOL
REMARK 923 INTER-LIGAND FREE ENERGY PREDICTED BY IDOCK:   -1.04 KCAL/MOL
REMARK 924 INTRA-LIGAND FREE ENERGY PREDICTED BY IDOCK:   -0.22 KCAL/MOL
REMARK 927      BINDING AFFINITY PREDICTED BY RF-SCORE:    0.00 PKD
ROOT
HETATM    1  N   UNL     1      -8.117   5.853  68.797  1.00  0.00    -0.102 NA 
HETATM    2  C   UNL     1      -7.557   6.920  67.964  1.00  0.00    -0.108 C  
HETATM    3  H1  UNL     1      -7.442   5.098  68.921  1.00  0.00     0.000 HD 
HETATM    4  H2  UNL     1      -9.002   5.510  68.426  1.00  0.00     0.000 HD 
ENDROOT
BRANCH   2   5
HETATM    5  C   UNL     1      -8.562   8.044  67.778  1.00  0.00    -0.128 C  
HETATM    6  S   UNL     1      -9.574   8.204  69.240  1.00  0.00    -0.165 S  
HETATM    7  O   UNL     1     -10.501   9.426  68.732  1.00  0.00    -0.205 OA 
HETATM    8  O   UNL     1     -10.459   7.068  69.353  1.00  0.00    -0.200 OA 
HETATM    9  O   UNL     1      -8.771   8.680  70.342  1.00  0.00    -0.137 OA 
ENDBRANCH   2   5
TORSDOF 1
ENDMDL
MODEL      217
REMARK 921   NORMALIZED FREE ENERGY PREDICTED BY IDOCK:   -0.97 KCAL/MOL
REMARK 922        TOTAL FREE ENERGY PREDICTED BY IDOCK:   -1.26 KCAL/MOL
REMARK 923 INTER-LIGAND FREE ENERGY PREDICTED BY IDOCK:   -1.25 KCAL/MOL
REMARK 924 INTRA-LIGAND FREE ENERGY PREDICTED BY IDOCK:   -0.01 KCAL/MOL
REMARK 927      BINDING AFFINITY PREDICTED BY RF-SCORE:    0.00 PKD
ROOT
HETATM    1  N   UNL     1      -9.731   9.728  70.781  1.00  0.00    -0.320 NA 
HETATM    2  C   UNL     1      -9.884   8.896  69.585  1.00  0.00    -0.180 C  
HETATM    3  H1  UNL     1     -10.434   9.490  71.480  1.00  0.00     0.000 HD 
HETATM    4  H2  UNL     1      -9.746  10.721  70.553  1.00  0.00     0.000 HD 
ENDROOT
BRANCH   2   5
HETATM    5  C   UNL     1      -8.837   9.251  68.542  1.00  0.00    -0.129 C  
HETATM    6  S   UNL     1      -8.963   8.139  67.151  1.00  0.00    -0.142 S  
HETATM    7  O   UNL     1      -7.757   8.755  66.269  1.00  0.00    -0.095 OA 
HETATM    8  O   UNL     1      -8.524   6.818  67.535  1.00  0.00    -0.121 OA 
HETATM    9  O   UNL     1     -10.200   8.377  66.445  1.00  0.00    -0.265 OA 
ENDBRANCH   2   5
TORSDOF 1
ENDMDL
MODEL      218
REMARK 921   NORMALIZED FREE ENERGY PREDICTED BY IDOCK:   -0.92 KCAL/MOL
REMARK 922        TOTAL FREE ENERGY PREDICTED BY IDOCK:   -1.21 KCAL/MOL
REMARK 923 INTER-LIGAND FREE ENERGY PREDICTED BY IDOCK:   -1.19 KCAL/MOL
REMARK 924 INTRA-LIGAND FREE ENERGY PREDICTED BY IDOCK:   -0.02 KCAL/MOL
REMARK 927      BINDING AFFINITY PREDICTED BY RF-SCORE:    0.00 PKD
ROOT
HETATM    1  N   UNL     1      -8.814   2.970  62.836  1.00  0.00    -0.088 NA 
HETATM    2  C   UNL     1      -9.720   3.779  63.653  1.00  0.00    -0.157 C  
HETATM    3  H1  UNL     1      -9.339   2.373  62.196  1.00  0.00     0.000 HD 
HETATM    4  H2  UNL     1      -8.169   2.430  63.411  1.00  0.00     0.000 HD 
ENDROOT
BRANCH   2   5
HETATM    5  C   UNL     1      -8.940   4.668  64.607  1.00  0.00    -0.151 C  
HETATM    6  S   UNL     1      -9.601   4.517  66.258  1.00  0.00    -0.210 S  
HETATM    7  O   UNL     1      -8.599   5.552  66.991  1.00  0.00    -0.111 OA 
HETATM    8  O   UNL     1     -10.907   5.132  66.323  1.00  0.00    -0.296 OA 
HETATM    9  O   UNL     1      -9.335   3.195  66.773  1.00  0.00    -0.173 OA 
ENDBRANCH   2   5
TORSDOF 1
ENDMDL
MODEL      219
REMARK 921   NORMALIZED FREE ENERGY PREDICTED BY IDOCK:   -0.92 KCAL/MOL
REMARK 922        TOTAL FREE ENERGY PREDICTED BY IDOCK:   -1.20 KCAL/MOL
REMARK 923 INTER-LIGAND FREE ENERGY PREDICTED BY IDOCK:   -0.91 KCAL/MOL
REMARK 924 INTRA-LIGAND FREE ENERGY PREDICTED BY IDOCK:   -0.30 KCAL/MOL
REMARK 927      BINDING AFFINITY PREDICTED BY RF-SCORE:    0.00 PKD
ROOT
HETATM    1  N   UNL     1      -8.613   6.301  63.735  1.00  0.00    -0.313 NA 
HETATM    2  C   UNL     1      -7.985   6.088  65.041  1.00  0.00    -0.125 C  
HETATM    3  H1  UNL     1      -8.827   7.288  63.593  1.00  0.00     0.000 HD 
HETATM    4  H2  UNL     1      -9.437   5.715  63.613  1.00  0.00     0.000 HD 
ENDROOT
BRANCH   2   5
HETATM    5  C   UNL     1      -7.666   4.618  65.254  1.00  0.00    -0.086 C  
HETATM    6  S   UNL     1      -8.482   3.631  64.010  1.00  0.00    -0.091 S  
HETATM    7  O   UNL     1      -7.967   2.182  64.507  1.00  0.00    -0.072 OA 
HETATM    8  O   UNL     1      -9.908   3.633  64.238  1.00  0.00    -0.159 OA 
HETATM    9  O   UNL     1      -7.898   3.894  62.716  1.00  0.00    -0.061 OA 
ENDBRANCH   2   5
TORSDOF 1
ENDMDL
MODEL      220
REMARK 921   NORMALIZED FREE ENERGY PREDICTED BY IDOCK:   -0.91 KCAL/MOL
REMARK 922        TOTAL FREE ENERGY PREDICTED BY IDOCK:   -1.19 KCAL/MOL
REMARK 923 INTER-LIGAND FREE ENERGY PREDICTED BY IDOCK:   -1.01 KCAL/MOL
REMARK 924 INTRA-LIGAND FREE ENERGY PREDICTED BY IDOCK:   -0.18 KCAL/MOL
REMARK 927      BINDING AFFINITY PREDICTED BY RF-SCORE:    0.00 PKD
ROOT
HETATM    1  N   UNL     1     -10.916   2.505  73.293  1.00  0.00    -0.173 NA 
HETATM    2  C   UNL     1     -10.129   1.876  72.231  1.00  0.00    -0.159 C  
HETATM    3  H1  UNL     1     -11.730   1.937  73.527  1.00  0.00     0.000 HD 
HETATM    4  H2  UNL     1     -11.180   3.460  73.052  1.00  0.00     0.000 HD 
ENDROOT
BRANCH   2   5
HETATM    5  C   UNL     1      -8.917   2.723  71.881  1.00  0.00    -0.081 C  
HETATM    6  S   UNL     1      -9.334   3.878  70.586  1.00  0.00    -0.169 S  
HETATM    7  O   UNL     1      -7.888   4.586  70.450  1.00  0.00    -0.053 OA 
HETATM    8  O   UNL     1      -9.536   3.170  69.343  1.00  0.00    -0.165 OA 
HETATM    9  O   UNL     1     -10.267   4.859  71.086  1.00  0.00    -0.213 OA 
ENDBRANCH   2   5
TORSDOF 1
ENDMDL
MODEL      221
REMARK 921   NORMALIZED FREE ENERGY PREDICTED BY IDOCK:   -0.86 KCAL/MOL
REMARK 922        TOTAL FREE ENERGY PREDICTED BY IDOCK:   -1.14 KCAL/MOL
REMARK 923 INTER-LIGAND FREE ENERGY PREDICTED BY IDOCK:   -0.90 KCAL/MOL
REMARK 924 INTRA-LIGAND FREE ENERGY PREDICTED BY IDOCK:   -0.24 KCAL/MOL
REMARK 927      BINDING AFFINITY PREDICTED BY RF-SCORE:    0.00 PKD
ROOT
HETATM    1  N   UNL     1      -7.676   4.852  72.517  1.00  0.00    -0.091 NA 
HETATM    2  C   UNL     1      -7.671   4.315  71.155  1.00  0.00    -0.067 C  
HETATM    3  H1  UNL     1      -6.804   4.631  72.998  1.00  0.00     0.000 HD 
HETATM    4  H2  UNL     1      -8.488   4.533  73.045  1.00  0.00     0.000 HD 
ENDROOT
BRANCH   2   5
HETATM    5  C   UNL     1      -8.970   4.644  70.439  1.00  0.00    -0.101 C  
HETATM    6  S   UNL     1      -9.161   6.413  70.305  1.00  0.00    -0.155 S  
HETATM    7  O   UNL     1     -10.584   6.423  69.539  1.00  0.00    -0.206 OA 
HETATM    8  O   UNL     1      -9.421   6.980  71.609  1.00  0.00    -0.157 OA 
HETATM    9  O   UNL     1      -8.165   6.947  69.407  1.00  0.00    -0.127 OA 
ENDBRANCH   2   5
TORSDOF 1
ENDMDL
MODEL      222
REMARK 921   NORMALIZED FREE ENERGY PREDICTED BY IDOCK:   -0.76 KCAL/MOL
REMARK 922        TOTAL FREE ENERGY PREDICTED BY IDOCK:   -1.03 KCAL/MOL
REMARK 923 INTER-LIGAND FREE ENERGY PREDICTED BY IDOCK:   -0.78 KCAL/MOL
REMARK 924 INTRA-LIGAND FREE ENERGY PREDICTED BY IDOCK:   -0.24 KCAL/MOL
REMARK 927      BINDING AFFINITY PREDICTED BY RF-SCORE:    0.00 PKD
ROOT
HETATM    1  N   UNL     1      -8.984   5.206  63.765  1.00  0.00    -0.345 NA 
HETATM    2  C   UNL     1      -8.966   5.129  65.227  1.00  0.00    -0.142 C  
HETATM    3  H1  UNL     1      -9.117   6.168  63.454  1.00  0.00     0.000 HD 
HETATM    4  H2  UNL     1      -9.682   4.581  63.363  1.00  0.00     0.000 HD 
ENDROOT
BRANCH   2   5
HETATM    5  C   UNL     1      -8.769   3.695  65.690  1.00  0.00    -0.117 C  
HETATM    6  S   UNL     1      -7.091   3.178  65.371  1.00  0.00    -0.063 S  
HETATM    7  O   UNL     1      -7.212   1.673  65.947  1.00  0.00    -0.052 OA 
HETATM    8  O   UNL     1      -6.882   3.032  63.949  1.00  0.00    -0.034 OA 
HETATM    9  O   UNL     1      -6.182   3.910  66.222  1.00  0.00    -0.030 OA 
ENDBRANCH   2   5
TORSDOF 1
ENDMDL
MODEL      223
REMARK 921   NORMALIZED FREE ENERGY PREDICTED BY IDOCK:   -0.75 KCAL/MOL
REMARK 922        TOTAL FREE ENERGY PREDICTED BY IDOCK:   -1.02 KCAL/MOL
REMARK 923 INTER-LIGAND FREE ENERGY PREDICTED BY IDOCK:   -0.77 KCAL/MOL
REMARK 924 INTRA-LIGAND FREE ENERGY PREDICTED BY IDOCK:   -0.25 KCAL/MOL
REMARK 927      BINDING AFFINITY PREDICTED BY RF-SCORE:    0.00 PKD
ROOT
HETATM    1  N   UNL     1      -6.416   5.374  68.475  1.00  0.00    -0.038 NA 
HETATM    2  C   UNL     1      -7.300   5.395  67.307  1.00  0.00    -0.083 C  
HETATM    3  H1  UNL     1      -5.455   5.171  68.199  1.00  0.00     0.000 HD 
HETATM    4  H2  UNL     1      -6.748   4.725  69.187  1.00  0.00     0.000 HD 
ENDROOT
BRANCH   2   5
HETATM    5  C   UNL     1      -8.732   5.696  67.718  1.00  0.00    -0.107 C  
HETATM    6  S   UNL     1      -8.934   5.420  69.470  1.00  0.00    -0.106 S  
HETATM    7  O   UNL     1     -10.500   5.803  69.573  1.00  0.00    -0.235 OA 
HETATM    8  O   UNL     1      -8.863   4.006  69.756  1.00  0.00    -0.078 OA 
HETATM    9  O   UNL     1      -8.182   6.405  70.211  1.00  0.00    -0.121 OA 
ENDBRANCH   2   5
TORSDOF 1
ENDMDL
MODEL      224
REMARK 921   NORMALIZED FREE ENERGY PREDICTED BY IDOCK:   -0.75 KCAL/MOL
REMARK 922        TOTAL FREE ENERGY PREDICTED BY IDOCK:   -1.02 KCAL/MOL
REMARK 923 INTER-LIGAND FREE ENERGY PREDICTED BY IDOCK:   -0.82 KCAL/MOL
REMARK 924 INTRA-LIGAND FREE ENERGY PREDICTED BY IDOCK:   -0.19 KCAL/MOL
REMARK 927      BINDING AFFINITY PREDICTED BY RF-SCORE:    0.00 PKD
ROOT
HETATM    1  N   UNL     1      -9.461   2.398  72.169  1.00  0.00    -0.098 NA 
HETATM    2  C   UNL     1      -8.692   3.644  72.157  1.00  0.00    -0.092 C  
HETATM    3  H1  UNL     1      -8.915   1.639  72.578  1.00  0.00     0.000 HD 
HETATM    4  H2  UNL     1      -9.804   2.158  71.240  1.00  0.00     0.000 HD 
ENDROOT
BRANCH   2   5
HETATM    5  C   UNL     1      -9.503   4.775  71.548  1.00  0.00    -0.153 C  
HETATM    6  S   UNL     1      -9.284   4.797  69.777  1.00  0.00    -0.134 S  
HETATM    7  O   UNL     1     -10.230   6.066  69.454  1.00  0.00    -0.179 OA 
HETATM    8  O   UNL     1      -7.942   5.223  69.452  1.00  0.00    -0.086 OA 
HETATM    9  O   UNL     1      -9.893   3.625  69.193  1.00  0.00    -0.082 OA 
ENDBRANCH   2   5
TORSDOF 1
ENDMDL
MODEL      225
REMARK 921   NORMALIZED FREE ENERGY PREDICTED BY IDOCK:   -0.75 KCAL/MOL
REMARK 922        TOTAL FREE ENERGY PREDICTED BY IDOCK:   -1.02 KCAL/MOL
REMARK 923 INTER-LIGAND FREE ENERGY PREDICTED BY IDOCK:   -1.01 KCAL/MOL
REMARK 924 INTRA-LIGAND FREE ENERGY PREDICTED BY IDOCK:   -0.01 KCAL/MOL
REMARK 927      BINDING AFFINITY PREDICTED BY RF-SCORE:    0.00 PKD
ROOT
HETATM    1  N   UNL     1      -8.760   5.518  63.485  1.00  0.00    -0.338 NA 
HETATM    2  C   UNL     1      -8.535   5.297  64.915  1.00  0.00    -0.150 C  
HETATM    3  H1  UNL     1      -8.972   6.499  63.299  1.00  0.00     0.000 HD 
HETATM    4  H2  UNL     1      -9.483   4.900  63.117  1.00  0.00     0.000 HD 
ENDROOT
BRANCH   2   5
HETATM    5  C   UNL     1      -8.220   3.836  65.193  1.00  0.00    -0.097 C  
HETATM    6  S   UNL     1      -8.234   3.535  66.952  1.00  0.00    -0.096 S  
HETATM    7  O   UNL     1      -7.869   1.961  66.908  1.00  0.00    -0.065 OA 
HETATM    8  O   UNL     1      -7.098   4.178  67.571  1.00  0.00    -0.061 OA 
HETATM    9  O   UNL     1      -9.579   3.668  67.461  1.00  0.00    -0.202 OA 
ENDBRANCH   2   5
TORSDOF 1
ENDMDL
MODEL      226
REMARK 921   NORMALIZED FREE ENERGY PREDICTED BY IDOCK:   -0.72 KCAL/MOL
REMARK 922        TOTAL FREE ENERGY PREDICTED BY IDOCK:   -0.99 KCAL/MOL
REMARK 923 INTER-LIGAND FREE ENERGY PREDICTED BY IDOCK:   -0.97 KCAL/MOL
REMARK 924 INTRA-LIGAND FREE ENERGY PREDICTED BY IDOCK:   -0.02 KCAL/MOL
REMARK 927      BINDING AFFINITY PREDICTED BY RF-SCORE:    0.00 PKD
ROOT
HETATM    1  N   UNL     1      -6.325   5.538  67.742  1.00  0.00    -0.041 NA 
HETATM    2  C   UNL     1      -7.000   4.881  66.621  1.00  0.00    -0.067 C  
HETATM    3  H1  UNL     1      -5.358   5.224  67.818  1.00  0.00     0.000 HD 
HETATM    4  H2  UNL     1      -6.833   5.409  68.616  1.00  0.00     0.000 HD 
ENDROOT
BRANCH   2   5
HETATM    5  C   UNL     1      -8.441   5.348  66.508  1.00  0.00    -0.113 C  
HETATM    6  S   UNL     1      -9.511   3.954  66.195  1.00  0.00    -0.176 S  
HETATM    7  O   UNL     1     -10.908   4.761  66.121  1.00  0.00    -0.258 OA 
HETATM    8  O   UNL     1      -9.285   3.450  64.860  1.00  0.00    -0.133 OA 
HETATM    9  O   UNL     1      -9.550   3.096  67.356  1.00  0.00    -0.185 OA 
ENDBRANCH   2   5
TORSDOF 1
ENDMDL
MODEL      227
REMARK 921   NORMALIZED FREE ENERGY PREDICTED BY IDOCK:   -0.71 KCAL/MOL
REMARK 922        TOTAL FREE ENERGY PREDICTED BY IDOCK:   -0.98 KCAL/MOL
REMARK 923 INTER-LIGAND FREE ENERGY PREDICTED BY IDOCK:   -0.96 KCAL/MOL
REMARK 924 INTRA-LIGAND FREE ENERGY PREDICTED BY IDOCK:   -0.02 KCAL/MOL
REMARK 927      BINDING AFFINITY PREDICTED BY RF-SCORE:    0.00 PKD
ROOT
HETATM    1  N   UNL     1     -10.980   7.250  69.902  1.00  0.00    -0.295 NA 
HETATM    2  C   UNL     1     -10.365   6.407  68.874  1.00  0.00    -0.201 C  
HETATM    3  H1  UNL     1     -11.734   6.753  70.375  1.00  0.00     0.000 HD 
HETATM    4  H2  UNL     1     -11.298   8.140  69.519  1.00  0.00     0.000 HD 
ENDROOT
BRANCH   2   5
HETATM    5  C   UNL     1      -9.242   7.148  68.168  1.00  0.00    -0.131 C  
HETATM    6  S   UNL     1      -7.735   6.193  68.253  1.00  0.00    -0.104 S  
HETATM    7  O   UNL     1      -6.779   7.221  67.453  1.00  0.00    -0.063 OA 
HETATM    8  O   UNL     1      -7.238   6.179  69.609  1.00  0.00    -0.070 OA 
HETATM    9  O   UNL     1      -7.869   4.995  67.458  1.00  0.00    -0.094 OA 
ENDBRANCH   2   5
TORSDOF 1
ENDMDL
MODEL      228
REMARK 921   NORMALIZED FREE ENERGY PREDICTED BY IDOCK:   -0.71 KCAL/MOL
REMARK 922        TOTAL FREE ENERGY PREDICTED BY IDOCK:   -0.98 KCAL/MOL
REMARK 923 INTER-LIGAND FREE ENERGY PREDICTED BY IDOCK:   -0.88 KCAL/MOL
REMARK 924 INTRA-LIGAND FREE ENERGY PREDICTED BY IDOCK:   -0.10 KCAL/MOL
REMARK 927      BINDING AFFINITY PREDICTED BY RF-SCORE:    0.00 PKD
ROOT
HETATM    1  N   UNL     1      -8.693   5.738  64.311  1.00  0.00    -0.350 NA 
HETATM    2  C   UNL     1      -9.129   4.983  65.488  1.00  0.00    -0.158 C  
HETATM    3  H1  UNL     1      -8.886   5.218  63.455  1.00  0.00     0.000 HD 
HETATM    4  H2  UNL     1      -7.712   6.005  64.377  1.00  0.00     0.000 HD 
ENDROOT
BRANCH   2   5
HETATM    5  C   UNL     1      -8.842   5.756  66.764  1.00  0.00    -0.117 C  
HETATM    6  S   UNL     1      -7.227   6.509  66.669  1.00  0.00    -0.074 S  
HETATM    7  O   UNL     1      -7.228   7.215  68.123  1.00  0.00    -0.088 OA 
HETATM    8  O   UNL     1      -6.204   5.491  66.734  1.00  0.00    -0.032 OA 
HETATM    9  O   UNL     1      -7.230   7.549  65.667  1.00  0.00    -0.063 OA 
ENDBRANCH   2   5
TORSDOF 1
ENDMDL
MODEL      229
REMARK 921   NORMALIZED FREE ENERGY PREDICTED BY IDOCK:   -0.64 KCAL/MOL
REMARK 922        TOTAL FREE ENERGY PREDICTED BY IDOCK:   -0.90 KCAL/MOL
REMARK 923 INTER-LIGAND FREE ENERGY PREDICTED BY IDOCK:   -0.89 KCAL/MOL
REMARK 924 INTRA-LIGAND FREE ENERGY PREDICTED BY IDOCK:   -0.01 KCAL/MOL
REMARK 927      BINDING AFFINITY PREDICTED BY RF-SCORE:    0.00 PKD
ROOT
HETATM    1  N   UNL     1      -6.642  11.543  70.475  1.00  0.00    -0.473 NA 
HETATM    2  C   UNL     1      -6.014  10.432  69.757  1.00  0.00    -0.053 C  
HETATM    3  H1  UNL     1      -5.988  12.317  70.589  1.00  0.00     0.000 HD 
HETATM    4  H2  UNL     1      -7.030  11.243  71.368  1.00  0.00     0.000 HD 
ENDROOT
BRANCH   2   5
HETATM    5  C   UNL     1      -6.988   9.277  69.587  1.00  0.00    -0.056 C  
HETATM    6  S   UNL     1      -6.825   8.579  67.953  1.00  0.00    -0.067 S  
HETATM    7  O   UNL     1      -7.956   7.433  68.091  1.00  0.00    -0.119 OA 
HETATM    8  O   UNL     1      -7.333   9.507  66.969  1.00  0.00    -0.087 OA 
HETATM    9  O   UNL     1      -5.542   7.929  67.823  1.00  0.00    -0.034 OA 
ENDBRANCH   2   5
TORSDOF 1
ENDMDL
MODEL      230
REMARK 921   NORMALIZED FREE ENERGY PREDICTED BY IDOCK:    1.49 KCAL/MOL
REMARK 922        TOTAL FREE ENERGY PREDICTED BY IDOCK:    1.35 KCAL/MOL
REMARK 923 INTER-LIGAND FREE ENERGY PREDICTED BY IDOCK:    1.39 KCAL/MOL
REMARK 924 INTRA-LIGAND FREE ENERGY PREDICTED BY IDOCK:   -0.04 KCAL/MOL
REMARK 927      BINDING AFFINITY PREDICTED BY RF-SCORE:    0.00 PKD
ROOT
HETATM    1  N   UNL     1     -13.897  12.750  72.827  1.00  0.00    -0.655 NA 
HETATM    2  C   UNL     1     -13.699  12.407  71.418  1.00  0.00     0.727 C  
HETATM    3  H1  UNL     1     -13.735  11.939  73.424  1.00  0.00     0.000 HD 
HETATM    4  H2  UNL     1     -14.816  13.160  72.990  1.00  0.00     0.000 HD 
ENDROOT
BRANCH   2   5
HETATM    5  C   UNL     1     -13.940  13.615  70.528  1.00  0.00     1.606 C  
HETATM    6  S   UNL     1     -12.382  14.259  69.940  1.00  0.00    -0.274 S  
HETATM    7  O   UNL     1     -12.967  15.488  69.070  1.00  0.00     0.563 OA 
HETATM    8  O   UNL     1     -11.658  14.868  71.032  1.00  0.00    -0.299 OA 
HETATM    9  O   UNL     1     -11.774  13.316  69.030  1.00  0.00    -0.281 OA 
ENDBRANCH   2   5
TORSDOF 1
ENDMDL
