MODEL        1
REMARK 921   NORMALIZED FREE ENERGY PREDICTED BY IDOCK:   -5.68 KCAL/MOL
REMARK 922        TOTAL FREE ENERGY PREDICTED BY IDOCK:   -6.76 KCAL/MOL
REMARK 923 INTER-LIGAND FREE ENERGY PREDICTED BY IDOCK:   -6.35 KCAL/MOL
REMARK 924 INTRA-LIGAND FREE ENERGY PREDICTED BY IDOCK:   -0.41 KCAL/MOL
REMARK 927      BINDING AFFINITY PREDICTED BY RF-SCORE:    0.00 PKD
ROOT
HETATM    1  O   UNL     1     -11.401  12.064  64.325  1.00  0.00    -0.330 OA 
HETATM    2  S   UNL     1     -11.891  13.419  64.413  1.00  0.00    -0.429 S  
HETATM    3  C   UNL     1     -12.759  13.644  65.945  1.00  0.00    -0.372 C  
HETATM    4  O   UNL     1     -12.650  14.016  63.334  1.00  0.00    -0.845 OA 
HETATM    5  C   UNL     1     -11.794  13.461  67.104  1.00  0.00    -0.382 C  
HETATM    6  N   UNL     1     -10.604  14.332  67.098  1.00  0.00    -0.277 NA 
HETATM    7  N   UNL     1     -10.555  14.412  64.667  1.00  0.00    -0.588 N  
HETATM    8  C   UNL     1      -9.820  14.107  65.888  1.00  0.00    -0.289 C  
HETATM    9  H   UNL     1     -10.286  15.158  64.026  1.00  0.00     0.000 HD 
ENDROOT
BRANCH   6  10
HETATM   10  C   UNL     1     -10.887  15.756  67.292  1.00  0.00    -0.298 C  
BRANCH  10  11
HETATM   11  N   UNL     1      -9.822  16.583  66.734  1.00  0.00    -0.255 NA 
HETATM   12  C   UNL     1     -10.245  17.841  66.106  1.00  0.00    -0.339 C  
HETATM   13  C   UNL     1     -10.640  18.988  67.025  1.00  0.00    -0.461 C  
HETATM   14  S   UNL     1      -9.431  19.244  68.302  1.00  0.00    -0.381 S  
HETATM   15  O   UNL     1     -10.090  19.845  69.442  1.00  0.00    -0.357 OA 
HETATM   16  N   UNL     1      -9.084  17.676  68.746  1.00  0.00    -0.247 N  
HETATM   17  O   UNL     1      -8.241  19.822  67.718  1.00  0.00    -0.294 OA 
HETATM   18  H   UNL     1      -9.123  17.361  69.716  1.00  0.00     0.000 HD 
HETATM   19  C   UNL     1      -8.724  16.797  67.661  1.00  0.00    -0.204 C  
ENDBRANCH  10  11
ENDBRANCH   6  10
TORSDOF 2
ENDMDL
MODEL        2
REMARK 921   NORMALIZED FREE ENERGY PREDICTED BY IDOCK:   -5.60 KCAL/MOL
REMARK 922        TOTAL FREE ENERGY PREDICTED BY IDOCK:   -6.67 KCAL/MOL
REMARK 923 INTER-LIGAND FREE ENERGY PREDICTED BY IDOCK:   -6.21 KCAL/MOL
REMARK 924 INTRA-LIGAND FREE ENERGY PREDICTED BY IDOCK:   -0.46 KCAL/MOL
REMARK 927      BINDING AFFINITY PREDICTED BY RF-SCORE:    0.00 PKD
ROOT
HETATM    1  O   UNL     1      -8.319  19.896  67.834  1.00  0.00    -0.301 OA 
HETATM    2  S   UNL     1      -9.588  19.357  68.263  1.00  0.00    -0.402 S  
HETATM    3  C   UNL     1     -10.617  19.052  66.850  1.00  0.00    -0.436 C  
HETATM    4  O   UNL     1     -10.367  20.001  69.300  1.00  0.00    -0.310 OA 
HETATM    5  C   UNL     1      -9.974  17.990  65.975  1.00  0.00    -0.216 C  
HETATM    6  N   UNL     1      -9.675  16.704  66.635  1.00  0.00    -0.253 NA 
HETATM    7  N   UNL     1      -9.305  17.781  68.784  1.00  0.00    -0.264 N  
HETATM    8  C   UNL     1      -8.758  16.910  67.751  1.00  0.00    -0.212 C  
HETATM    9  H   UNL     1      -9.498  17.465  69.734  1.00  0.00     0.000 HD 
ENDROOT
BRANCH   6  10
HETATM   10  C   UNL     1     -10.855  15.940  67.048  1.00  0.00    -0.252 C  
BRANCH  10  11
HETATM   11  N   UNL     1     -10.623  14.506  66.916  1.00  0.00    -0.276 NA 
HETATM   12  C   UNL     1     -11.811  13.649  67.016  1.00  0.00    -0.408 C  
HETATM   13  C   UNL     1     -12.744  13.598  65.815  1.00  0.00    -0.416 C  
HETATM   14  S   UNL     1     -11.847  13.333  64.304  1.00  0.00    -0.441 S  
HETATM   15  O   UNL     1     -12.612  13.896  63.213  1.00  0.00    -0.824 OA 
HETATM   16  N   UNL     1     -10.539  14.344  64.517  1.00  0.00    -0.597 N  
HETATM   17  O   UNL     1     -11.364  11.971  64.273  1.00  0.00    -0.330 OA 
HETATM   18  H   UNL     1     -10.267  15.040  63.822  1.00  0.00     0.000 HD 
HETATM   19  C   UNL     1      -9.820  14.165  65.754  1.00  0.00    -0.271 C  
ENDBRANCH  10  11
ENDBRANCH   6  10
TORSDOF 2
ENDMDL
MODEL        3
REMARK 921   NORMALIZED FREE ENERGY PREDICTED BY IDOCK:   -5.57 KCAL/MOL
REMARK 922        TOTAL FREE ENERGY PREDICTED BY IDOCK:   -6.63 KCAL/MOL
REMARK 923 INTER-LIGAND FREE ENERGY PREDICTED BY IDOCK:   -6.33 KCAL/MOL
REMARK 924 INTRA-LIGAND FREE ENERGY PREDICTED BY IDOCK:   -0.30 KCAL/MOL
REMARK 927      BINDING AFFINITY PREDICTED BY RF-SCORE:    0.00 PKD
ROOT
HETATM    1  O   UNL     1     -10.998  12.604  63.207  1.00  0.00    -0.386 OA 
HETATM    2  S   UNL     1     -11.979  12.632  64.267  1.00  0.00    -0.443 S  
HETATM    3  C   UNL     1     -11.238  12.082  65.783  1.00  0.00    -0.334 C  
HETATM    4  O   UNL     1     -13.276  12.008  64.107  1.00  0.00    -0.712 OA 
HETATM    5  C   UNL     1     -10.140  13.049  66.189  1.00  0.00    -0.285 C  
HETATM    6  N   UNL     1     -10.545  14.460  66.340  1.00  0.00    -0.292 NA 
HETATM    7  N   UNL     1     -12.265  14.250  64.633  1.00  0.00    -0.494 N  
HETATM    8  C   UNL     1     -11.079  14.969  65.082  1.00  0.00    -0.401 C  
HETATM    9  H   UNL     1     -13.183  14.686  64.549  1.00  0.00     0.000 HD 
ENDROOT
BRANCH   6  10
HETATM   10  C   UNL     1     -11.464  14.716  67.452  1.00  0.00    -0.369 C  
BRANCH  10  11
HETATM   11  N   UNL     1     -10.872  14.315  68.724  1.00  0.00    -0.246 NA 
HETATM   12  C   UNL     1     -10.422  15.406  69.598  1.00  0.00    -0.280 C  
HETATM   13  C   UNL     1     -11.489  16.186  70.353  1.00  0.00    -0.328 C  
HETATM   14  S   UNL     1     -12.639  15.100  71.164  1.00  0.00    -0.407 S  
HETATM   15  O   UNL     1     -13.900  15.796  71.308  1.00  0.00    -0.547 OA 
HETATM   16  N   UNL     1     -12.884  13.944  69.989  1.00  0.00    -0.248 N  
HETATM   17  O   UNL     1     -11.983  14.471  72.288  1.00  0.00    -0.228 OA 
HETATM   18  H   UNL     1     -13.816  13.674  69.674  1.00  0.00     0.000 HD 
HETATM   19  C   UNL     1     -11.684  13.354  69.450  1.00  0.00    -0.325 C  
ENDBRANCH  10  11
ENDBRANCH   6  10
TORSDOF 2
ENDMDL
MODEL        4
REMARK 921   NORMALIZED FREE ENERGY PREDICTED BY IDOCK:   -5.54 KCAL/MOL
REMARK 922        TOTAL FREE ENERGY PREDICTED BY IDOCK:   -6.59 KCAL/MOL
REMARK 923 INTER-LIGAND FREE ENERGY PREDICTED BY IDOCK:   -6.28 KCAL/MOL
REMARK 924 INTRA-LIGAND FREE ENERGY PREDICTED BY IDOCK:   -0.31 KCAL/MOL
REMARK 927      BINDING AFFINITY PREDICTED BY RF-SCORE:    0.00 PKD
ROOT
HETATM    1  O   UNL     1      -8.087  20.354  67.675  1.00  0.00    -0.301 OA 
HETATM    2  S   UNL     1      -8.174  19.520  66.499  1.00  0.00    -0.332 S  
HETATM    3  C   UNL     1      -7.858  17.830  66.939  1.00  0.00    -0.224 C  
HETATM    4  O   UNL     1      -7.450  19.850  65.289  1.00  0.00    -0.360 OA 
HETATM    5  C   UNL     1      -8.939  17.344  67.889  1.00  0.00    -0.251 C  
HETATM    6  N   UNL     1     -10.326  17.459  67.402  1.00  0.00    -0.334 NA 
HETATM    7  N   UNL     1      -9.801  19.430  66.076  1.00  0.00    -0.360 N  
HETATM    8  C   UNL     1     -10.646  18.853  67.114  1.00  0.00    -0.458 C  
HETATM    9  H   UNL     1     -10.161  19.748  65.177  1.00  0.00     0.000 HD 
ENDROOT
BRANCH   6  10
HETATM   10  C   UNL     1     -10.650  16.593  66.266  1.00  0.00    -0.205 C  
BRANCH  10  11
HETATM   11  N   UNL     1     -10.629  15.187  66.657  1.00  0.00    -0.298 NA 
HETATM   12  C   UNL     1     -11.937  14.561  66.885  1.00  0.00    -0.346 C  
HETATM   13  C   UNL     1     -12.765  14.198  65.660  1.00  0.00    -0.441 C  
HETATM   14  S   UNL     1     -11.797  13.319  64.457  1.00  0.00    -0.409 S  
HETATM   15  O   UNL     1     -12.376  13.545  63.151  1.00  0.00    -0.712 OA 
HETATM   16  N   UNL     1     -10.373  14.184  64.485  1.00  0.00    -0.620 N  
HETATM   17  O   UNL     1     -11.526  11.987  64.950  1.00  0.00    -0.324 OA 
HETATM   18  H   UNL     1      -9.942  14.555  63.638  1.00  0.00     0.000 HD 
HETATM   19  C   UNL     1      -9.794  14.370  65.792  1.00  0.00    -0.302 C  
ENDBRANCH  10  11
ENDBRANCH   6  10
TORSDOF 2
ENDMDL
MODEL        5
REMARK 921   NORMALIZED FREE ENERGY PREDICTED BY IDOCK:   -5.52 KCAL/MOL
REMARK 922        TOTAL FREE ENERGY PREDICTED BY IDOCK:   -6.58 KCAL/MOL
REMARK 923 INTER-LIGAND FREE ENERGY PREDICTED BY IDOCK:   -6.28 KCAL/MOL
REMARK 924 INTRA-LIGAND FREE ENERGY PREDICTED BY IDOCK:   -0.30 KCAL/MOL
REMARK 927      BINDING AFFINITY PREDICTED BY RF-SCORE:    0.00 PKD
ROOT
HETATM    1  O   UNL     1     -11.525  11.831  64.950  1.00  0.00    -0.287 OA 
HETATM    2  S   UNL     1     -11.841  13.154  64.466  1.00  0.00    -0.402 S  
HETATM    3  C   UNL     1     -12.765  14.037  65.698  1.00  0.00    -0.481 C  
HETATM    4  O   UNL     1     -12.450  13.354  63.168  1.00  0.00    -0.710 OA 
HETATM    5  C   UNL     1     -11.905  14.226  66.936  1.00  0.00    -0.433 C  
HETATM    6  N   UNL     1     -10.615  14.909  66.727  1.00  0.00    -0.298 NA 
HETATM    7  N   UNL     1     -10.407  14.036  64.466  1.00  0.00    -0.643 N  
HETATM    8  C   UNL     1      -9.793  14.160  65.782  1.00  0.00    -0.271 C  
HETATM    9  H   UNL     1     -10.006  14.446  63.623  1.00  0.00     0.000 HD 
ENDROOT
BRANCH   6  10
HETATM   10  C   UNL     1     -10.724  16.318  66.337  1.00  0.00    -0.182 C  
BRANCH  10  11
HETATM   11  N   UNL     1     -10.332  17.197  67.433  1.00  0.00    -0.326 NA 
HETATM   12  C   UNL     1      -8.953  17.048  67.918  1.00  0.00    -0.228 C  
HETATM   13  C   UNL     1      -7.840  17.636  67.061  1.00  0.00    -0.215 C  
HETATM   14  S   UNL     1      -8.208  19.304  66.572  1.00  0.00    -0.321 S  
HETATM   15  O   UNL     1      -7.512  19.581  65.334  1.00  0.00    -0.416 OA 
HETATM   16  N   UNL     1      -9.821  19.183  66.175  1.00  0.00    -0.369 N  
HETATM   17  O   UNL     1      -8.089  20.171  67.723  1.00  0.00    -0.298 OA 
HETATM   18  H   UNL     1     -10.190  19.504  65.280  1.00  0.00     0.000 HD 
HETATM   19  C   UNL     1     -10.660  18.591  67.188  1.00  0.00    -0.398 C  
ENDBRANCH  10  11
ENDBRANCH   6  10
TORSDOF 2
ENDMDL
MODEL        6
REMARK 921   NORMALIZED FREE ENERGY PREDICTED BY IDOCK:   -5.49 KCAL/MOL
REMARK 922        TOTAL FREE ENERGY PREDICTED BY IDOCK:   -6.55 KCAL/MOL
REMARK 923 INTER-LIGAND FREE ENERGY PREDICTED BY IDOCK:   -6.28 KCAL/MOL
REMARK 924 INTRA-LIGAND FREE ENERGY PREDICTED BY IDOCK:   -0.26 KCAL/MOL
REMARK 927      BINDING AFFINITY PREDICTED BY RF-SCORE:    0.00 PKD
ROOT
HETATM    1  O   UNL     1     -11.989  14.380  72.121  1.00  0.00    -0.192 OA 
HETATM    2  S   UNL     1     -12.664  15.086  71.057  1.00  0.00    -0.401 S  
HETATM    3  C   UNL     1     -11.525  16.181  70.249  1.00  0.00    -0.308 C  
HETATM    4  O   UNL     1     -13.917  15.775  71.288  1.00  0.00    -0.526 OA 
HETATM    5  C   UNL     1     -10.422  15.368  69.593  1.00  0.00    -0.280 C  
HETATM    6  N   UNL     1     -10.862  14.341  68.629  1.00  0.00    -0.246 NA 
HETATM    7  N   UNL     1     -12.947  13.972  69.827  1.00  0.00    -0.178 N  
HETATM    8  C   UNL     1     -11.733  13.373  69.287  1.00  0.00    -0.330 C  
HETATM    9  H   UNL     1     -13.881  13.739  69.491  1.00  0.00     0.000 HD 
ENDROOT
BRANCH   6  10
HETATM   10  C   UNL     1     -11.478  14.870  67.410  1.00  0.00    -0.343 C  
BRANCH  10  11
HETATM   11  N   UNL     1     -10.674  14.550  66.235  1.00  0.00    -0.303 NA 
HETATM   12  C   UNL     1     -10.239  13.153  66.113  1.00  0.00    -0.290 C  
HETATM   13  C   UNL     1     -11.275  12.131  65.669  1.00  0.00    -0.335 C  
HETATM   14  S   UNL     1     -12.168  12.688  64.237  1.00  0.00    -0.460 S  
HETATM   15  O   UNL     1     -13.469  12.055  64.234  1.00  0.00    -0.654 OA 
HETATM   16  N   UNL     1     -12.435  14.288  64.618  1.00  0.00    -0.631 N  
HETATM   17  O   UNL     1     -11.294  12.638  63.086  1.00  0.00    -0.397 OA 
HETATM   18  H   UNL     1     -13.364  14.710  64.586  1.00  0.00     0.000 HD 
HETATM   19  C   UNL     1     -11.261  15.033  64.997  1.00  0.00    -0.409 C  
ENDBRANCH  10  11
ENDBRANCH   6  10
TORSDOF 2
ENDMDL
MODEL        7
REMARK 921   NORMALIZED FREE ENERGY PREDICTED BY IDOCK:   -5.47 KCAL/MOL
REMARK 922        TOTAL FREE ENERGY PREDICTED BY IDOCK:   -6.51 KCAL/MOL
REMARK 923 INTER-LIGAND FREE ENERGY PREDICTED BY IDOCK:   -6.03 KCAL/MOL
REMARK 924 INTRA-LIGAND FREE ENERGY PREDICTED BY IDOCK:   -0.49 KCAL/MOL
REMARK 927      BINDING AFFINITY PREDICTED BY RF-SCORE:    0.00 PKD
ROOT
HETATM    1  O   UNL     1      -8.579  19.917  67.773  1.00  0.00    -0.314 OA 
HETATM    2  S   UNL     1      -8.344  18.858  66.820  1.00  0.00    -0.291 S  
HETATM    3  C   UNL     1      -7.649  17.451  67.649  1.00  0.00    -0.188 C  
HETATM    4  O   UNL     1      -7.621  19.101  65.589  1.00  0.00    -0.459 OA 
HETATM    5  C   UNL     1      -8.651  16.909  68.653  1.00  0.00    -0.267 C  
HETATM    6  N   UNL     1      -9.973  16.539  68.111  1.00  0.00    -0.242 NA 
HETATM    7  N   UNL     1      -9.849  18.244  66.381  1.00  0.00    -0.351 N  
HETATM    8  C   UNL     1     -10.610  17.700  67.499  1.00  0.00    -0.343 C  
HETATM    9  H   UNL     1     -10.195  18.253  65.422  1.00  0.00     0.000 HD 
ENDROOT
BRANCH   6  10
HETATM   10  C   UNL     1      -9.961  15.394  67.198  1.00  0.00    -0.234 C  
BRANCH  10  11
HETATM   11  N   UNL     1     -11.227  15.281  66.482  1.00  0.00    -0.281 NA 
HETATM   12  C   UNL     1     -11.131  15.096  65.029  1.00  0.00    -0.419 C  
HETATM   13  C   UNL     1     -10.733  13.718  64.520  1.00  0.00    -0.390 C  
HETATM   14  S   UNL     1     -11.682  12.435  65.303  1.00  0.00    -0.384 S  
HETATM   15  O   UNL     1     -10.902  11.217  65.290  1.00  0.00    -0.266 OA 
HETATM   16  N   UNL     1     -11.696  12.956  66.886  1.00  0.00    -0.366 N  
HETATM   17  O   UNL     1     -13.037  12.478  64.802  1.00  0.00    -0.853 OA 
HETATM   18  H   UNL     1     -11.414  12.355  67.661  1.00  0.00     0.000 HD 
HETATM   19  C   UNL     1     -12.133  14.316  67.081  1.00  0.00    -0.377 C  
ENDBRANCH  10  11
ENDBRANCH   6  10
TORSDOF 2
ENDMDL
MODEL        8
REMARK 921   NORMALIZED FREE ENERGY PREDICTED BY IDOCK:   -5.45 KCAL/MOL
REMARK 922        TOTAL FREE ENERGY PREDICTED BY IDOCK:   -6.49 KCAL/MOL
REMARK 923 INTER-LIGAND FREE ENERGY PREDICTED BY IDOCK:   -5.99 KCAL/MOL
REMARK 924 INTRA-LIGAND FREE ENERGY PREDICTED BY IDOCK:   -0.50 KCAL/MOL
REMARK 927      BINDING AFFINITY PREDICTED BY RF-SCORE:    0.00 PKD
ROOT
HETATM    1  O   UNL     1     -12.926  12.544  64.784  1.00  0.00    -0.827 OA 
HETATM    2  S   UNL     1     -11.556  12.465  65.235  1.00  0.00    -0.377 S  
HETATM    3  C   UNL     1     -10.604  13.762  64.487  1.00  0.00    -0.386 C  
HETATM    4  O   UNL     1     -10.815  11.222  65.173  1.00  0.00    -0.270 OA 
HETATM    5  C   UNL     1     -11.131  15.108  64.952  1.00  0.00    -0.414 C  
HETATM    6  N   UNL     1     -11.164  15.321  66.412  1.00  0.00    -0.279 NA 
HETATM    7  N   UNL     1     -11.537  12.957  66.845  1.00  0.00    -0.348 N  
HETATM    8  C   UNL     1     -12.012  14.319  67.048  1.00  0.00    -0.433 C  
HETATM    9  H   UNL     1     -11.222  12.356  67.607  1.00  0.00     0.000 HD 
ENDROOT
BRANCH   6  10
HETATM   10  C   UNL     1      -9.846  15.387  67.050  1.00  0.00    -0.232 C  
BRANCH  10  11
HETATM   11  N   UNL     1      -9.773  16.503  67.986  1.00  0.00    -0.233 NA 
HETATM   12  C   UNL     1      -8.432  16.843  68.480  1.00  0.00    -0.258 C  
HETATM   13  C   UNL     1      -7.503  17.589  67.532  1.00  0.00    -0.188 C  
HETATM   14  S   UNL     1      -8.318  18.978  66.781  1.00  0.00    -0.300 S  
HETATM   15  O   UNL     1      -7.682  19.248  65.510  1.00  0.00    -0.426 OA 
HETATM   16  N   UNL     1      -9.809  18.328  66.419  1.00  0.00    -0.351 N  
HETATM   17  O   UNL     1      -8.505  20.011  67.774  1.00  0.00    -0.307 OA 
HETATM   18  H   UNL     1     -10.217  18.382  65.485  1.00  0.00     0.000 HD 
HETATM   19  C   UNL     1     -10.481  17.683  67.519  1.00  0.00    -0.365 C  
ENDBRANCH  10  11
ENDBRANCH   6  10
TORSDOF 2
ENDMDL
MODEL        9
REMARK 921   NORMALIZED FREE ENERGY PREDICTED BY IDOCK:   -5.44 KCAL/MOL
REMARK 922        TOTAL FREE ENERGY PREDICTED BY IDOCK:   -6.48 KCAL/MOL
REMARK 923 INTER-LIGAND FREE ENERGY PREDICTED BY IDOCK:   -6.16 KCAL/MOL
REMARK 924 INTRA-LIGAND FREE ENERGY PREDICTED BY IDOCK:   -0.32 KCAL/MOL
REMARK 927      BINDING AFFINITY PREDICTED BY RF-SCORE:    0.00 PKD
ROOT
HETATM    1  O   UNL     1     -11.630  11.965  64.818  1.00  0.00    -0.307 OA 
HETATM    2  S   UNL     1     -11.882  13.327  64.408  1.00  0.00    -0.422 S  
HETATM    3  C   UNL     1     -12.767  14.183  65.686  1.00  0.00    -0.441 C  
HETATM    4  O   UNL     1     -12.477  13.626  63.122  1.00  0.00    -0.786 OA 
HETATM    5  C   UNL     1     -11.902  14.263  66.932  1.00  0.00    -0.433 C  
HETATM    6  N   UNL     1     -10.580  14.895  66.761  1.00  0.00    -0.298 NA 
HETATM    7  N   UNL     1     -10.408  14.138  64.456  1.00  0.00    -0.620 N  
HETATM    8  C   UNL     1      -9.793  14.160  65.777  1.00  0.00    -0.271 C  
HETATM    9  H   UNL     1      -9.985  14.574  63.637  1.00  0.00     0.000 HD 
ENDROOT
BRANCH   6  10
HETATM   10  C   UNL     1     -10.621  16.326  66.450  1.00  0.00    -0.253 C  
BRANCH  10  11
HETATM   11  N   UNL     1     -10.643  17.128  67.668  1.00  0.00    -0.356 NA 
HETATM   12  C   UNL     1      -9.755  16.682  68.749  1.00  0.00    -0.254 C  
HETATM   13  C   UNL     1      -8.267  16.968  68.600  1.00  0.00    -0.261 C  
HETATM   14  S   UNL     1      -7.973  18.659  68.138  1.00  0.00    -0.298 S  
HETATM   15  O   UNL     1      -6.716  18.726  67.426  1.00  0.00    -0.201 OA 
HETATM   16  N   UNL     1      -9.162  18.900  66.995  1.00  0.00    -0.296 N  
HETATM   17  O   UNL     1      -8.255  19.514  69.270  1.00  0.00    -0.248 OA 
HETATM   18  H   UNL     1      -8.960  19.267  66.065  1.00  0.00     0.000 HD 
HETATM   19  C   UNL     1     -10.497  18.551  67.415  1.00  0.00    -0.419 C  
ENDBRANCH  10  11
ENDBRANCH   6  10
TORSDOF 2
ENDMDL
MODEL       10
REMARK 921   NORMALIZED FREE ENERGY PREDICTED BY IDOCK:   -5.41 KCAL/MOL
REMARK 922        TOTAL FREE ENERGY PREDICTED BY IDOCK:   -6.45 KCAL/MOL
REMARK 923 INTER-LIGAND FREE ENERGY PREDICTED BY IDOCK:   -5.95 KCAL/MOL
REMARK 924 INTRA-LIGAND FREE ENERGY PREDICTED BY IDOCK:   -0.50 KCAL/MOL
REMARK 927      BINDING AFFINITY PREDICTED BY RF-SCORE:    0.00 PKD
ROOT
HETATM    1  O   UNL     1     -12.583  14.842  63.886  1.00  0.00    -0.834 OA 
HETATM    2  S   UNL     1     -11.418  14.982  64.727  1.00  0.00    -0.364 S  
HETATM    3  C   UNL     1     -11.801  14.448  66.376  1.00  0.00    -0.388 C  
HETATM    4  O   UNL     1     -10.674  16.223  64.781  1.00  0.00    -0.680 OA 
HETATM    5  C   UNL     1     -12.144  12.968  66.361  1.00  0.00    -0.358 C  
HETATM    6  N   UNL     1     -11.117  12.072  65.796  1.00  0.00    -0.314 NA 
HETATM    7  N   UNL     1     -10.327  13.787  64.262  1.00  0.00    -0.617 N  
HETATM    8  C   UNL     1     -10.842  12.432  64.408  1.00  0.00    -0.337 C  
HETATM    9  H   UNL     1      -9.392  13.993  63.911  1.00  0.00     0.000 HD 
ENDROOT
BRANCH   6  10
HETATM   10  C   UNL     1      -9.882  11.987  66.579  1.00  0.00    -0.209 C  
BRANCH  10  11
HETATM   11  N   UNL     1      -9.481  10.598  66.777  1.00  0.00    -0.160 NA 
HETATM   12  C   UNL     1      -8.479  10.359  67.823  1.00  0.00    -0.114 C  
HETATM   13  C   UNL     1      -8.946  10.420  69.271  1.00  0.00    -0.163 C  
HETATM   14  S   UNL     1     -10.423   9.463  69.519  1.00  0.00    -0.225 S  
HETATM   15  O   UNL     1     -11.144  10.021  70.642  1.00  0.00    -0.298 OA 
HETATM   16  N   UNL     1     -11.305   9.861  68.163  1.00  0.00    -0.531 N  
HETATM   17  O   UNL     1     -10.093   8.057  69.447  1.00  0.00    -0.187 OA 
HETATM   18  H   UNL     1     -12.266  10.199  68.215  1.00  0.00     0.000 HD 
HETATM   19  C   UNL     1     -10.612   9.695  66.909  1.00  0.00    -0.171 C  
ENDBRANCH  10  11
ENDBRANCH   6  10
TORSDOF 2
ENDMDL
MODEL       11
REMARK 921   NORMALIZED FREE ENERGY PREDICTED BY IDOCK:   -5.40 KCAL/MOL
REMARK 922        TOTAL FREE ENERGY PREDICTED BY IDOCK:   -6.44 KCAL/MOL
REMARK 923 INTER-LIGAND FREE ENERGY PREDICTED BY IDOCK:   -6.16 KCAL/MOL
REMARK 924 INTRA-LIGAND FREE ENERGY PREDICTED BY IDOCK:   -0.28 KCAL/MOL
REMARK 927      BINDING AFFINITY PREDICTED BY RF-SCORE:    0.00 PKD
ROOT
HETATM    1  O   UNL     1     -12.032  11.842  64.559  1.00  0.00    -0.287 OA 
HETATM    2  S   UNL     1     -12.056  13.268  64.326  1.00  0.00    -0.417 S  
HETATM    3  C   UNL     1     -12.781  14.091  65.721  1.00  0.00    -0.450 C  
HETATM    4  O   UNL     1     -12.597  13.820  63.101  1.00  0.00    -0.793 OA 
HETATM    5  C   UNL     1     -11.910  13.871  66.946  1.00  0.00    -0.423 C  
HETATM    6  N   UNL     1     -10.502  14.293  66.822  1.00  0.00    -0.272 NA 
HETATM    7  N   UNL     1     -10.467  13.813  64.438  1.00  0.00    -0.609 N  
HETATM    8  C   UNL     1      -9.852  13.567  65.736  1.00  0.00    -0.201 C  
HETATM    9  H   UNL     1      -9.981  14.273  63.668  1.00  0.00     0.000 HD 
ENDROOT
BRANCH   6  10
HETATM   10  C   UNL     1     -10.306  15.739  66.690  1.00  0.00    -0.291 C  
BRANCH  10  11
HETATM   11  N   UNL     1      -9.338  16.228  67.665  1.00  0.00    -0.217 NA 
HETATM   12  C   UNL     1      -8.141  16.878  67.116  1.00  0.00    -0.188 C  
HETATM   13  C   UNL     1      -8.296  18.292  66.575  1.00  0.00    -0.266 C  
HETATM   14  S   UNL     1      -9.165  19.336  67.722  1.00  0.00    -0.318 S  
HETATM   15  O   UNL     1      -9.815  20.391  66.976  1.00  0.00    -0.439 OA 
HETATM   16  N   UNL     1     -10.382  18.319  68.235  1.00  0.00    -0.372 N  
HETATM   17  O   UNL     1      -8.306  19.617  68.850  1.00  0.00    -0.322 OA 
HETATM   18  H   UNL     1     -11.366  18.588  68.211  1.00  0.00     0.000 HD 
HETATM   19  C   UNL     1      -9.944  17.031  68.713  1.00  0.00    -0.293 C  
ENDBRANCH  10  11
ENDBRANCH   6  10
TORSDOF 2
ENDMDL
MODEL       12
REMARK 921   NORMALIZED FREE ENERGY PREDICTED BY IDOCK:   -5.39 KCAL/MOL
REMARK 922        TOTAL FREE ENERGY PREDICTED BY IDOCK:   -6.43 KCAL/MOL
REMARK 923 INTER-LIGAND FREE ENERGY PREDICTED BY IDOCK:   -5.96 KCAL/MOL
REMARK 924 INTRA-LIGAND FREE ENERGY PREDICTED BY IDOCK:   -0.47 KCAL/MOL
REMARK 927      BINDING AFFINITY PREDICTED BY RF-SCORE:    0.00 PKD
ROOT
HETATM    1  O   UNL     1     -10.012   8.080  69.626  1.00  0.00    -0.182 OA 
HETATM    2  S   UNL     1     -10.321   9.489  69.706  1.00  0.00    -0.248 S  
HETATM    3  C   UNL     1      -8.862  10.442  69.372  1.00  0.00    -0.123 C  
HETATM    4  O   UNL     1     -11.009  10.044  70.853  1.00  0.00    -0.327 OA 
HETATM    5  C   UNL     1      -8.405  10.183  67.946  1.00  0.00    -0.117 C  
HETATM    6  N   UNL     1      -9.401  10.448  66.891  1.00  0.00    -0.160 NA 
HETATM    7  N   UNL     1     -11.253   9.868  68.356  1.00  0.00    -0.505 N  
HETATM    8  C   UNL     1     -10.581   9.613  67.089  1.00  0.00    -0.228 C  
HETATM    9  H   UNL     1     -12.200  10.241  68.421  1.00  0.00     0.000 HD 
ENDROOT
BRANCH   6  10
HETATM   10  C   UNL     1      -9.766  11.858  66.735  1.00  0.00    -0.204 C  
BRANCH  10  11
HETATM   11  N   UNL     1     -10.977  12.001  65.934  1.00  0.00    -0.288 NA 
HETATM   12  C   UNL     1     -12.029  12.854  66.502  1.00  0.00    -0.377 C  
HETATM   13  C   UNL     1     -11.822  14.361  66.438  1.00  0.00    -0.388 C  
HETATM   14  S   UNL     1     -11.334  14.883  64.811  1.00  0.00    -0.376 S  
HETATM   15  O   UNL     1     -10.576  16.109  64.933  1.00  0.00    -0.622 OA 
HETATM   16  N   UNL     1     -10.233  13.701  64.402  1.00  0.00    -0.682 N  
HETATM   17  O   UNL     1     -12.467  14.773  63.920  1.00  0.00    -0.811 OA 
HETATM   18  H   UNL     1      -9.293  13.920  64.073  1.00  0.00     0.000 HD 
HETATM   19  C   UNL     1     -10.704  12.346  64.549  1.00  0.00    -0.321 C  
ENDBRANCH  10  11
ENDBRANCH   6  10
TORSDOF 2
ENDMDL
MODEL       13
REMARK 921   NORMALIZED FREE ENERGY PREDICTED BY IDOCK:   -5.33 KCAL/MOL
REMARK 922        TOTAL FREE ENERGY PREDICTED BY IDOCK:   -6.36 KCAL/MOL
REMARK 923 INTER-LIGAND FREE ENERGY PREDICTED BY IDOCK:   -6.09 KCAL/MOL
REMARK 924 INTRA-LIGAND FREE ENERGY PREDICTED BY IDOCK:   -0.28 KCAL/MOL
REMARK 927      BINDING AFFINITY PREDICTED BY RF-SCORE:    0.00 PKD
ROOT
HETATM    1  O   UNL     1      -8.774  19.525  69.031  1.00  0.00    -0.339 OA 
HETATM    2  S   UNL     1      -9.492  19.267  67.805  1.00  0.00    -0.330 S  
HETATM    3  C   UNL     1      -8.539  18.187  66.768  1.00  0.00    -0.259 C  
HETATM    4  O   UNL     1     -10.034  20.349  67.010  1.00  0.00    -0.450 OA 
HETATM    5  C   UNL     1      -8.369  16.844  67.457  1.00  0.00    -0.189 C  
HETATM    6  N   UNL     1      -9.615  16.156  67.845  1.00  0.00    -0.222 NA 
HETATM    7  N   UNL     1     -10.785  18.260  68.192  1.00  0.00    -0.288 N  
HETATM    8  C   UNL     1     -10.383  16.984  68.770  1.00  0.00    -0.336 C  
HETATM    9  H   UNL     1     -11.759  18.520  68.037  1.00  0.00     0.000 HD 
ENDROOT
BRANCH   6  10
HETATM   10  C   UNL     1     -10.441  15.706  66.721  1.00  0.00    -0.297 C  
BRANCH  10  11
HETATM   11  N   UNL     1     -10.596  14.255  66.733  1.00  0.00    -0.276 NA 
HETATM   12  C   UNL     1     -11.973  13.755  66.825  1.00  0.00    -0.426 C  
HETATM   13  C   UNL     1     -12.833  13.826  65.571  1.00  0.00    -0.419 C  
HETATM   14  S   UNL     1     -11.973  13.181  64.155  1.00  0.00    -0.459 S  
HETATM   15  O   UNL     1     -12.512  13.809  62.969  1.00  0.00    -0.712 OA 
HETATM   16  N   UNL     1     -10.454  13.830  64.369  1.00  0.00    -0.609 N  
HETATM   17  O   UNL     1     -11.872  11.744  64.278  1.00  0.00    -0.301 OA 
HETATM   18  H   UNL     1      -9.975  14.355  63.637  1.00  0.00     0.000 HD 
HETATM   19  C   UNL     1      -9.864  13.598  65.664  1.00  0.00    -0.175 C  
ENDBRANCH  10  11
ENDBRANCH   6  10
TORSDOF 2
ENDMDL
MODEL       14
REMARK 921   NORMALIZED FREE ENERGY PREDICTED BY IDOCK:   -5.15 KCAL/MOL
REMARK 922        TOTAL FREE ENERGY PREDICTED BY IDOCK:   -6.16 KCAL/MOL
REMARK 923 INTER-LIGAND FREE ENERGY PREDICTED BY IDOCK:   -5.88 KCAL/MOL
REMARK 924 INTRA-LIGAND FREE ENERGY PREDICTED BY IDOCK:   -0.28 KCAL/MOL
REMARK 927      BINDING AFFINITY PREDICTED BY RF-SCORE:    0.00 PKD
ROOT
HETATM    1  O   UNL     1     -10.859   8.357  70.105  1.00  0.00    -0.239 OA 
HETATM    2  S   UNL     1      -9.927   9.414  69.788  1.00  0.00    -0.216 S  
HETATM    3  C   UNL     1      -9.617   9.435  68.041  1.00  0.00    -0.138 C  
HETATM    4  O   UNL     1      -8.675   9.551  70.504  1.00  0.00    -0.228 OA 
HETATM    5  C   UNL     1     -10.903   9.763  67.303  1.00  0.00    -0.177 C  
HETATM    6  N   UNL     1     -11.564  11.026  67.687  1.00  0.00    -0.562 NA 
HETATM    7  N   UNL     1     -10.749  10.871  69.973  1.00  0.00    -0.463 N  
HETATM    8  C   UNL     1     -11.911  11.004  69.104  1.00  0.00    -0.324 C  
HETATM    9  H   UNL     1     -10.461  11.593  70.633  1.00  0.00     0.000 HD 
ENDROOT
BRANCH   6  10
HETATM   10  C   UNL     1     -10.816  12.237  67.340  1.00  0.00    -0.239 C  
BRANCH  10  11
HETATM   11  N   UNL     1     -11.620  13.132  66.515  1.00  0.00    -0.339 NA 
HETATM   12  C   UNL     1     -12.035  14.391  67.146  1.00  0.00    -0.389 C  
HETATM   13  C   UNL     1     -10.985  15.484  67.289  1.00  0.00    -0.303 C  
HETATM   14  S   UNL     1     -10.108  15.748  65.766  1.00  0.00    -0.388 S  
HETATM   15  O   UNL     1      -8.797  16.275  66.079  1.00  0.00    -0.333 OA 
HETATM   16  N   UNL     1      -9.862  14.182  65.252  1.00  0.00    -0.579 N  
HETATM   17  O   UNL     1     -10.986  16.401  64.821  1.00  0.00    -0.664 OA 
HETATM   18  H   UNL     1      -8.941  13.829  64.993  1.00  0.00     0.000 HD 
HETATM   19  C   UNL     1     -11.047  13.361  65.200  1.00  0.00    -0.301 C  
ENDBRANCH  10  11
ENDBRANCH   6  10
TORSDOF 2
ENDMDL
MODEL       15
REMARK 921   NORMALIZED FREE ENERGY PREDICTED BY IDOCK:   -5.12 KCAL/MOL
REMARK 922        TOTAL FREE ENERGY PREDICTED BY IDOCK:   -6.13 KCAL/MOL
REMARK 923 INTER-LIGAND FREE ENERGY PREDICTED BY IDOCK:   -5.73 KCAL/MOL
REMARK 924 INTRA-LIGAND FREE ENERGY PREDICTED BY IDOCK:   -0.40 KCAL/MOL
REMARK 927      BINDING AFFINITY PREDICTED BY RF-SCORE:    0.00 PKD
ROOT
HETATM    1  O   UNL     1     -11.438   8.602  70.226  1.00  0.00    -0.205 OA 
HETATM    2  S   UNL     1     -10.336   9.517  70.041  1.00  0.00    -0.267 S  
HETATM    3  C   UNL     1      -9.899   9.589  68.322  1.00  0.00    -0.155 C  
HETATM    4  O   UNL     1      -9.134   9.418  70.843  1.00  0.00    -0.236 OA 
HETATM    5  C   UNL     1     -11.064  10.154  67.528  1.00  0.00    -0.181 C  
HETATM    6  N   UNL     1     -11.552  11.480  67.952  1.00  0.00    -0.478 NA 
HETATM    7  N   UNL     1     -10.941  11.072  70.270  1.00  0.00    -0.441 N  
HETATM    8  C   UNL     1     -12.002  11.432  69.339  1.00  0.00    -0.339 C  
HETATM    9  H   UNL     1     -10.596  11.702  70.994  1.00  0.00     0.000 HD 
ENDROOT
BRANCH   6  10
HETATM   10  C   UNL     1     -10.607  12.578  67.736  1.00  0.00    -0.219 C  
BRANCH  10  11
HETATM   11  N   UNL     1     -11.289  13.767  67.237  1.00  0.00    -0.307 NA 
HETATM   12  C   UNL     1     -10.507  14.633  66.345  1.00  0.00    -0.295 C  
HETATM   13  C   UNL     1     -10.301  14.162  64.912  1.00  0.00    -0.408 C  
HETATM   14  S   UNL     1     -11.830  13.636  64.173  1.00  0.00    -0.401 S  
HETATM   15  O   UNL     1     -11.529  12.668  63.141  1.00  0.00    -0.424 OA 
HETATM   16  N   UNL     1     -12.520  12.776  65.423  1.00  0.00    -0.477 N  
HETATM   17  O   UNL     1     -12.653  14.796  63.914  1.00  0.00    -0.834 OA 
HETATM   18  H   UNL     1     -12.862  11.822  65.307  1.00  0.00     0.000 HD 
HETATM   19  C   UNL     1     -12.599  13.478  66.680  1.00  0.00    -0.058 C  
ENDBRANCH  10  11
ENDBRANCH   6  10
TORSDOF 2
ENDMDL
MODEL       16
REMARK 921   NORMALIZED FREE ENERGY PREDICTED BY IDOCK:   -5.09 KCAL/MOL
REMARK 922        TOTAL FREE ENERGY PREDICTED BY IDOCK:   -6.10 KCAL/MOL
REMARK 923 INTER-LIGAND FREE ENERGY PREDICTED BY IDOCK:   -5.85 KCAL/MOL
REMARK 924 INTRA-LIGAND FREE ENERGY PREDICTED BY IDOCK:   -0.25 KCAL/MOL
REMARK 927      BINDING AFFINITY PREDICTED BY RF-SCORE:    0.00 PKD
ROOT
HETATM    1  O   UNL     1      -7.635  20.027  66.649  1.00  0.00    -0.265 OA 
HETATM    2  S   UNL     1      -8.262  19.252  67.694  1.00  0.00    -0.300 S  
HETATM    3  C   UNL     1     -10.021  19.236  67.454  1.00  0.00    -0.368 C  
HETATM    4  O   UNL     1      -7.966  19.494  69.091  1.00  0.00    -0.336 OA 
HETATM    5  C   UNL     1     -10.346  18.536  66.146  1.00  0.00    -0.426 C  
HETATM    6  N   UNL     1      -9.832  17.160  66.005  1.00  0.00    -0.483 NA 
HETATM    7  N   UNL     1      -7.896  17.636  67.398  1.00  0.00    -0.202 N  
HETATM    8  C   UNL     1      -8.377  17.151  66.111  1.00  0.00    -0.223 C  
HETATM    9  H   UNL     1      -7.385  17.051  68.059  1.00  0.00     0.000 HD 
ENDROOT
BRANCH   6  10
HETATM   10  C   UNL     1     -10.439  16.185  66.914  1.00  0.00    -0.300 C  
BRANCH  10  11
HETATM   11  N   UNL     1     -10.502  14.863  66.299  1.00  0.00    -0.292 NA 
HETATM   12  C   UNL     1      -9.591  13.852  66.849  1.00  0.00    -0.269 C  
HETATM   13  C   UNL     1      -9.956  13.233  68.192  1.00  0.00    -0.234 C  
HETATM   14  S   UNL     1     -11.652  12.704  68.225  1.00  0.00    -0.350 S  
HETATM   15  O   UNL     1     -12.110  12.723  69.597  1.00  0.00    -0.289 OA 
HETATM   16  N   UNL     1     -12.410  13.981  67.469  1.00  0.00    -0.521 N  
HETATM   17  O   UNL     1     -11.798  11.533  67.389  1.00  0.00    -0.607 OA 
HETATM   18  H   UNL     1     -13.208  14.465  67.882  1.00  0.00     0.000 HD 
HETATM   19  C   UNL     1     -11.858  14.352  66.190  1.00  0.00    -0.382 C  
ENDBRANCH  10  11
ENDBRANCH   6  10
TORSDOF 2
ENDMDL
MODEL       17
REMARK 921   NORMALIZED FREE ENERGY PREDICTED BY IDOCK:   -5.07 KCAL/MOL
REMARK 922        TOTAL FREE ENERGY PREDICTED BY IDOCK:   -6.08 KCAL/MOL
REMARK 923 INTER-LIGAND FREE ENERGY PREDICTED BY IDOCK:   -5.80 KCAL/MOL
REMARK 924 INTRA-LIGAND FREE ENERGY PREDICTED BY IDOCK:   -0.28 KCAL/MOL
REMARK 927      BINDING AFFINITY PREDICTED BY RF-SCORE:    0.00 PKD
ROOT
HETATM    1  O   UNL     1     -12.644  12.276  65.423  1.00  0.00    -0.572 OA 
HETATM    2  S   UNL     1     -11.232  12.486  65.640  1.00  0.00    -0.332 S  
HETATM    3  C   UNL     1     -10.614  13.663  64.464  1.00  0.00    -0.411 C  
HETATM    4  O   UNL     1     -10.313  11.371  65.738  1.00  0.00    -0.239 OA 
HETATM    5  C   UNL     1     -11.287  15.006  64.692  1.00  0.00    -0.352 C  
HETATM    6  N   UNL     1     -11.157  15.572  66.048  1.00  0.00    -0.245 NA 
HETATM    7  N   UNL     1     -11.076  13.365  67.067  1.00  0.00    -0.287 N  
HETATM    8  C   UNL     1     -11.736  14.664  67.032  1.00  0.00    -0.362 C  
HETATM    9  H   UNL     1     -10.567  13.020  67.881  1.00  0.00     0.000 HD 
ENDROOT
BRANCH   6  10
HETATM   10  C   UNL     1      -9.794  15.962  66.420  1.00  0.00    -0.282 C  
BRANCH  10  11
HETATM   11  N   UNL     1      -9.449  17.262  65.855  1.00  0.00    -0.525 NA 
HETATM   12  C   UNL     1     -10.499  18.287  65.907  1.00  0.00    -0.307 C  
HETATM   13  C   UNL     1     -10.765  18.953  67.249  1.00  0.00    -0.449 C  
HETATM   14  S   UNL     1      -9.257  19.491  68.020  1.00  0.00    -0.343 S  
HETATM   15  O   UNL     1      -9.461  19.521  69.452  1.00  0.00    -0.265 OA 
HETATM   16  N   UNL     1      -8.255  18.193  67.725  1.00  0.00    -0.239 N  
HETATM   17  O   UNL     1      -8.741  20.634  67.300  1.00  0.00    -0.334 OA 
HETATM   18  H   UNL     1      -7.732  17.727  68.466  1.00  0.00     0.000 HD 
HETATM   19  C   UNL     1      -8.182  17.776  66.347  1.00  0.00    -0.255 C  
ENDBRANCH  10  11
ENDBRANCH   6  10
TORSDOF 2
ENDMDL
MODEL       18
REMARK 921   NORMALIZED FREE ENERGY PREDICTED BY IDOCK:   -5.05 KCAL/MOL
REMARK 922        TOTAL FREE ENERGY PREDICTED BY IDOCK:   -6.05 KCAL/MOL
REMARK 923 INTER-LIGAND FREE ENERGY PREDICTED BY IDOCK:   -5.55 KCAL/MOL
REMARK 924 INTRA-LIGAND FREE ENERGY PREDICTED BY IDOCK:   -0.50 KCAL/MOL
REMARK 927      BINDING AFFINITY PREDICTED BY RF-SCORE:    0.00 PKD
ROOT
HETATM    1  O   UNL     1      -8.282  19.192  68.249  1.00  0.00    -0.307 OA 
HETATM    2  S   UNL     1      -8.537  18.481  67.018  1.00  0.00    -0.280 S  
HETATM    3  C   UNL     1      -7.962  16.808  67.162  1.00  0.00    -0.181 C  
HETATM    4  O   UNL     1      -8.131  19.024  65.738  1.00  0.00    -0.459 OA 
HETATM    5  C   UNL     1      -8.754  16.093  68.242  1.00  0.00    -0.180 C  
HETATM    6  N   UNL     1     -10.219  16.080  68.068  1.00  0.00    -0.240 NA 
HETATM    7  N   UNL     1     -10.199  18.229  66.928  1.00  0.00    -0.356 N  
HETATM    8  C   UNL     1     -10.734  17.444  68.034  1.00  0.00    -0.359 C  
HETATM    9  H   UNL     1     -10.777  18.591  66.170  1.00  0.00     0.000 HD 
ENDROOT
BRANCH   6  10
HETATM   10  C   UNL     1     -10.692  15.302  66.920  1.00  0.00    -0.313 C  
BRANCH  10  11
HETATM   11  N   UNL     1     -11.835  14.473  67.284  1.00  0.00    -0.407 NA 
HETATM   12  C   UNL     1     -12.150  13.370  66.367  1.00  0.00    -0.409 C  
HETATM   13  C   UNL     1     -11.255  12.139  66.416  1.00  0.00    -0.331 C  
HETATM   14  S   UNL     1     -11.007  11.581  68.085  1.00  0.00    -0.249 S  
HETATM   15  O   UNL     1      -9.743  10.879  68.148  1.00  0.00    -0.157 OA 
HETATM   16  N   UNL     1     -10.772  13.024  68.884  1.00  0.00    -0.374 N  
HETATM   17  O   UNL     1     -12.232  10.989  68.573  1.00  0.00    -0.582 OA 
HETATM   18  H   UNL     1      -9.965  13.192  69.485  1.00  0.00     0.000 HD 
HETATM   19  C   UNL     1     -11.792  14.020  68.664  1.00  0.00    -0.361 C  
ENDBRANCH  10  11
ENDBRANCH   6  10
TORSDOF 2
ENDMDL
MODEL       19
REMARK 921   NORMALIZED FREE ENERGY PREDICTED BY IDOCK:   -5.04 KCAL/MOL
REMARK 922        TOTAL FREE ENERGY PREDICTED BY IDOCK:   -6.04 KCAL/MOL
REMARK 923 INTER-LIGAND FREE ENERGY PREDICTED BY IDOCK:   -5.56 KCAL/MOL
REMARK 924 INTRA-LIGAND FREE ENERGY PREDICTED BY IDOCK:   -0.49 KCAL/MOL
REMARK 927      BINDING AFFINITY PREDICTED BY RF-SCORE:    0.00 PKD
ROOT
HETATM    1  O   UNL     1      -7.302  19.142  65.511  1.00  0.00    -0.460 OA 
HETATM    2  S   UNL     1      -7.724  19.132  66.892  1.00  0.00    -0.245 S  
HETATM    3  C   UNL     1      -9.394  19.720  67.012  1.00  0.00    -0.355 C  
HETATM    4  O   UNL     1      -6.919  19.746  67.928  1.00  0.00    -0.248 OA 
HETATM    5  C   UNL     1     -10.319  18.767  66.274  1.00  0.00    -0.448 C  
HETATM    6  N   UNL     1     -10.276  17.358  66.710  1.00  0.00    -0.311 NA 
HETATM    7  N   UNL     1      -7.931  17.521  67.334  1.00  0.00    -0.201 N  
HETATM    8  C   UNL     1      -8.931  16.818  66.541  1.00  0.00    -0.273 C  
HETATM    9  H   UNL     1      -7.405  17.079  68.088  1.00  0.00     0.000 HD 
ENDROOT
BRANCH   6  10
HETATM   10  C   UNL     1     -10.779  17.121  68.066  1.00  0.00    -0.372 C  
BRANCH  10  11
HETATM   11  N   UNL     1     -10.505  15.754  68.495  1.00  0.00    -0.230 NA 
HETATM   12  C   UNL     1     -10.069  15.591  69.888  1.00  0.00    -0.272 C  
HETATM   13  C   UNL     1     -11.129  15.709  70.974  1.00  0.00    -0.318 C  
HETATM   14  S   UNL     1     -12.562  14.727  70.595  1.00  0.00    -0.365 S  
HETATM   15  O   UNL     1     -13.707  15.319  71.251  1.00  0.00    -0.469 OA 
HETATM   16  N   UNL     1     -12.752  15.037  68.969  1.00  0.00    -0.300 N  
HETATM   17  O   UNL     1     -12.231  13.328  70.752  1.00  0.00    -0.358 OA 
HETATM   18  H   UNL     1     -13.638  15.352  68.572  1.00  0.00     0.000 HD 
HETATM   19  C   UNL     1     -11.575  14.829  68.162  1.00  0.00    -0.332 C  
ENDBRANCH  10  11
ENDBRANCH   6  10
TORSDOF 2
ENDMDL
MODEL       20
REMARK 921   NORMALIZED FREE ENERGY PREDICTED BY IDOCK:   -5.04 KCAL/MOL
REMARK 922        TOTAL FREE ENERGY PREDICTED BY IDOCK:   -6.04 KCAL/MOL
REMARK 923 INTER-LIGAND FREE ENERGY PREDICTED BY IDOCK:   -5.76 KCAL/MOL
REMARK 924 INTRA-LIGAND FREE ENERGY PREDICTED BY IDOCK:   -0.28 KCAL/MOL
REMARK 927      BINDING AFFINITY PREDICTED BY RF-SCORE:    0.00 PKD
ROOT
HETATM    1  O   UNL     1     -11.910  11.548  67.138  1.00  0.00    -0.595 OA 
HETATM    2  S   UNL     1     -11.580  12.591  68.081  1.00  0.00    -0.355 S  
HETATM    3  C   UNL     1      -9.889  13.083  67.862  1.00  0.00    -0.224 C  
HETATM    4  O   UNL     1     -11.863  12.445  69.493  1.00  0.00    -0.298 OA 
HETATM    5  C   UNL     1      -9.712  13.684  66.478  1.00  0.00    -0.292 C  
HETATM    6  N   UNL     1     -10.587  14.827  66.153  1.00  0.00    -0.301 NA 
HETATM    7  N   UNL     1     -12.374  13.986  67.573  1.00  0.00    -0.521 N  
HETATM    8  C   UNL     1     -11.988  14.430  66.239  1.00  0.00    -0.376 C  
HETATM    9  H   UNL     1     -13.062  14.475  68.146  1.00  0.00     0.000 HD 
ENDROOT
BRANCH   6  10
HETATM   10  C   UNL     1     -10.327  16.038  66.936  1.00  0.00    -0.289 C  
BRANCH  10  11
HETATM   11  N   UNL     1      -9.874  17.128  66.079  1.00  0.00    -0.483 NA 
HETATM   12  C   UNL     1     -10.506  18.434  66.309  1.00  0.00    -0.393 C  
HETATM   13  C   UNL     1     -10.060  19.223  67.532  1.00  0.00    -0.389 C  
HETATM   14  S   UNL     1      -8.289  19.300  67.648  1.00  0.00    -0.297 S  
HETATM   15  O   UNL     1      -7.929  19.472  69.039  1.00  0.00    -0.356 OA 
HETATM   16  N   UNL     1      -7.865  17.737  67.254  1.00  0.00    -0.208 N  
HETATM   17  O   UNL     1      -7.785  20.179  66.616  1.00  0.00    -0.286 OA 
HETATM   18  H   UNL     1      -7.253  17.172  67.842  1.00  0.00     0.000 HD 
HETATM   19  C   UNL     1      -8.427  17.242  66.022  1.00  0.00    -0.101 C  
ENDBRANCH  10  11
ENDBRANCH   6  10
TORSDOF 2
ENDMDL
MODEL       21
REMARK 921   NORMALIZED FREE ENERGY PREDICTED BY IDOCK:   -5.01 KCAL/MOL
REMARK 922        TOTAL FREE ENERGY PREDICTED BY IDOCK:   -6.00 KCAL/MOL
REMARK 923 INTER-LIGAND FREE ENERGY PREDICTED BY IDOCK:   -5.70 KCAL/MOL
REMARK 924 INTRA-LIGAND FREE ENERGY PREDICTED BY IDOCK:   -0.30 KCAL/MOL
REMARK 927      BINDING AFFINITY PREDICTED BY RF-SCORE:    0.00 PKD
ROOT
HETATM    1  O   UNL     1     -11.814   8.438  72.642  1.00  0.00    -0.393 OA 
HETATM    2  S   UNL     1     -12.456   8.476  71.349  1.00  0.00    -0.268 S  
HETATM    3  C   UNL     1     -13.440   9.947  71.213  1.00  0.00    -0.280 C  
HETATM    4  O   UNL     1     -13.206   7.343  70.848  1.00  0.00    -0.173 OA 
HETATM    5  C   UNL     1     -12.537  11.167  71.280  1.00  0.00    -0.398 C  
HETATM    6  N   UNL     1     -11.453  11.224  70.282  1.00  0.00    -0.256 NA 
HETATM    7  N   UNL     1     -11.257   8.801  70.212  1.00  0.00    -0.359 N  
HETATM    8  C   UNL     1     -10.573  10.069  70.426  1.00  0.00    -0.280 C  
HETATM    9  H   UNL     1     -11.032   8.168  69.445  1.00  0.00     0.000 HD 
ENDROOT
BRANCH   6  10
HETATM   10  C   UNL     1     -11.904  11.381  68.897  1.00  0.00    -0.347 C  
BRANCH  10  11
HETATM   11  N   UNL     1     -10.931  12.133  68.111  1.00  0.00    -0.217 NA 
HETATM   12  C   UNL     1     -10.773  11.716  66.712  1.00  0.00    -0.260 C  
HETATM   13  C   UNL     1     -11.864  12.121  65.730  1.00  0.00    -0.274 C  
HETATM   14  S   UNL     1     -12.267  13.846  65.880  1.00  0.00    -0.483 S  
HETATM   15  O   UNL     1     -13.632  14.035  65.442  1.00  0.00    -0.593 OA 
HETATM   16  N   UNL     1     -12.285  14.037  67.535  1.00  0.00    -0.535 N  
HETATM   17  O   UNL     1     -11.178  14.634  65.346  1.00  0.00    -0.323 OA 
HETATM   18  H   UNL     1     -13.075  14.453  68.029  1.00  0.00     0.000 HD 
HETATM   19  C   UNL     1     -11.104  13.572  68.220  1.00  0.00    -0.261 C  
ENDBRANCH  10  11
ENDBRANCH   6  10
TORSDOF 2
ENDMDL
MODEL       22
REMARK 921   NORMALIZED FREE ENERGY PREDICTED BY IDOCK:   -5.00 KCAL/MOL
REMARK 922        TOTAL FREE ENERGY PREDICTED BY IDOCK:   -5.99 KCAL/MOL
REMARK 923 INTER-LIGAND FREE ENERGY PREDICTED BY IDOCK:   -5.50 KCAL/MOL
REMARK 924 INTRA-LIGAND FREE ENERGY PREDICTED BY IDOCK:   -0.49 KCAL/MOL
REMARK 927      BINDING AFFINITY PREDICTED BY RF-SCORE:    0.00 PKD
ROOT
HETATM    1  O   UNL     1     -12.315  11.150  68.435  1.00  0.00    -0.556 OA 
HETATM    2  S   UNL     1     -11.049  11.665  67.970  1.00  0.00    -0.265 S  
HETATM    3  C   UNL     1     -11.239  12.340  66.340  1.00  0.00    -0.324 C  
HETATM    4  O   UNL     1      -9.844  10.863  68.025  1.00  0.00    -0.165 OA 
HETATM    5  C   UNL     1     -12.191  13.522  66.390  1.00  0.00    -0.400 C  
HETATM    6  N   UNL     1     -11.823  14.610  67.316  1.00  0.00    -0.389 NA 
HETATM    7  N   UNL     1     -10.733  13.067  68.848  1.00  0.00    -0.374 N  
HETATM    8  C   UNL     1     -11.743  14.104  68.682  1.00  0.00    -0.350 C  
HETATM    9  H   UNL     1      -9.911  13.179  69.441  1.00  0.00     0.000 HD 
ENDROOT
BRANCH   6  10
HETATM   10  C   UNL     1     -10.608  15.342  66.947  1.00  0.00    -0.304 C  
BRANCH  10  11
HETATM   11  N   UNL     1     -10.168  16.209  68.034  1.00  0.00    -0.246 NA 
HETATM   12  C   UNL     1      -8.737  16.160  68.359  1.00  0.00    -0.190 C  
HETATM   13  C   UNL     1      -7.778  16.873  67.417  1.00  0.00    -0.171 C  
HETATM   14  S   UNL     1      -8.331  18.522  67.049  1.00  0.00    -0.262 S  
HETATM   15  O   UNL     1      -7.803  18.903  65.758  1.00  0.00    -0.471 OA 
HETATM   16  N   UNL     1      -9.964  18.278  66.823  1.00  0.00    -0.332 N  
HETATM   17  O   UNL     1      -8.156  19.352  68.220  1.00  0.00    -0.313 OA 
HETATM   18  H   UNL     1     -10.455  18.600  65.989  1.00  0.00     0.000 HD 
HETATM   19  C   UNL     1     -10.634  17.578  67.892  1.00  0.00    -0.390 C  
ENDBRANCH  10  11
ENDBRANCH   6  10
TORSDOF 2
ENDMDL
MODEL       23
REMARK 921   NORMALIZED FREE ENERGY PREDICTED BY IDOCK:   -4.99 KCAL/MOL
REMARK 922        TOTAL FREE ENERGY PREDICTED BY IDOCK:   -5.98 KCAL/MOL
REMARK 923 INTER-LIGAND FREE ENERGY PREDICTED BY IDOCK:   -5.52 KCAL/MOL
REMARK 924 INTRA-LIGAND FREE ENERGY PREDICTED BY IDOCK:   -0.46 KCAL/MOL
REMARK 927      BINDING AFFINITY PREDICTED BY RF-SCORE:    0.00 PKD
ROOT
HETATM    1  O   UNL     1      -9.306  19.348  68.992  1.00  0.00    -0.373 OA 
HETATM    2  S   UNL     1      -8.450  18.325  68.438  1.00  0.00    -0.301 S  
HETATM    3  C   UNL     1      -9.117  16.722  68.805  1.00  0.00    -0.259 C  
HETATM    4  O   UNL     1      -7.022  18.324  68.684  1.00  0.00    -0.243 OA 
HETATM    5  C   UNL     1     -10.466  16.568  68.124  1.00  0.00    -0.313 C  
HETATM    6  N   UNL     1     -10.478  16.766  66.662  1.00  0.00    -0.290 NA 
HETATM    7  N   UNL     1      -8.649  18.366  66.767  1.00  0.00    -0.268 N  
HETATM    8  C   UNL     1     -10.016  18.110  66.332  1.00  0.00    -0.376 C  
HETATM    9  H   UNL     1      -7.883  18.553  66.119  1.00  0.00     0.000 HD 
ENDROOT
BRANCH   6  10
HETATM   10  C   UNL     1      -9.748  15.749  65.901  1.00  0.00    -0.354 C  
BRANCH  10  11
HETATM   11  N   UNL     1     -10.588  15.173  64.857  1.00  0.00    -0.405 NA 
HETATM   12  C   UNL     1     -10.171  13.862  64.344  1.00  0.00     0.101 C  
HETATM   13  C   UNL     1     -10.444  12.646  65.220  1.00  0.00    -0.289 C  
HETATM   14  S   UNL     1     -12.117  12.637  65.818  1.00  0.00    -0.360 S  
HETATM   15  O   UNL     1     -12.153  11.897  67.061  1.00  0.00    -0.600 OA 
HETATM   16  N   UNL     1     -12.329  14.238  66.229  1.00  0.00    -0.428 N  
HETATM   17  O   UNL     1     -13.009  12.330  64.722  1.00  0.00    -0.713 OA 
HETATM   18  H   UNL     1     -12.665  14.526  67.148  1.00  0.00     0.000 HD 
HETATM   19  C   UNL     1     -12.002  15.186  65.193  1.00  0.00    -0.051 C  
ENDBRANCH  10  11
ENDBRANCH   6  10
TORSDOF 2
ENDMDL
MODEL       24
REMARK 921   NORMALIZED FREE ENERGY PREDICTED BY IDOCK:   -4.91 KCAL/MOL
REMARK 922        TOTAL FREE ENERGY PREDICTED BY IDOCK:   -5.89 KCAL/MOL
REMARK 923 INTER-LIGAND FREE ENERGY PREDICTED BY IDOCK:   -5.77 KCAL/MOL
REMARK 924 INTRA-LIGAND FREE ENERGY PREDICTED BY IDOCK:   -0.12 KCAL/MOL
REMARK 927      BINDING AFFINITY PREDICTED BY RF-SCORE:    0.00 PKD
ROOT
HETATM    1  O   UNL     1      -7.903  19.650  68.713  1.00  0.00    -0.349 OA 
HETATM    2  S   UNL     1      -8.991  19.616  67.764  1.00  0.00    -0.327 S  
HETATM    3  C   UNL     1      -8.449  18.846  66.260  1.00  0.00    -0.256 C  
HETATM    4  O   UNL     1      -9.753  20.807  67.451  1.00  0.00    -0.465 OA 
HETATM    5  C   UNL     1      -8.077  17.400  66.538  1.00  0.00    -0.277 C  
HETATM    6  N   UNL     1      -9.131  16.567  67.148  1.00  0.00    -0.209 NA 
HETATM    7  N   UNL     1     -10.093  18.470  68.317  1.00  0.00    -0.373 N  
HETATM    8  C   UNL     1      -9.538  17.128  68.432  1.00  0.00    -0.281 C  
HETATM    9  H   UNL     1     -11.061  18.696  68.550  1.00  0.00     0.000 HD 
ENDROOT
BRANCH   6  10
HETATM   10  C   UNL     1     -10.289  16.317  66.285  1.00  0.00    -0.326 C  
BRANCH  10  11
HETATM   11  N   UNL     1     -10.346  14.918  65.876  1.00  0.00    -0.295 NA 
HETATM   12  C   UNL     1      -9.549  13.980  66.677  1.00  0.00    -0.289 C  
HETATM   13  C   UNL     1     -10.088  13.591  68.046  1.00  0.00    -0.244 C  
HETATM   14  S   UNL     1     -11.800  13.123  67.963  1.00  0.00    -0.326 S  
HETATM   15  O   UNL     1     -12.405  13.371  69.254  1.00  0.00    -0.233 OA 
HETATM   16  N   UNL     1     -12.410  14.286  66.938  1.00  0.00    -0.571 N  
HETATM   17  O   UNL     1     -11.908  11.840  67.305  1.00  0.00    -0.596 OA 
HETATM   18  H   UNL     1     -13.224  14.852  67.176  1.00  0.00     0.000 HD 
HETATM   19  C   UNL     1     -11.704  14.436  65.690  1.00  0.00    -0.356 C  
ENDBRANCH  10  11
ENDBRANCH   6  10
TORSDOF 2
ENDMDL
MODEL       25
REMARK 921   NORMALIZED FREE ENERGY PREDICTED BY IDOCK:   -4.81 KCAL/MOL
REMARK 922        TOTAL FREE ENERGY PREDICTED BY IDOCK:   -5.79 KCAL/MOL
REMARK 923 INTER-LIGAND FREE ENERGY PREDICTED BY IDOCK:   -5.54 KCAL/MOL
REMARK 924 INTRA-LIGAND FREE ENERGY PREDICTED BY IDOCK:   -0.24 KCAL/MOL
REMARK 927      BINDING AFFINITY PREDICTED BY RF-SCORE:    0.00 PKD
ROOT
HETATM    1  O   UNL     1      -9.856  14.915  66.782  1.00  0.00    -0.234 OA 
HETATM    2  S   UNL     1     -10.999  14.690  67.635  1.00  0.00    -0.303 S  
HETATM    3  C   UNL     1     -12.153  13.615  66.821  1.00  0.00    -0.399 C  
HETATM    4  O   UNL     1     -11.712  15.794  68.244  1.00  0.00    -0.345 OA 
HETATM    5  C   UNL     1     -11.509  12.257  66.599  1.00  0.00    -0.373 C  
HETATM    6  N   UNL     1     -10.997  11.581  67.806  1.00  0.00    -0.220 NA 
HETATM    7  N   UNL     1     -10.487  13.695  68.894  1.00  0.00    -0.379 N  
HETATM    8  C   UNL     1      -9.979  12.403  68.452  1.00  0.00    -0.210 C  
HETATM    9  H   UNL     1     -10.530  13.973  69.875  1.00  0.00     0.000 HD 
ENDROOT
BRANCH   6  10
HETATM   10  C   UNL     1     -12.029  11.164  68.758  1.00  0.00    -0.268 C  
BRANCH  10  11
HETATM   11  N   UNL     1     -11.473  11.004  70.097  1.00  0.00    -0.304 NA 
HETATM   12  C   UNL     1     -12.426  11.116  71.208  1.00  0.00    -0.360 C  
HETATM   13  C   UNL     1     -13.351   9.933  71.462  1.00  0.00    -0.375 C  
HETATM   14  S   UNL     1     -12.453   8.400  71.494  1.00  0.00    -0.306 S  
HETATM   15  O   UNL     1     -13.355   7.335  71.114  1.00  0.00    -0.331 OA 
HETATM   16  N   UNL     1     -11.412   8.601  70.209  1.00  0.00    -0.448 N  
HETATM   17  O   UNL     1     -11.668   8.337  72.706  1.00  0.00    -0.397 OA 
HETATM   18  H   UNL     1     -11.326   7.913  69.461  1.00  0.00     0.000 HD 
HETATM   19  C   UNL     1     -10.641   9.820  70.229  1.00  0.00    -0.292 C  
ENDBRANCH  10  11
ENDBRANCH   6  10
TORSDOF 2
ENDMDL
MODEL       26
REMARK 921   NORMALIZED FREE ENERGY PREDICTED BY IDOCK:   -4.81 KCAL/MOL
REMARK 922        TOTAL FREE ENERGY PREDICTED BY IDOCK:   -5.78 KCAL/MOL
REMARK 923 INTER-LIGAND FREE ENERGY PREDICTED BY IDOCK:   -5.30 KCAL/MOL
REMARK 924 INTRA-LIGAND FREE ENERGY PREDICTED BY IDOCK:   -0.48 KCAL/MOL
REMARK 927      BINDING AFFINITY PREDICTED BY RF-SCORE:    0.00 PKD
ROOT
HETATM    1  O   UNL     1     -12.234  11.661  67.973  1.00  0.00    -0.551 OA 
HETATM    2  S   UNL     1     -10.916  11.977  67.476  1.00  0.00    -0.270 S  
HETATM    3  C   UNL     1     -11.025  13.281  66.277  1.00  0.00    -0.284 C  
HETATM    4  O   UNL     1     -10.028  10.942  66.988  1.00  0.00    -0.183 OA 
HETATM    5  C   UNL     1     -11.545  14.541  66.947  1.00  0.00    -0.385 C  
HETATM    6  N   UNL     1     -10.771  15.023  68.106  1.00  0.00    -0.250 NA 
HETATM    7  N   UNL     1     -10.097  12.767  68.717  1.00  0.00    -0.421 N  
HETATM    8  C   UNL     1     -10.736  14.003  69.149  1.00  0.00    -0.173 C  
HETATM    9  H   UNL     1      -9.232  12.413  69.127  1.00  0.00     0.000 HD 
ENDROOT
BRANCH   6  10
HETATM   10  C   UNL     1      -9.424  15.504  67.786  1.00  0.00    -0.204 C  
BRANCH  10  11
HETATM   11  N   UNL     1      -9.171  16.802  68.401  1.00  0.00    -0.221 NA 
HETATM   12  C   UNL     1      -8.147  17.632  67.755  1.00  0.00    -0.224 C  
HETATM   13  C   UNL     1      -8.526  18.333  66.458  1.00  0.00    -0.268 C  
HETATM   14  S   UNL     1     -10.085  19.174  66.604  1.00  0.00    -0.430 S  
HETATM   15  O   UNL     1     -10.679  19.266  65.288  1.00  0.00    -0.455 OA 
HETATM   16  N   UNL     1     -10.989  18.050  67.439  1.00  0.00    -0.204 N  
HETATM   17  O   UNL     1      -9.918  20.336  67.447  1.00  0.00    -0.410 OA 
HETATM   18  H   UNL     1     -11.902  17.732  67.114  1.00  0.00     0.000 HD 
HETATM   19  C   UNL     1     -10.386  17.558  68.653  1.00  0.00    -0.369 C  
ENDBRANCH  10  11
ENDBRANCH   6  10
TORSDOF 2
ENDMDL
MODEL       27
REMARK 921   NORMALIZED FREE ENERGY PREDICTED BY IDOCK:   -4.76 KCAL/MOL
REMARK 922        TOTAL FREE ENERGY PREDICTED BY IDOCK:   -5.73 KCAL/MOL
REMARK 923 INTER-LIGAND FREE ENERGY PREDICTED BY IDOCK:   -5.45 KCAL/MOL
REMARK 924 INTRA-LIGAND FREE ENERGY PREDICTED BY IDOCK:   -0.28 KCAL/MOL
REMARK 927      BINDING AFFINITY PREDICTED BY RF-SCORE:    0.00 PKD
ROOT
HETATM    1  O   UNL     1     -10.583  16.119  65.044  1.00  0.00    -0.588 OA 
HETATM    2  S   UNL     1      -9.997  15.604  66.260  1.00  0.00    -0.320 S  
HETATM    3  C   UNL     1     -11.280  15.188  67.414  1.00  0.00    -0.323 C  
HETATM    4  O   UNL     1      -8.940  16.318  66.946  1.00  0.00    -0.195 OA 
HETATM    5  C   UNL     1     -12.132  14.069  66.841  1.00  0.00    -0.430 C  
HETATM    6  N   UNL     1     -11.412  12.837  66.463  1.00  0.00    -0.335 NA 
HETATM    7  N   UNL     1      -9.392  14.073  65.906  1.00  0.00    -0.514 N  
HETATM    8  C   UNL     1     -10.406  13.132  65.448  1.00  0.00    -0.301 C  
HETATM    9  H   UNL     1      -8.407  13.827  66.004  1.00  0.00     0.000 HD 
ENDROOT
BRANCH   6  10
HETATM   10  C   UNL     1     -10.834  12.098  67.588  1.00  0.00    -0.233 C  
BRANCH  10  11
HETATM   11  N   UNL     1     -11.659  10.947  67.938  1.00  0.00    -0.549 NA 
HETATM   12  C   UNL     1     -11.099   9.629  67.610  1.00  0.00     0.008 C  
HETATM   13  C   UNL     1      -9.991   9.094  68.506  1.00  0.00    -0.174 C  
HETATM   14  S   UNL     1     -10.417   9.238  70.226  1.00  0.00    -0.249 S  
HETATM   15  O   UNL     1      -9.194   9.326  70.993  1.00  0.00    -0.246 OA 
HETATM   16  N   UNL     1     -11.097  10.759  70.269  1.00  0.00    -0.454 N  
HETATM   17  O   UNL     1     -11.447   8.274  70.540  1.00  0.00    -0.257 OA 
HETATM   18  H   UNL     1     -10.793  11.475  70.930  1.00  0.00     0.000 HD 
HETATM   19  C   UNL     1     -12.145  10.991  69.306  1.00  0.00    -0.292 C  
ENDBRANCH  10  11
ENDBRANCH   6  10
TORSDOF 2
ENDMDL
MODEL       28
REMARK 921   NORMALIZED FREE ENERGY PREDICTED BY IDOCK:   -4.76 KCAL/MOL
REMARK 922        TOTAL FREE ENERGY PREDICTED BY IDOCK:   -5.73 KCAL/MOL
REMARK 923 INTER-LIGAND FREE ENERGY PREDICTED BY IDOCK:   -5.32 KCAL/MOL
REMARK 924 INTRA-LIGAND FREE ENERGY PREDICTED BY IDOCK:   -0.41 KCAL/MOL
REMARK 927      BINDING AFFINITY PREDICTED BY RF-SCORE:    0.00 PKD
ROOT
HETATM    1  O   UNL     1      -7.511   8.560  65.906  1.00  0.00    -0.076 OA 
HETATM    2  S   UNL     1      -8.575   8.936  66.808  1.00  0.00    -0.117 S  
HETATM    3  C   UNL     1      -8.298  10.584  67.406  1.00  0.00    -0.121 C  
HETATM    4  O   UNL     1      -8.964   8.080  67.909  1.00  0.00    -0.130 OA 
HETATM    5  C   UNL     1      -8.356  11.560  66.243  1.00  0.00    -0.076 C  
HETATM    6  N   UNL     1      -9.598  11.543  65.447  1.00  0.00    -0.229 NA 
HETATM    7  N   UNL     1      -9.954   9.175  65.873  1.00  0.00    -0.416 N  
HETATM    8  C   UNL     1      -9.809  10.221  64.868  1.00  0.00    -0.336 C  
HETATM    9  H   UNL     1     -10.812   8.637  65.999  1.00  0.00     0.000 HD 
ENDROOT
BRANCH   6  10
HETATM   10  C   UNL     1     -10.789  12.008  66.163  1.00  0.00    -0.286 C  
BRANCH  10  11
HETATM   11  N   UNL     1     -11.665  12.772  65.281  1.00  0.00    -0.348 NA 
HETATM   12  C   UNL     1     -12.515  13.778  65.931  1.00  0.00    -0.468 C  
HETATM   13  C   UNL     1     -11.852  15.074  66.379  1.00  0.00    -0.035 C  
HETATM   14  S   UNL     1     -10.846  15.770  65.089  1.00  0.00    -0.397 S  
HETATM   15  O   UNL     1      -9.807  16.568  65.702  1.00  0.00    -0.511 OA 
HETATM   16  N   UNL     1     -10.090  14.410  64.492  1.00  0.00    -0.495 N  
HETATM   17  O   UNL     1     -11.705  16.301  64.055  1.00  0.00    -0.930 OA 
HETATM   18  H   UNL     1      -9.077  14.348  64.388  1.00  0.00     0.000 HD 
HETATM   19  C   UNL     1     -10.971  13.326  64.132  1.00  0.00    -0.354 C  
ENDBRANCH  10  11
ENDBRANCH   6  10
TORSDOF 2
ENDMDL
MODEL       29
REMARK 921   NORMALIZED FREE ENERGY PREDICTED BY IDOCK:   -4.72 KCAL/MOL
REMARK 922        TOTAL FREE ENERGY PREDICTED BY IDOCK:   -5.68 KCAL/MOL
REMARK 923 INTER-LIGAND FREE ENERGY PREDICTED BY IDOCK:   -5.40 KCAL/MOL
REMARK 924 INTRA-LIGAND FREE ENERGY PREDICTED BY IDOCK:   -0.28 KCAL/MOL
REMARK 927      BINDING AFFINITY PREDICTED BY RF-SCORE:    0.00 PKD
ROOT
HETATM    1  O   UNL     1      -9.780  12.938  65.782  1.00  0.00    -0.236 OA 
HETATM    2  S   UNL     1      -9.387  13.319  67.119  1.00  0.00    -0.248 S  
HETATM    3  C   UNL     1     -10.237  14.804  67.592  1.00  0.00    -0.232 C  
HETATM    4  O   UNL     1      -7.992  13.419  67.493  1.00  0.00    -0.160 OA 
HETATM    5  C   UNL     1     -11.732  14.536  67.643  1.00  0.00    -0.382 C  
HETATM    6  N   UNL     1     -12.161  13.438  68.529  1.00  0.00    -0.217 NA 
HETATM    7  N   UNL     1     -10.090  12.212  68.175  1.00  0.00    -0.201 N  
HETATM    8  C   UNL     1     -11.546  12.183  68.111  1.00  0.00    -0.337 C  
HETATM    9  H   UNL     1      -9.547  11.618  68.801  1.00  0.00     0.000 HD 
ENDROOT
BRANCH   6  10
HETATM   10  C   UNL     1     -11.950  13.686  69.957  1.00  0.00    -0.343 C  
BRANCH  10  11
HETATM   11  N   UNL     1     -12.423  15.013  70.335  1.00  0.00    -0.346 NA 
HETATM   12  C   UNL     1     -13.717  15.063  71.028  1.00  0.00    -0.352 C  
HETATM   13  C   UNL     1     -13.745  14.648  72.492  1.00  0.00    -0.467 C  
HETATM   14  S   UNL     1     -12.451  15.439  73.419  1.00  0.00    -0.578 S  
HETATM   15  O   UNL     1     -12.123  14.601  74.551  1.00  0.00    -0.327 OA 
HETATM   16  N   UNL     1     -11.167  15.312  72.365  1.00  0.00    -0.375 N  
HETATM   17  O   UNL     1     -12.770  16.840  73.575  1.00  0.00    -0.192 OA 
HETATM   18  H   UNL     1     -10.268  14.918  72.643  1.00  0.00     0.000 HD 
HETATM   19  C   UNL     1     -11.418  15.798  71.030  1.00  0.00    -0.407 C  
ENDBRANCH  10  11
ENDBRANCH   6  10
TORSDOF 2
ENDMDL
MODEL       30
REMARK 921   NORMALIZED FREE ENERGY PREDICTED BY IDOCK:   -4.68 KCAL/MOL
REMARK 922        TOTAL FREE ENERGY PREDICTED BY IDOCK:   -5.63 KCAL/MOL
REMARK 923 INTER-LIGAND FREE ENERGY PREDICTED BY IDOCK:   -5.39 KCAL/MOL
REMARK 924 INTRA-LIGAND FREE ENERGY PREDICTED BY IDOCK:   -0.24 KCAL/MOL
REMARK 927      BINDING AFFINITY PREDICTED BY RF-SCORE:    0.00 PKD
ROOT
HETATM    1  O   UNL     1     -10.608   8.778  68.861  1.00  0.00    -0.215 OA 
HETATM    2  S   UNL     1      -9.831   9.953  69.183  1.00  0.00    -0.211 S  
HETATM    3  C   UNL     1      -9.412  10.820  67.692  1.00  0.00    -0.154 C  
HETATM    4  O   UNL     1      -8.668   9.873  70.041  1.00  0.00    -0.201 OA 
HETATM    5  C   UNL     1     -10.681  11.315  67.021  1.00  0.00    -0.260 C  
HETATM    6  N   UNL     1     -11.554  12.174  67.844  1.00  0.00    -0.333 NA 
HETATM    7  N   UNL     1     -10.881  11.058  69.897  1.00  0.00    -0.463 N  
HETATM    8  C   UNL     1     -11.988  11.457  69.038  1.00  0.00    -0.320 C  
HETATM    9  H   UNL     1     -10.754  11.415  70.844  1.00  0.00     0.000 HD 
ENDROOT
BRANCH   6  10
HETATM   10  C   UNL     1     -10.982  13.479  68.185  1.00  0.00    -0.254 C  
BRANCH  10  11
HETATM   11  N   UNL     1     -11.740  14.562  67.568  1.00  0.00    -0.376 NA 
HETATM   12  C   UNL     1     -11.512  15.904  68.118  1.00  0.00    -0.281 C  
HETATM   13  C   UNL     1     -10.218  16.608  67.737  1.00  0.00    -0.292 C  
HETATM   14  S   UNL     1      -9.930  16.539  65.985  1.00  0.00    -0.324 S  
HETATM   15  O   UNL     1      -8.505  16.629  65.752  1.00  0.00    -0.433 OA 
HETATM   16  N   UNL     1     -10.353  14.963  65.644  1.00  0.00    -0.323 N  
HETATM   17  O   UNL     1     -10.868  17.413  65.317  1.00  0.00    -0.588 OA 
HETATM   18  H   UNL     1      -9.735  14.329  65.138  1.00  0.00     0.000 HD 
HETATM   19  C   UNL     1     -11.654  14.561  66.118  1.00  0.00    -0.365 C  
ENDBRANCH  10  11
ENDBRANCH   6  10
TORSDOF 2
ENDMDL
MODEL       31
REMARK 921   NORMALIZED FREE ENERGY PREDICTED BY IDOCK:   -4.67 KCAL/MOL
REMARK 922        TOTAL FREE ENERGY PREDICTED BY IDOCK:   -5.62 KCAL/MOL
REMARK 923 INTER-LIGAND FREE ENERGY PREDICTED BY IDOCK:   -5.41 KCAL/MOL
REMARK 924 INTRA-LIGAND FREE ENERGY PREDICTED BY IDOCK:   -0.21 KCAL/MOL
REMARK 927      BINDING AFFINITY PREDICTED BY RF-SCORE:    0.00 PKD
ROOT
HETATM    1  O   UNL     1     -12.575  14.565  63.743  1.00  0.00    -0.825 OA 
HETATM    2  S   UNL     1     -11.993  13.276  64.035  1.00  0.00    -0.467 S  
HETATM    3  C   UNL     1     -10.306  13.483  64.545  1.00  0.00    -0.358 C  
HETATM    4  O   UNL     1     -12.084  12.179  63.093  1.00  0.00    -0.415 OA 
HETATM    5  C   UNL     1     -10.263  14.276  65.840  1.00  0.00    -0.324 C  
HETATM    6  N   UNL     1     -11.037  13.719  66.965  1.00  0.00    -0.297 NA 
HETATM    7  N   UNL     1     -12.686  12.735  65.471  1.00  0.00    -0.235 N  
HETATM    8  C   UNL     1     -12.448  13.618  66.607  1.00  0.00    -0.240 C  
HETATM    9  H   UNL     1     -13.222  11.870  65.540  1.00  0.00     0.000 HD 
ENDROOT
BRANCH   6  10
HETATM   10  C   UNL     1     -10.528  12.448  67.488  1.00  0.00    -0.215 C  
BRANCH  10  11
HETATM   11  N   UNL     1     -11.621  11.576  67.904  1.00  0.00    -0.478 NA 
HETATM   12  C   UNL     1     -11.408  10.137  67.709  1.00  0.00     0.018 C  
HETATM   13  C   UNL     1     -10.483   9.425  68.686  1.00  0.00    -0.209 C  
HETATM   14  S   UNL     1     -10.882   9.827  70.371  1.00  0.00    -0.332 S  
HETATM   15  O   UNL     1      -9.687   9.674  71.171  1.00  0.00    -0.163 OA 
HETATM   16  N   UNL     1     -11.156  11.467  70.262  1.00  0.00    -0.409 N  
HETATM   17  O   UNL     1     -12.126   9.183  70.728  1.00  0.00    -0.254 OA 
HETATM   18  H   UNL     1     -10.691  12.141  70.870  1.00  0.00     0.000 HD 
HETATM   19  C   UNL     1     -12.099  11.865  69.245  1.00  0.00    -0.210 C  
ENDBRANCH  10  11
ENDBRANCH   6  10
TORSDOF 2
ENDMDL
MODEL       32
REMARK 921   NORMALIZED FREE ENERGY PREDICTED BY IDOCK:   -4.67 KCAL/MOL
REMARK 922        TOTAL FREE ENERGY PREDICTED BY IDOCK:   -5.62 KCAL/MOL
REMARK 923 INTER-LIGAND FREE ENERGY PREDICTED BY IDOCK:   -5.35 KCAL/MOL
REMARK 924 INTRA-LIGAND FREE ENERGY PREDICTED BY IDOCK:   -0.27 KCAL/MOL
REMARK 927      BINDING AFFINITY PREDICTED BY RF-SCORE:    0.00 PKD
ROOT
HETATM    1  O   UNL     1     -13.193  12.056  64.135  1.00  0.00    -0.712 OA 
HETATM    2  S   UNL     1     -11.852  12.591  64.178  1.00  0.00    -0.452 S  
HETATM    3  C   UNL     1     -11.915  14.364  64.215  1.00  0.00    -0.410 C  
HETATM    4  O   UNL     1     -10.840  12.161  63.235  1.00  0.00    -0.415 OA 
HETATM    5  C   UNL     1     -12.600  14.819  65.493  1.00  0.00     0.038 C  
HETATM    6  N   UNL     1     -12.003  14.336  66.753  1.00  0.00    -0.431 NA 
HETATM    7  N   UNL     1     -11.242  12.272  65.715  1.00  0.00    -0.323 N  
HETATM    8  C   UNL     1     -12.016  12.878  66.791  1.00  0.00    -0.350 C  
HETATM    9  H   UNL     1     -10.408  11.707  65.877  1.00  0.00     0.000 HD 
ENDROOT
BRANCH   6  10
HETATM   10  C   UNL     1     -10.667  14.865  67.038  1.00  0.00    -0.307 C  
BRANCH  10  11
HETATM   11  N   UNL     1     -10.735  15.984  67.972  1.00  0.00    -0.298 NA 
HETATM   12  C   UNL     1      -9.935  15.852  69.196  1.00  0.00    -0.245 C  
HETATM   13  C   UNL     1      -8.431  16.055  69.078  1.00  0.00    -0.244 C  
HETATM   14  S   UNL     1      -8.043  17.536  68.174  1.00  0.00    -0.257 S  
HETATM   15  O   UNL     1      -6.741  17.371  67.565  1.00  0.00    -0.145 OA 
HETATM   16  N   UNL     1      -9.147  17.459  66.928  1.00  0.00    -0.238 N  
HETATM   17  O   UNL     1      -8.363  18.685  68.990  1.00  0.00    -0.223 OA 
HETATM   18  H   UNL     1      -8.872  17.538  65.948  1.00  0.00     0.000 HD 
HETATM   19  C   UNL     1     -10.518  17.270  67.333  1.00  0.00    -0.338 C  
ENDBRANCH  10  11
ENDBRANCH   6  10
TORSDOF 2
ENDMDL
MODEL       33
REMARK 921   NORMALIZED FREE ENERGY PREDICTED BY IDOCK:   -4.66 KCAL/MOL
REMARK 922        TOTAL FREE ENERGY PREDICTED BY IDOCK:   -5.62 KCAL/MOL
REMARK 923 INTER-LIGAND FREE ENERGY PREDICTED BY IDOCK:   -5.29 KCAL/MOL
REMARK 924 INTRA-LIGAND FREE ENERGY PREDICTED BY IDOCK:   -0.33 KCAL/MOL
REMARK 927      BINDING AFFINITY PREDICTED BY RF-SCORE:    0.00 PKD
ROOT
HETATM    1  O   UNL     1      -6.424  21.161  67.358  1.00  0.00    -0.326 OA 
HETATM    2  S   UNL     1      -6.813  19.952  68.046  1.00  0.00    -0.282 S  
HETATM    3  C   UNL     1      -8.571  19.737  67.929  1.00  0.00    -0.313 C  
HETATM    4  O   UNL     1      -6.381  19.687  69.402  1.00  0.00    -0.295 OA 
HETATM    5  C   UNL     1      -8.961  19.547  66.474  1.00  0.00    -0.361 C  
HETATM    6  N   UNL     1      -8.296  18.436  65.766  1.00  0.00    -0.421 NA 
HETATM    7  N   UNL     1      -6.281  18.658  67.110  1.00  0.00    -0.180 N  
HETATM    8  C   UNL     1      -6.850  18.630  65.768  1.00  0.00    -0.272 C  
HETATM    9  H   UNL     1      -5.622  17.958  67.450  1.00  0.00     0.000 HD 
ENDROOT
BRANCH   6  10
HETATM   10  C   UNL     1      -8.656  17.101  66.249  1.00  0.00    -0.241 C  
BRANCH  10  11
HETATM   11  N   UNL     1     -10.104  16.922  66.266  1.00  0.00    -0.311 NA 
HETATM   12  C   UNL     1     -10.685  16.260  65.091  1.00  0.00    -0.331 C  
HETATM   13  C   UNL     1     -10.510  14.752  64.976  1.00  0.00    -0.416 C  
HETATM   14  S   UNL     1     -10.934  13.929  66.493  1.00  0.00    -0.304 S  
HETATM   15  O   UNL     1     -10.199  12.686  66.559  1.00  0.00    -0.236 OA 
HETATM   16  N   UNL     1     -10.235  14.938  67.621  1.00  0.00    -0.235 N  
HETATM   17  O   UNL     1     -12.368  13.978  66.672  1.00  0.00    -0.451 OA 
HETATM   18  H   UNL     1      -9.601  14.594  68.343  1.00  0.00     0.000 HD 
HETATM   19  C   UNL     1     -10.589  16.331  67.502  1.00  0.00    -0.310 C  
ENDBRANCH  10  11
ENDBRANCH   6  10
TORSDOF 2
ENDMDL
MODEL       34
REMARK 921   NORMALIZED FREE ENERGY PREDICTED BY IDOCK:   -4.62 KCAL/MOL
REMARK 922        TOTAL FREE ENERGY PREDICTED BY IDOCK:   -5.57 KCAL/MOL
REMARK 923 INTER-LIGAND FREE ENERGY PREDICTED BY IDOCK:   -5.29 KCAL/MOL
REMARK 924 INTRA-LIGAND FREE ENERGY PREDICTED BY IDOCK:   -0.28 KCAL/MOL
REMARK 927      BINDING AFFINITY PREDICTED BY RF-SCORE:    0.00 PKD
ROOT
HETATM    1  O   UNL     1     -11.640   6.824  72.363  1.00  0.00    -0.274 OA 
HETATM    2  S   UNL     1     -12.453   7.604  71.459  1.00  0.00    -0.340 S  
HETATM    3  C   UNL     1     -12.047   9.324  71.620  1.00  0.00    -0.379 C  
HETATM    4  O   UNL     1     -13.892   7.447  71.417  1.00  0.00    -0.393 OA 
HETATM    5  C   UNL     1     -10.605   9.545  71.198  1.00  0.00    -0.318 C  
HETATM    6  N   UNL     1     -10.254   9.097  69.837  1.00  0.00    -0.195 NA 
HETATM    7  N   UNL     1     -11.891   7.299  69.901  1.00  0.00    -0.504 N  
HETATM    8  C   UNL     1     -10.495   7.665  69.699  1.00  0.00    -0.235 C  
HETATM    9  H   UNL     1     -12.474   6.896  69.168  1.00  0.00     0.000 HD 
ENDROOT
BRANCH   6  10
HETATM   10  C   UNL     1     -10.899   9.852  68.759  1.00  0.00    -0.208 C  
BRANCH  10  11
HETATM   11  N   UNL     1     -10.165  11.079  68.467  1.00  0.00    -0.184 NA 
HETATM   12  C   UNL     1      -9.555  11.162  67.134  1.00  0.00    -0.173 C  
HETATM   13  C   UNL     1     -10.476  11.445  65.956  1.00  0.00    -0.255 C  
HETATM   14  S   UNL     1     -11.559  12.814  66.290  1.00  0.00    -0.398 S  
HETATM   15  O   UNL     1     -12.756  12.654  65.493  1.00  0.00    -0.597 OA 
HETATM   16  N   UNL     1     -12.010  12.501  67.864  1.00  0.00    -0.311 N  
HETATM   17  O   UNL     1     -10.791  14.039  66.275  1.00  0.00    -0.288 OA 
HETATM   18  H   UNL     1     -12.986  12.467  68.156  1.00  0.00     0.000 HD 
HETATM   19  C   UNL     1     -10.920  12.280  68.781  1.00  0.00    -0.236 C  
ENDBRANCH  10  11
ENDBRANCH   6  10
TORSDOF 2
ENDMDL
MODEL       35
REMARK 921   NORMALIZED FREE ENERGY PREDICTED BY IDOCK:   -4.62 KCAL/MOL
REMARK 922        TOTAL FREE ENERGY PREDICTED BY IDOCK:   -5.56 KCAL/MOL
REMARK 923 INTER-LIGAND FREE ENERGY PREDICTED BY IDOCK:   -5.26 KCAL/MOL
REMARK 924 INTRA-LIGAND FREE ENERGY PREDICTED BY IDOCK:   -0.30 KCAL/MOL
REMARK 927      BINDING AFFINITY PREDICTED BY RF-SCORE:    0.00 PKD
ROOT
HETATM    1  O   UNL     1      -9.969   5.515  69.684  1.00  0.00    -0.177 OA 
HETATM    2  S   UNL     1     -10.927   6.585  69.537  1.00  0.00    -0.364 S  
HETATM    3  C   UNL     1     -10.095   8.150  69.628  1.00  0.00    -0.199 C  
HETATM    4  O   UNL     1     -12.134   6.630  70.337  1.00  0.00    -0.374 OA 
HETATM    5  C   UNL     1      -9.128   8.277  68.464  1.00  0.00    -0.136 C  
HETATM    6  N   UNL     1      -9.713   8.126  67.119  1.00  0.00    -0.181 NA 
HETATM    7  N   UNL     1     -11.418   6.591  67.926  1.00  0.00    -0.641 N  
HETATM    8  C   UNL     1     -10.330   6.811  66.981  1.00  0.00    -0.268 C  
HETATM    9  H   UNL     1     -12.387   6.453  67.639  1.00  0.00     0.000 HD 
ENDROOT
BRANCH   6  10
HETATM   10  C   UNL     1     -10.639   9.193  66.731  1.00  0.00    -0.136 C  
BRANCH  10  11
HETATM   11  N   UNL     1      -9.921  10.425  66.425  1.00  0.00    -0.213 NA 
HETATM   12  C   UNL     1      -9.656  10.681  65.003  1.00  0.00    -0.265 C  
HETATM   13  C   UNL     1     -10.820  11.159  64.147  1.00  0.00    -0.285 C  
HETATM   14  S   UNL     1     -11.692  12.499  64.923  1.00  0.00    -0.376 S  
HETATM   15  O   UNL     1     -13.057  12.493  64.443  1.00  0.00    -0.759 OA 
HETATM   16  N   UNL     1     -11.758  11.977  66.504  1.00  0.00    -0.325 N  
HETATM   17  O   UNL     1     -10.872  13.689  64.874  1.00  0.00    -0.332 OA 
HETATM   18  H   UNL     1     -12.632  11.932  67.029  1.00  0.00     0.000 HD 
HETATM   19  C   UNL     1     -10.492  11.592  67.076  1.00  0.00    -0.228 C  
ENDBRANCH  10  11
ENDBRANCH   6  10
TORSDOF 2
ENDMDL
MODEL       36
REMARK 921   NORMALIZED FREE ENERGY PREDICTED BY IDOCK:   -4.61 KCAL/MOL
REMARK 922        TOTAL FREE ENERGY PREDICTED BY IDOCK:   -5.56 KCAL/MOL
REMARK 923 INTER-LIGAND FREE ENERGY PREDICTED BY IDOCK:   -5.24 KCAL/MOL
REMARK 924 INTRA-LIGAND FREE ENERGY PREDICTED BY IDOCK:   -0.32 KCAL/MOL
REMARK 927      BINDING AFFINITY PREDICTED BY RF-SCORE:    0.00 PKD
ROOT
HETATM    1  O   UNL     1     -12.608  14.848  63.980  1.00  0.00    -0.832 OA 
HETATM    2  S   UNL     1     -11.416  14.951  64.789  1.00  0.00    -0.385 S  
HETATM    3  C   UNL     1     -11.804  14.573  66.479  1.00  0.00    -0.352 C  
HETATM    4  O   UNL     1     -10.571  16.126  64.737  1.00  0.00    -0.630 OA 
HETATM    5  C   UNL     1     -12.269  13.131  66.581  1.00  0.00    -0.267 C  
HETATM    6  N   UNL     1     -11.332  12.113  66.068  1.00  0.00    -0.344 NA 
HETATM    7  N   UNL     1     -10.438  13.638  64.397  1.00  0.00    -0.592 N  
HETATM    8  C   UNL     1     -11.060  12.345  64.653  1.00  0.00    -0.307 C  
HETATM    9  H   UNL     1      -9.497  13.738  64.016  1.00  0.00     0.000 HD 
ENDROOT
BRANCH   6  10
HETATM   10  C   UNL     1     -10.091  11.982  66.835  1.00  0.00    -0.205 C  
BRANCH  10  11
HETATM   11  N   UNL     1     -10.282  11.124  67.999  1.00  0.00    -0.176 NA 
HETATM   12  C   UNL     1     -11.004   9.867  67.763  1.00  0.00    -0.217 C  
HETATM   13  C   UNL     1     -10.247   8.742  67.072  1.00  0.00    -0.281 C  
HETATM   14  S   UNL     1      -8.654   8.477  67.814  1.00  0.00    -0.134 S  
HETATM   15  O   UNL     1      -7.775   7.907  66.817  1.00  0.00    -0.095 OA 
HETATM   16  N   UNL     1      -8.134  10.043  68.044  1.00  0.00    -0.111 N  
HETATM   17  O   UNL     1      -8.833   7.865  69.112  1.00  0.00    -0.141 OA 
HETATM   18  H   UNL     1      -7.227  10.373  67.712  1.00  0.00     0.000 HD 
HETATM   19  C   UNL     1      -9.057  10.899  68.747  1.00  0.00    -0.171 C  
ENDBRANCH  10  11
ENDBRANCH   6  10
TORSDOF 2
ENDMDL
MODEL       37
REMARK 921   NORMALIZED FREE ENERGY PREDICTED BY IDOCK:   -4.60 KCAL/MOL
REMARK 922        TOTAL FREE ENERGY PREDICTED BY IDOCK:   -5.55 KCAL/MOL
REMARK 923 INTER-LIGAND FREE ENERGY PREDICTED BY IDOCK:   -5.23 KCAL/MOL
REMARK 924 INTRA-LIGAND FREE ENERGY PREDICTED BY IDOCK:   -0.32 KCAL/MOL
REMARK 927      BINDING AFFINITY PREDICTED BY RF-SCORE:    0.00 PKD
ROOT
HETATM    1  O   UNL     1     -11.855  15.124  64.251  1.00  0.00    -0.380 OA 
HETATM    2  S   UNL     1     -12.051  13.695  64.178  1.00  0.00    -0.396 S  
HETATM    3  C   UNL     1     -10.499  12.866  64.413  1.00  0.00    -0.396 C  
HETATM    4  O   UNL     1     -12.762  13.089  63.071  1.00  0.00    -0.522 OA 
HETATM    5  C   UNL     1      -9.977  13.156  65.809  1.00  0.00    -0.252 C  
HETATM    6  N   UNL     1     -10.879  12.805  66.922  1.00  0.00    -0.250 NA 
HETATM    7  N   UNL     1     -12.862  13.235  65.580  1.00  0.00    -0.488 N  
HETATM    8  C   UNL     1     -12.135  13.540  66.806  1.00  0.00    -0.375 C  
HETATM    9  H   UNL     1     -13.777  12.784  65.571  1.00  0.00     0.000 HD 
ENDROOT
BRANCH   6  10
HETATM   10  C   UNL     1     -11.116  11.369  67.088  1.00  0.00    -0.305 C  
BRANCH  10  11
HETATM   11  N   UNL     1      -9.857  10.642  67.213  1.00  0.00    -0.172 NA 
HETATM   12  C   UNL     1      -9.209  10.695  68.529  1.00  0.00    -0.170 C  
HETATM   13  C   UNL     1      -9.802   9.838  69.639  1.00  0.00    -0.221 C  
HETATM   14  S   UNL     1     -10.086   8.171  69.093  1.00  0.00    -0.206 S  
HETATM   15  O   UNL     1     -11.158   7.608  69.885  1.00  0.00    -0.237 OA 
HETATM   16  N   UNL     1     -10.722   8.426  67.574  1.00  0.00    -0.479 N  
HETATM   17  O   UNL     1      -8.815   7.499  68.944  1.00  0.00    -0.135 OA 
HETATM   18  H   UNL     1     -11.603   8.009  67.273  1.00  0.00     0.000 HD 
HETATM   19  C   UNL     1      -9.937   9.278  66.716  1.00  0.00    -0.245 C  
ENDBRANCH  10  11
ENDBRANCH   6  10
TORSDOF 2
ENDMDL
MODEL       38
REMARK 921   NORMALIZED FREE ENERGY PREDICTED BY IDOCK:   -4.58 KCAL/MOL
REMARK 922        TOTAL FREE ENERGY PREDICTED BY IDOCK:   -5.52 KCAL/MOL
REMARK 923 INTER-LIGAND FREE ENERGY PREDICTED BY IDOCK:   -5.06 KCAL/MOL
REMARK 924 INTRA-LIGAND FREE ENERGY PREDICTED BY IDOCK:   -0.46 KCAL/MOL
REMARK 927      BINDING AFFINITY PREDICTED BY RF-SCORE:    0.00 PKD
ROOT
HETATM    1  O   UNL     1     -11.815  15.867  63.951  1.00  0.00    -0.664 OA 
HETATM    2  S   UNL     1     -11.135  15.339  65.111  1.00  0.00    -0.400 S  
HETATM    3  C   UNL     1     -12.238  14.295  66.028  1.00  0.00    -0.404 C  
HETATM    4  O   UNL     1     -10.418  16.207  66.022  1.00  0.00    -0.321 OA 
HETATM    5  C   UNL     1     -12.627  13.098  65.177  1.00  0.00    -0.465 C  
HETATM    6  N   UNL     1     -11.512  12.280  64.665  1.00  0.00    -0.325 NA 
HETATM    7  N   UNL     1     -10.024  14.201  64.557  1.00  0.00    -0.507 N  
HETATM    8  C   UNL     1     -10.631  13.092  63.832  1.00  0.00    -0.261 C  
HETATM    9  H   UNL     1      -9.019  14.282  64.714  1.00  0.00     0.000 HD 
ENDROOT
BRANCH   6  10
HETATM   10  C   UNL     1     -10.757  11.561  65.695  1.00  0.00    -0.267 C  
BRANCH  10  11
HETATM   11  N   UNL     1      -9.429  11.198  65.214  1.00  0.00    -0.221 NA 
HETATM   12  C   UNL     1      -8.331  11.350  66.177  1.00  0.00    -0.071 C  
HETATM   13  C   UNL     1      -8.208  10.302  67.274  1.00  0.00    -0.121 C  
HETATM   14  S   UNL     1      -8.305   8.655  66.616  1.00  0.00    -0.110 S  
HETATM   15  O   UNL     1      -8.803   7.777  67.652  1.00  0.00    -0.128 OA 
HETATM   16  N   UNL     1      -9.545   8.813  65.514  1.00  0.00    -0.453 N  
HETATM   17  O   UNL     1      -7.089   8.364  65.889  1.00  0.00    -0.070 OA 
HETATM   18  H   UNL     1     -10.353   8.191  65.506  1.00  0.00     0.000 HD 
HETATM   19  C   UNL     1      -9.394   9.895  64.572  1.00  0.00    -0.275 C  
ENDBRANCH  10  11
ENDBRANCH   6  10
TORSDOF 2
ENDMDL
MODEL       39
REMARK 921   NORMALIZED FREE ENERGY PREDICTED BY IDOCK:   -4.52 KCAL/MOL
REMARK 922        TOTAL FREE ENERGY PREDICTED BY IDOCK:   -5.46 KCAL/MOL
REMARK 923 INTER-LIGAND FREE ENERGY PREDICTED BY IDOCK:   -5.03 KCAL/MOL
REMARK 924 INTRA-LIGAND FREE ENERGY PREDICTED BY IDOCK:   -0.43 KCAL/MOL
REMARK 927      BINDING AFFINITY PREDICTED BY RF-SCORE:    0.00 PKD
ROOT
HETATM    1  O   UNL     1     -11.439   5.808  71.835  1.00  0.00    -0.253 OA 
HETATM    2  S   UNL     1     -12.212   6.982  71.502  1.00  0.00    -0.384 S  
HETATM    3  C   UNL     1     -11.639   8.366  72.454  1.00  0.00    -0.380 C  
HETATM    4  O   UNL     1     -13.660   6.955  71.508  1.00  0.00    -0.301 OA 
HETATM    5  C   UNL     1     -10.201   8.677  72.077  1.00  0.00    -0.337 C  
HETATM    6  N   UNL     1      -9.951   8.945  70.648  1.00  0.00    -0.200 NA 
HETATM    7  N   UNL     1     -11.746   7.457  69.955  1.00  0.00    -0.507 N  
HETATM    8  C   UNL     1     -10.331   7.788  69.844  1.00  0.00    -0.223 C  
HETATM    9  H   UNL     1     -12.395   7.509  69.170  1.00  0.00     0.000 HD 
ENDROOT
BRANCH   6  10
HETATM   10  C   UNL     1     -10.566  10.173  70.139  1.00  0.00    -0.281 C  
BRANCH  10  11
HETATM   11  N   UNL     1     -10.286  10.350  68.718  1.00  0.00    -0.184 NA 
HETATM   12  C   UNL     1     -11.405  10.825  67.895  1.00  0.00    -0.299 C  
HETATM   13  C   UNL     1     -11.775  12.298  67.994  1.00  0.00    -0.356 C  
HETATM   14  S   UNL     1     -10.342  13.340  67.852  1.00  0.00    -0.244 S  
HETATM   15  O   UNL     1     -10.609  14.581  68.545  1.00  0.00    -0.238 OA 
HETATM   16  N   UNL     1      -9.241  12.516  68.793  1.00  0.00    -0.398 N  
HETATM   17  O   UNL     1      -9.874  13.316  66.484  1.00  0.00    -0.267 OA 
HETATM   18  H   UNL     1      -8.719  12.966  69.545  1.00  0.00     0.000 HD 
HETATM   19  C   UNL     1      -9.080  11.120  68.468  1.00  0.00    -0.175 C  
ENDBRANCH  10  11
ENDBRANCH   6  10
TORSDOF 2
ENDMDL
MODEL       40
REMARK 921   NORMALIZED FREE ENERGY PREDICTED BY IDOCK:   -4.45 KCAL/MOL
REMARK 922        TOTAL FREE ENERGY PREDICTED BY IDOCK:   -5.38 KCAL/MOL
REMARK 923 INTER-LIGAND FREE ENERGY PREDICTED BY IDOCK:   -4.91 KCAL/MOL
REMARK 924 INTRA-LIGAND FREE ENERGY PREDICTED BY IDOCK:   -0.47 KCAL/MOL
REMARK 927      BINDING AFFINITY PREDICTED BY RF-SCORE:    0.00 PKD
ROOT
HETATM    1  O   UNL     1      -9.829  12.986  66.333  1.00  0.00    -0.259 OA 
HETATM    2  S   UNL     1     -10.166  13.145  67.728  1.00  0.00    -0.237 S  
HETATM    3  C   UNL     1     -11.641  12.229  68.096  1.00  0.00    -0.339 C  
HETATM    4  O   UNL     1     -10.245  14.457  68.338  1.00  0.00    -0.229 OA 
HETATM    5  C   UNL     1     -11.382  10.748  67.884  1.00  0.00    -0.299 C  
HETATM    6  N   UNL     1     -10.259  10.172  68.649  1.00  0.00    -0.168 NA 
HETATM    7  N   UNL     1      -9.031  12.271  68.614  1.00  0.00    -0.382 N  
HETATM    8  C   UNL     1      -9.013  10.848  68.302  1.00  0.00    -0.150 C  
HETATM    9  H   UNL     1      -8.414  12.699  69.304  1.00  0.00     0.000 HD 
ENDROOT
BRANCH   6  10
HETATM   10  C   UNL     1     -10.461  10.137  70.099  1.00  0.00    -0.255 C  
BRANCH  10  11
HETATM   11  N   UNL     1      -9.972   8.886  70.667  1.00  0.00    -0.200 NA 
HETATM   12  C   UNL     1     -10.237   8.679  72.096  1.00  0.00    -0.323 C  
HETATM   13  C   UNL     1     -11.654   8.296  72.500  1.00  0.00    -0.385 C  
HETATM   14  S   UNL     1     -12.280   6.969  71.499  1.00  0.00    -0.384 S  
HETATM   15  O   UNL     1     -13.723   7.062  71.467  1.00  0.00    -0.343 OA 
HETATM   16  N   UNL     1     -11.757   7.424  69.984  1.00  0.00    -0.507 N  
HETATM   17  O   UNL     1     -11.603   5.744  71.861  1.00  0.00    -0.232 OA 
HETATM   18  H   UNL     1     -12.387   7.489  69.184  1.00  0.00     0.000 HD 
HETATM   19  C   UNL     1     -10.349   7.721  69.884  1.00  0.00    -0.223 C  
ENDBRANCH  10  11
ENDBRANCH   6  10
TORSDOF 2
ENDMDL
MODEL       41
REMARK 921   NORMALIZED FREE ENERGY PREDICTED BY IDOCK:   -4.43 KCAL/MOL
REMARK 922        TOTAL FREE ENERGY PREDICTED BY IDOCK:   -5.35 KCAL/MOL
REMARK 923 INTER-LIGAND FREE ENERGY PREDICTED BY IDOCK:   -5.05 KCAL/MOL
REMARK 924 INTRA-LIGAND FREE ENERGY PREDICTED BY IDOCK:   -0.30 KCAL/MOL
REMARK 927      BINDING AFFINITY PREDICTED BY RF-SCORE:    0.00 PKD
ROOT
HETATM    1  O   UNL     1      -8.428  19.778  66.857  1.00  0.00    -0.294 OA 
HETATM    2  S   UNL     1      -7.791  18.570  66.388  1.00  0.00    -0.260 S  
HETATM    3  C   UNL     1      -7.113  17.677  67.763  1.00  0.00    -0.185 C  
HETATM    4  O   UNL     1      -6.827  18.599  65.307  1.00  0.00    -0.506 OA 
HETATM    5  C   UNL     1      -8.238  17.238  68.685  1.00  0.00    -0.262 C  
HETATM    6  N   UNL     1      -9.301  16.424  68.065  1.00  0.00    -0.214 NA 
HETATM    7  N   UNL     1      -9.016  17.518  65.911  1.00  0.00    -0.000 N  
HETATM    8  C   UNL     1      -9.939  17.167  66.983  1.00  0.00    -0.287 C  
HETATM    9  H   UNL     1      -9.104  17.160  64.960  1.00  0.00     0.000 HD 
ENDROOT
BRANCH   6  10
HETATM   10  C   UNL     1      -8.873  15.096  67.619  1.00  0.00    -0.173 C  
BRANCH  10  11
HETATM   11  N   UNL     1      -9.413  14.053  68.485  1.00  0.00    -0.210 NA 
HETATM   12  C   UNL     1     -10.803  14.235  68.923  1.00  0.00    -0.257 C  
HETATM   13  C   UNL     1     -11.902  13.949  67.909  1.00  0.00    -0.378 C  
HETATM   14  S   UNL     1     -11.648  12.388  67.097  1.00  0.00    -0.353 S  
HETATM   15  O   UNL     1     -12.280  12.442  65.797  1.00  0.00    -0.620 OA 
HETATM   16  N   UNL     1     -10.007  12.428  66.813  1.00  0.00    -0.221 N  
HETATM   17  O   UNL     1     -11.919  11.319  68.032  1.00  0.00    -0.621 OA 
HETATM   18  H   UNL     1      -9.608  12.263  65.889  1.00  0.00     0.000 HD 
HETATM   19  C   UNL     1      -9.191  12.714  67.967  1.00  0.00    -0.208 C  
ENDBRANCH  10  11
ENDBRANCH   6  10
TORSDOF 2
ENDMDL
MODEL       42
REMARK 921   NORMALIZED FREE ENERGY PREDICTED BY IDOCK:   -4.42 KCAL/MOL
REMARK 922        TOTAL FREE ENERGY PREDICTED BY IDOCK:   -5.35 KCAL/MOL
REMARK 923 INTER-LIGAND FREE ENERGY PREDICTED BY IDOCK:   -5.07 KCAL/MOL
REMARK 924 INTRA-LIGAND FREE ENERGY PREDICTED BY IDOCK:   -0.28 KCAL/MOL
REMARK 927      BINDING AFFINITY PREDICTED BY RF-SCORE:    0.00 PKD
ROOT
HETATM    1  O   UNL     1      -6.241  15.468  70.259  1.00  0.00    -0.137 OA 
HETATM    2  S   UNL     1      -6.478  15.692  68.852  1.00  0.00    -0.119 S  
HETATM    3  C   UNL     1      -6.306  14.164  67.965  1.00  0.00    -0.149 C  
HETATM    4  O   UNL     1      -5.797  16.749  68.133  1.00  0.00    -0.113 OA 
HETATM    5  C   UNL     1      -7.371  13.186  68.431  1.00  0.00    -0.116 C  
HETATM    6  N   UNL     1      -8.767  13.650  68.316  1.00  0.00    -0.171 NA 
HETATM    7  N   UNL     1      -8.128  15.970  68.668  1.00  0.00    -0.175 N  
HETATM    8  C   UNL     1      -8.964  14.860  69.107  1.00  0.00    -0.140 C  
HETATM    9  H   UNL     1      -8.507  16.836  68.284  1.00  0.00     0.000 HD 
ENDROOT
BRANCH   6  10
HETATM   10  C   UNL     1      -9.241  13.829  66.941  1.00  0.00    -0.255 C  
BRANCH  10  11
HETATM   11  N   UNL     1     -10.167  12.766  66.563  1.00  0.00    -0.248 NA 
HETATM   12  C   UNL     1     -11.552  12.924  67.024  1.00  0.00    -0.362 C  
HETATM   13  C   UNL     1     -12.426  13.932  66.291  1.00  0.00    -0.409 C  
HETATM   14  S   UNL     1     -12.319  13.726  64.528  1.00  0.00    -0.322 S  
HETATM   15  O   UNL     1     -12.613  14.996  63.901  1.00  0.00    -0.813 OA 
HETATM   16  N   UNL     1     -10.684  13.479  64.324  1.00  0.00    -0.547 N  
HETATM   17  O   UNL     1     -13.010  12.512  64.152  1.00  0.00    -0.740 OA 
HETATM   18  H   UNL     1     -10.127  14.022  63.664  1.00  0.00     0.000 HD 
HETATM   19  C   UNL     1     -10.112  12.442  65.148  1.00  0.00    -0.256 C  
ENDBRANCH  10  11
ENDBRANCH   6  10
TORSDOF 2
ENDMDL
MODEL       43
REMARK 921   NORMALIZED FREE ENERGY PREDICTED BY IDOCK:   -4.42 KCAL/MOL
REMARK 922        TOTAL FREE ENERGY PREDICTED BY IDOCK:   -5.35 KCAL/MOL
REMARK 923 INTER-LIGAND FREE ENERGY PREDICTED BY IDOCK:   -4.96 KCAL/MOL
REMARK 924 INTRA-LIGAND FREE ENERGY PREDICTED BY IDOCK:   -0.39 KCAL/MOL
REMARK 927      BINDING AFFINITY PREDICTED BY RF-SCORE:    0.00 PKD
ROOT
HETATM    1  O   UNL     1     -11.820  13.811  66.065  1.00  0.00    -0.353 OA 
HETATM    2  S   UNL     1     -10.655  14.136  65.276  1.00  0.00    -0.398 S  
HETATM    3  C   UNL     1     -10.662  15.866  64.880  1.00  0.00    -0.341 C  
HETATM    4  O   UNL     1     -10.307  13.370  64.097  1.00  0.00    -0.380 OA 
HETATM    5  C   UNL     1     -10.554  16.678  66.159  1.00  0.00    -0.215 C  
HETATM    6  N   UNL     1      -9.386  16.389  67.011  1.00  0.00    -0.223 NA 
HETATM    7  N   UNL     1      -9.325  14.062  66.307  1.00  0.00    -0.470 N  
HETATM    8  C   UNL     1      -9.398  14.991  67.427  1.00  0.00    -0.201 C  
HETATM    9  H   UNL     1      -8.541  13.425  66.159  1.00  0.00     0.000 HD 
ENDROOT
BRANCH   6  10
HETATM   10  C   UNL     1      -8.095  16.759  66.425  1.00  0.00    -0.320 C  
BRANCH  10  11
HETATM   11  N   UNL     1      -7.105  17.025  67.463  1.00  0.00    -0.146 NA 
HETATM   12  C   UNL     1      -5.835  17.607  67.010  1.00  0.00    -0.145 C  
HETATM   13  C   UNL     1      -5.832  19.085  66.644  1.00  0.00    -0.161 C  
HETATM   14  S   UNL     1      -6.616  20.069  67.899  1.00  0.00    -0.258 S  
HETATM   15  O   UNL     1      -7.137  21.268  67.279  1.00  0.00    -0.522 OA 
HETATM   16  N   UNL     1      -7.942  19.130  68.271  1.00  0.00    -0.312 N  
HETATM   17  O   UNL     1      -5.760  20.122  69.062  1.00  0.00    -0.238 OA 
HETATM   18  H   UNL     1      -8.893  19.502  68.270  1.00  0.00     0.000 HD 
HETATM   19  C   UNL     1      -7.650  17.756  68.595  1.00  0.00    -0.276 C  
ENDBRANCH  10  11
ENDBRANCH   6  10
TORSDOF 2
ENDMDL
MODEL       44
REMARK 921   NORMALIZED FREE ENERGY PREDICTED BY IDOCK:   -4.41 KCAL/MOL
REMARK 922        TOTAL FREE ENERGY PREDICTED BY IDOCK:   -5.33 KCAL/MOL
REMARK 923 INTER-LIGAND FREE ENERGY PREDICTED BY IDOCK:   -4.93 KCAL/MOL
REMARK 924 INTRA-LIGAND FREE ENERGY PREDICTED BY IDOCK:   -0.40 KCAL/MOL
REMARK 927      BINDING AFFINITY PREDICTED BY RF-SCORE:    0.00 PKD
ROOT
HETATM    1  O   UNL     1     -13.027  13.475  64.603  1.00  0.00    -0.660 OA 
HETATM    2  S   UNL     1     -11.713  12.963  64.913  1.00  0.00    -0.371 S  
HETATM    3  C   UNL     1     -10.510  14.256  64.742  1.00  0.00    -0.395 C  
HETATM    4  O   UNL     1     -11.213  11.751  64.296  1.00  0.00    -0.334 OA 
HETATM    5  C   UNL     1     -10.796  15.349  65.757  1.00  0.00    -0.343 C  
HETATM    6  N   UNL     1     -10.841  14.924  67.169  1.00  0.00    -0.304 NA 
HETATM    7  N   UNL     1     -11.661  12.712  66.577  1.00  0.00    -0.360 N  
HETATM    8  C   UNL     1     -11.882  13.920  67.361  1.00  0.00    -0.402 C  
HETATM    9  H   UNL     1     -11.489  11.798  66.997  1.00  0.00     0.000 HD 
ENDROOT
BRANCH   6  10
HETATM   10  C   UNL     1      -9.558  14.471  67.713  1.00  0.00    -0.215 C  
BRANCH  10  11
HETATM   11  N   UNL     1      -9.174  15.260  68.878  1.00  0.00    -0.199 NA 
HETATM   12  C   UNL     1      -7.794  15.087  69.348  1.00  0.00    -0.179 C  
HETATM   13  C   UNL     1      -6.689  15.757  68.543  1.00  0.00    -0.119 C  
HETATM   14  S   UNL     1      -7.076  17.456  68.195  1.00  0.00    -0.203 S  
HETATM   15  O   UNL     1      -6.385  17.843  66.984  1.00  0.00    -0.153 OA 
HETATM   16  N   UNL     1      -8.688  17.350  67.790  1.00  0.00    -0.228 N  
HETATM   17  O   UNL     1      -6.966  18.226  69.414  1.00  0.00    -0.203 OA 
HETATM   18  H   UNL     1      -9.062  17.740  66.925  1.00  0.00     0.000 HD 
HETATM   19  C   UNL     1      -9.518  16.666  68.750  1.00  0.00    -0.258 C  
ENDBRANCH  10  11
ENDBRANCH   6  10
TORSDOF 2
ENDMDL
MODEL       45
REMARK 921   NORMALIZED FREE ENERGY PREDICTED BY IDOCK:   -4.36 KCAL/MOL
REMARK 922        TOTAL FREE ENERGY PREDICTED BY IDOCK:   -5.27 KCAL/MOL
REMARK 923 INTER-LIGAND FREE ENERGY PREDICTED BY IDOCK:   -5.06 KCAL/MOL
REMARK 924 INTRA-LIGAND FREE ENERGY PREDICTED BY IDOCK:   -0.21 KCAL/MOL
REMARK 927      BINDING AFFINITY PREDICTED BY RF-SCORE:    0.00 PKD
ROOT
HETATM    1  O   UNL     1      -8.288   7.894  67.838  1.00  0.00    -0.124 OA 
HETATM    2  S   UNL     1      -9.529   8.462  68.311  1.00  0.00    -0.139 S  
HETATM    3  C   UNL     1      -9.214  10.026  69.089  1.00  0.00    -0.190 C  
HETATM    4  O   UNL     1     -10.446   7.692  69.126  1.00  0.00    -0.215 OA 
HETATM    5  C   UNL     1      -8.661  10.998  68.062  1.00  0.00    -0.134 C  
HETATM    6  N   UNL     1      -9.496  11.220  66.866  1.00  0.00    -0.175 NA 
HETATM    7  N   UNL     1     -10.393   8.960  66.955  1.00  0.00    -0.271 N  
HETATM    8  C   UNL     1      -9.701   9.963  66.154  1.00  0.00    -0.236 C  
HETATM    9  H   UNL     1     -11.314   8.595  66.716  1.00  0.00     0.000 HD 
ENDROOT
BRANCH   6  10
HETATM   10  C   UNL     1     -10.768  11.899  67.125  1.00  0.00    -0.240 C  
BRANCH  10  11
HETATM   11  N   UNL     1     -10.804  13.208  66.482  1.00  0.00    -0.278 NA 
HETATM   12  C   UNL     1     -10.085  13.319  65.206  1.00  0.00    -0.239 C  
HETATM   13  C   UNL     1     -10.741  12.708  63.976  1.00  0.00    -0.425 C  
HETATM   14  S   UNL     1     -12.445  13.195  63.837  1.00  0.00    -0.224 S  
HETATM   15  O   UNL     1     -13.153  12.171  63.100  1.00  0.00    -0.615 OA 
HETATM   16  N   UNL     1     -12.956  13.060  65.417  1.00  0.00    -0.389 N  
HETATM   17  O   UNL     1     -12.509  14.589  63.459  1.00  0.00    -0.727 OA 
HETATM   18  H   UNL     1     -13.782  12.522  65.681  1.00  0.00     0.000 HD 
HETATM   19  C   UNL     1     -12.146  13.757  66.385  1.00  0.00    -0.444 C  
ENDBRANCH  10  11
ENDBRANCH   6  10
TORSDOF 2
ENDMDL
MODEL       46
REMARK 921   NORMALIZED FREE ENERGY PREDICTED BY IDOCK:   -4.28 KCAL/MOL
REMARK 922        TOTAL FREE ENERGY PREDICTED BY IDOCK:   -5.19 KCAL/MOL
REMARK 923 INTER-LIGAND FREE ENERGY PREDICTED BY IDOCK:   -4.96 KCAL/MOL
REMARK 924 INTRA-LIGAND FREE ENERGY PREDICTED BY IDOCK:   -0.23 KCAL/MOL
REMARK 927      BINDING AFFINITY PREDICTED BY RF-SCORE:    0.00 PKD
ROOT
HETATM    1  O   UNL     1     -10.195  13.293  66.168  1.00  0.00    -0.283 OA 
HETATM    2  S   UNL     1     -11.332  12.439  66.419  1.00  0.00    -0.361 S  
HETATM    3  C   UNL     1     -10.775  10.800  66.813  1.00  0.00    -0.231 C  
HETATM    4  O   UNL     1     -12.437  12.364  65.485  1.00  0.00    -0.643 OA 
HETATM    5  C   UNL     1      -9.973  10.836  68.102  1.00  0.00    -0.160 C  
HETATM    6  N   UNL     1     -10.663  11.401  69.277  1.00  0.00    -0.190 NA 
HETATM    7  N   UNL     1     -11.985  12.907  67.898  1.00  0.00    -0.332 N  
HETATM    8  C   UNL     1     -11.057  12.781  69.016  1.00  0.00    -0.233 C  
HETATM    9  H   UNL     1     -12.941  13.246  68.003  1.00  0.00     0.000 HD 
ENDROOT
BRANCH   6  10
HETATM   10  C   UNL     1     -11.793  10.606  69.763  1.00  0.00    -0.304 C  
BRANCH  10  11
HETATM   11  N   UNL     1     -11.508  10.035  71.074  1.00  0.00    -0.374 NA 
HETATM   12  C   UNL     1     -12.581   9.234  71.677  1.00  0.00    -0.365 C  
HETATM   13  C   UNL     1     -12.805   7.832  71.127  1.00  0.00    -0.156 C  
HETATM   14  S   UNL     1     -11.278   6.931  71.001  1.00  0.00    -0.299 S  
HETATM   15  O   UNL     1     -11.419   5.938  69.959  1.00  0.00    -0.300 OA 
HETATM   16  N   UNL     1     -10.257   8.097  70.391  1.00  0.00    -0.198 N  
HETATM   17  O   UNL     1     -10.825   6.583  72.329  1.00  0.00    -0.217 OA 
HETATM   18  H   UNL     1      -9.688   7.944  69.558  1.00  0.00     0.000 HD 
HETATM   19  C   UNL     1     -10.234   9.338  71.125  1.00  0.00    -0.317 C  
ENDBRANCH  10  11
ENDBRANCH   6  10
TORSDOF 2
ENDMDL
MODEL       47
REMARK 921   NORMALIZED FREE ENERGY PREDICTED BY IDOCK:   -4.27 KCAL/MOL
REMARK 922        TOTAL FREE ENERGY PREDICTED BY IDOCK:   -5.18 KCAL/MOL
REMARK 923 INTER-LIGAND FREE ENERGY PREDICTED BY IDOCK:   -4.90 KCAL/MOL
REMARK 924 INTRA-LIGAND FREE ENERGY PREDICTED BY IDOCK:   -0.28 KCAL/MOL
REMARK 927      BINDING AFFINITY PREDICTED BY RF-SCORE:    0.00 PKD
ROOT
HETATM    1  O   UNL     1     -12.724  14.464  64.055  1.00  0.00    -0.739 OA 
HETATM    2  S   UNL     1     -11.534  14.915  64.737  1.00  0.00    -0.385 S  
HETATM    3  C   UNL     1     -11.638  14.503  66.460  1.00  0.00    -0.371 C  
HETATM    4  O   UNL     1     -11.054  16.274  64.592  1.00  0.00    -0.634 OA 
HETATM    5  C   UNL     1     -11.676  12.993  66.617  1.00  0.00    -0.381 C  
HETATM    6  N   UNL     1     -10.550  12.253  66.017  1.00  0.00    -0.248 NA 
HETATM    7  N   UNL     1     -10.275  13.907  64.255  1.00  0.00    -0.533 N  
HETATM    8  C   UNL     1     -10.490  12.502  64.581  1.00  0.00    -0.319 C  
HETATM    9  H   UNL     1      -9.440  14.247  63.779  1.00  0.00     0.000 HD 
ENDROOT
BRANCH   6  10
HETATM   10  C   UNL     1      -9.252  12.491  66.654  1.00  0.00    -0.223 C  
BRANCH  10  11
HETATM   11  N   UNL     1      -8.644  11.239  67.091  1.00  0.00    -0.142 NA 
HETATM   12  C   UNL     1      -7.348  10.906  66.487  1.00  0.00    -0.142 C  
HETATM   13  C   UNL     1      -6.125  11.662  66.987  1.00  0.00    -0.138 C  
HETATM   14  S   UNL     1      -6.056  11.687  68.763  1.00  0.00    -0.053 S  
HETATM   15  O   UNL     1      -5.317  12.861  69.174  1.00  0.00    -0.068 OA 
HETATM   16  N   UNL     1      -7.649  11.988  69.150  1.00  0.00    -0.331 N  
HETATM   17  O   UNL     1      -5.716  10.366  69.241  1.00  0.00    -0.038 OA 
HETATM   18  H   UNL     1      -7.926  12.745  69.774  1.00  0.00     0.000 HD 
HETATM   19  C   UNL     1      -8.607  11.101  68.537  1.00  0.00    -0.157 C  
ENDBRANCH  10  11
ENDBRANCH   6  10
TORSDOF 2
ENDMDL
MODEL       48
REMARK 921   NORMALIZED FREE ENERGY PREDICTED BY IDOCK:   -4.26 KCAL/MOL
REMARK 922        TOTAL FREE ENERGY PREDICTED BY IDOCK:   -5.17 KCAL/MOL
REMARK 923 INTER-LIGAND FREE ENERGY PREDICTED BY IDOCK:   -5.07 KCAL/MOL
REMARK 924 INTRA-LIGAND FREE ENERGY PREDICTED BY IDOCK:   -0.10 KCAL/MOL
REMARK 927      BINDING AFFINITY PREDICTED BY RF-SCORE:    0.00 PKD
ROOT
HETATM    1  O   UNL     1      -6.595  20.278  67.367  1.00  0.00    -0.205 OA 
HETATM    2  S   UNL     1      -7.368  19.364  66.559  1.00  0.00    -0.252 S  
HETATM    3  C   UNL     1      -7.144  17.706  67.150  1.00  0.00    -0.173 C  
HETATM    4  O   UNL     1      -7.281  19.379  65.113  1.00  0.00    -0.393 OA 
HETATM    5  C   UNL     1      -7.688  17.595  68.564  1.00  0.00    -0.281 C  
HETATM    6  N   UNL     1      -9.101  17.979  68.744  1.00  0.00    -0.260 NA 
HETATM    7  N   UNL     1      -8.988  19.612  66.945  1.00  0.00    -0.315 N  
HETATM    8  C   UNL     1      -9.302  19.368  68.347  1.00  0.00    -0.367 C  
HETATM    9  H   UNL     1      -9.685  19.906  66.261  1.00  0.00     0.000 HD 
ENDROOT
BRANCH   6  10
HETATM   10  C   UNL     1     -10.064  17.092  68.085  1.00  0.00    -0.311 C  
BRANCH  10  11
HETATM   11  N   UNL     1      -9.971  15.734  68.609  1.00  0.00    -0.203 NA 
HETATM   12  C   UNL     1      -9.845  15.613  70.067  1.00  0.00    -0.083 C  
HETATM   13  C   UNL     1     -11.098  15.838  70.901  1.00  0.00    -0.315 C  
HETATM   14  S   UNL     1     -12.479  14.918  70.264  1.00  0.00    -0.319 S  
HETATM   15  O   UNL     1     -13.697  15.599  70.643  1.00  0.00    -0.402 OA 
HETATM   16  N   UNL     1     -12.307  15.161  68.624  1.00  0.00    -0.579 N  
HETATM   17  O   UNL     1     -12.275  13.512  70.535  1.00  0.00    -0.345 OA 
HETATM   18  H   UNL     1     -13.070  15.504  68.040  1.00  0.00     0.000 HD 
HETATM   19  C   UNL     1     -11.003  14.853  68.091  1.00  0.00    -0.272 C  
ENDBRANCH  10  11
ENDBRANCH   6  10
TORSDOF 2
ENDMDL
MODEL       49
REMARK 921   NORMALIZED FREE ENERGY PREDICTED BY IDOCK:   -4.26 KCAL/MOL
REMARK 922        TOTAL FREE ENERGY PREDICTED BY IDOCK:   -5.17 KCAL/MOL
REMARK 923 INTER-LIGAND FREE ENERGY PREDICTED BY IDOCK:   -4.92 KCAL/MOL
REMARK 924 INTRA-LIGAND FREE ENERGY PREDICTED BY IDOCK:   -0.25 KCAL/MOL
REMARK 927      BINDING AFFINITY PREDICTED BY RF-SCORE:    0.00 PKD
ROOT
HETATM    1  O   UNL     1     -10.429  18.745  67.980  1.00  0.00    -0.380 OA 
HETATM    2  S   UNL     1      -9.459  17.679  68.076  1.00  0.00    -0.292 S  
HETATM    3  C   UNL     1     -10.256  16.194  68.631  1.00  0.00    -0.244 C  
HETATM    4  O   UNL     1      -8.214  17.858  68.793  1.00  0.00    -0.291 OA 
HETATM    5  C   UNL     1     -11.278  15.752  67.598  1.00  0.00    -0.246 C  
HETATM    6  N   UNL     1     -10.765  15.537  66.232  1.00  0.00    -0.310 NA 
HETATM    7  N   UNL     1      -9.050  17.241  66.503  1.00  0.00    -0.257 N  
HETATM    8  C   UNL     1     -10.180  16.768  65.712  1.00  0.00    -0.291 C  
HETATM    9  H   UNL     1      -8.100  17.300  66.138  1.00  0.00     0.000 HD 
ENDROOT
BRANCH   6  10
HETATM   10  C   UNL     1      -9.839  14.409  66.097  1.00  0.00    -0.320 C  
BRANCH  10  11
HETATM   11  N   UNL     1     -10.377  13.211  66.732  1.00  0.00    -0.250 NA 
HETATM   12  C   UNL     1     -11.498  12.562  66.040  1.00  0.00    -0.377 C  
HETATM   13  C   UNL     1     -11.177  11.746  64.795  1.00  0.00    -0.271 C  
HETATM   14  S   UNL     1      -9.822  10.631  65.079  1.00  0.00    -0.319 S  
HETATM   15  O   UNL     1      -9.173  10.371  63.813  1.00  0.00    -0.221 OA 
HETATM   16  N   UNL     1      -8.775  11.599  65.942  1.00  0.00    -0.388 N  
HETATM   17  O   UNL     1     -10.264   9.561  65.944  1.00  0.00    -0.266 OA 
HETATM   18  H   UNL     1      -7.798  11.723  65.674  1.00  0.00     0.000 HD 
HETATM   19  C   UNL     1      -9.349  12.250  67.094  1.00  0.00    -0.196 C  
ENDBRANCH  10  11
ENDBRANCH   6  10
TORSDOF 2
ENDMDL
MODEL       50
REMARK 921   NORMALIZED FREE ENERGY PREDICTED BY IDOCK:   -4.26 KCAL/MOL
REMARK 922        TOTAL FREE ENERGY PREDICTED BY IDOCK:   -5.17 KCAL/MOL
REMARK 923 INTER-LIGAND FREE ENERGY PREDICTED BY IDOCK:   -4.86 KCAL/MOL
REMARK 924 INTRA-LIGAND FREE ENERGY PREDICTED BY IDOCK:   -0.31 KCAL/MOL
REMARK 927      BINDING AFFINITY PREDICTED BY RF-SCORE:    0.00 PKD
ROOT
HETATM    1  O   UNL     1     -10.046  10.377  66.423  1.00  0.00    -0.212 OA 
HETATM    2  S   UNL     1     -10.695  11.577  65.947  1.00  0.00    -0.257 S  
HETATM    3  C   UNL     1     -11.776  12.212  67.204  1.00  0.00    -0.302 C  
HETATM    4  O   UNL     1     -11.369  11.609  64.666  1.00  0.00    -0.291 OA 
HETATM    5  C   UNL     1     -10.957  12.619  68.416  1.00  0.00    -0.257 C  
HETATM    6  N   UNL     1      -9.883  13.600  68.171  1.00  0.00    -0.231 NA 
HETATM    7  N   UNL     1      -9.526  12.788  65.906  1.00  0.00    -0.447 N  
HETATM    8  C   UNL     1      -8.927  13.070  67.205  1.00  0.00    -0.223 C  
HETATM    9  H   UNL     1      -9.262  13.278  65.052  1.00  0.00     0.000 HD 
ENDROOT
BRANCH   6  10
HETATM   10  C   UNL     1     -10.349  14.933  67.783  1.00  0.00    -0.244 C  
BRANCH  10  11
HETATM   11  N   UNL     1      -9.416  15.567  66.858  1.00  0.00    -0.220 NA 
HETATM   12  C   UNL     1     -10.000  16.112  65.626  1.00  0.00    -0.297 C  
HETATM   13  C   UNL     1     -10.767  17.422  65.732  1.00  0.00    -0.120 C  
HETATM   14  S   UNL     1      -9.850  18.642  66.642  1.00  0.00    -0.374 S  
HETATM   15  O   UNL     1     -10.788  19.568  67.238  1.00  0.00    -0.493 OA 
HETATM   16  N   UNL     1      -9.244  17.729  67.898  1.00  0.00    -0.260 N  
HETATM   17  O   UNL     1      -8.738  19.096  65.837  1.00  0.00    -0.450 OA 
HETATM   18  H   UNL     1      -9.361  17.998  68.875  1.00  0.00     0.000 HD 
HETATM   19  C   UNL     1      -8.543  16.532  67.504  1.00  0.00    -0.177 C  
ENDBRANCH  10  11
ENDBRANCH   6  10
TORSDOF 2
ENDMDL
MODEL       51
REMARK 921   NORMALIZED FREE ENERGY PREDICTED BY IDOCK:   -4.26 KCAL/MOL
REMARK 922        TOTAL FREE ENERGY PREDICTED BY IDOCK:   -5.16 KCAL/MOL
REMARK 923 INTER-LIGAND FREE ENERGY PREDICTED BY IDOCK:   -5.26 KCAL/MOL
REMARK 924 INTRA-LIGAND FREE ENERGY PREDICTED BY IDOCK:    0.09 KCAL/MOL
REMARK 927      BINDING AFFINITY PREDICTED BY RF-SCORE:    0.00 PKD
ROOT
HETATM    1  O   UNL     1      -8.543  17.047  65.787  1.00  0.00    -0.517 OA 
HETATM    2  S   UNL     1      -9.939  17.007  66.156  1.00  0.00    -0.274 S  
HETATM    3  C   UNL     1     -10.820  15.931  65.052  1.00  0.00    -0.426 C  
HETATM    4  O   UNL     1     -10.699  18.223  66.356  1.00  0.00    -0.321 OA 
HETATM    5  C   UNL     1     -10.295  14.513  65.203  1.00  0.00    -0.411 C  
HETATM    6  N   UNL     1     -10.347  13.947  66.564  1.00  0.00    -0.281 NA 
HETATM    7  N   UNL     1     -10.046  16.131  67.590  1.00  0.00    -0.243 N  
HETATM    8  C   UNL     1      -9.558  14.763  67.481  1.00  0.00    -0.208 C  
HETATM    9  H   UNL     1     -10.419  16.523  68.455  1.00  0.00     0.000 HD 
ENDROOT
BRANCH   6  10
HETATM   10  C   UNL     1     -11.698  13.720  67.082  1.00  0.00    -0.385 C  
BRANCH  10  11
HETATM   11  N   UNL     1     -11.923  12.305  67.359  1.00  0.00    -0.544 NA 
HETATM   12  C   UNL     1     -11.203  11.357  66.498  1.00  0.00    -0.209 C  
HETATM   13  C   UNL     1      -9.716  11.162  66.759  1.00  0.00    -0.193 C  
HETATM   14  S   UNL     1      -9.388  10.891  68.485  1.00  0.00    -0.187 S  
HETATM   15  O   UNL     1      -8.037  11.326  68.766  1.00  0.00    -0.145 OA 
HETATM   16  N   UNL     1     -10.390  12.019  69.191  1.00  0.00    -0.427 N  
HETATM   17  O   UNL     1      -9.857   9.575  68.855  1.00  0.00    -0.165 OA 
HETATM   18  H   UNL     1     -10.054  12.697  69.876  1.00  0.00     0.000 HD 
HETATM   19  C   UNL     1     -11.767  11.970  68.764  1.00  0.00    -0.321 C  
ENDBRANCH  10  11
ENDBRANCH   6  10
TORSDOF 2
ENDMDL
MODEL       52
REMARK 921   NORMALIZED FREE ENERGY PREDICTED BY IDOCK:   -4.23 KCAL/MOL
REMARK 922        TOTAL FREE ENERGY PREDICTED BY IDOCK:   -5.13 KCAL/MOL
REMARK 923 INTER-LIGAND FREE ENERGY PREDICTED BY IDOCK:   -4.99 KCAL/MOL
REMARK 924 INTRA-LIGAND FREE ENERGY PREDICTED BY IDOCK:   -0.15 KCAL/MOL
REMARK 927      BINDING AFFINITY PREDICTED BY RF-SCORE:    0.00 PKD
ROOT
HETATM    1  O   UNL     1     -12.432  15.337  63.875  1.00  0.00    -0.737 OA 
HETATM    2  S   UNL     1     -11.316  15.270  64.790  1.00  0.00    -0.336 S  
HETATM    3  C   UNL     1     -11.848  14.569  66.331  1.00  0.00    -0.349 C  
HETATM    4  O   UNL     1     -10.483  16.427  65.046  1.00  0.00    -0.642 OA 
HETATM    5  C   UNL     1     -12.304  13.138  66.104  1.00  0.00    -0.315 C  
HETATM    6  N   UNL     1     -11.315  12.235  65.485  1.00  0.00    -0.336 NA 
HETATM    7  N   UNL     1     -10.294  14.054  64.234  1.00  0.00    -0.510 N  
HETATM    8  C   UNL     1     -10.922  12.740  64.174  1.00  0.00    -0.398 C  
HETATM    9  H   UNL     1      -9.324  14.221  63.965  1.00  0.00     0.000 HD 
ENDROOT
BRANCH   6  10
HETATM   10  C   UNL     1     -10.144  11.946  66.318  1.00  0.00    -0.220 C  
BRANCH  10  11
HETATM   11  N   UNL     1      -9.920  10.509  66.426  1.00  0.00    -0.210 NA 
HETATM   12  C   UNL     1      -9.616   9.808  65.172  1.00  0.00    -0.287 C  
HETATM   13  C   UNL     1      -8.216   9.973  64.597  1.00  0.00    -0.163 C  
HETATM   14  S   UNL     1      -6.968   9.714  65.835  1.00  0.00    -0.101 S  
HETATM   15  O   UNL     1      -5.786  10.455  65.453  1.00  0.00    -0.095 OA 
HETATM   16  N   UNL     1      -7.621  10.527  67.135  1.00  0.00    -0.095 N  
HETATM   17  O   UNL     1      -6.913   8.307  66.164  1.00  0.00    -0.060 OA 
HETATM   18  H   UNL     1      -7.101  11.234  67.655  1.00  0.00     0.000 HD 
HETATM   19  C   UNL     1      -8.974  10.159  67.472  1.00  0.00    -0.131 C  
ENDBRANCH  10  11
ENDBRANCH   6  10
TORSDOF 2
ENDMDL
MODEL       53
REMARK 921   NORMALIZED FREE ENERGY PREDICTED BY IDOCK:   -4.23 KCAL/MOL
REMARK 922        TOTAL FREE ENERGY PREDICTED BY IDOCK:   -5.13 KCAL/MOL
REMARK 923 INTER-LIGAND FREE ENERGY PREDICTED BY IDOCK:   -4.83 KCAL/MOL
REMARK 924 INTRA-LIGAND FREE ENERGY PREDICTED BY IDOCK:   -0.30 KCAL/MOL
REMARK 927      BINDING AFFINITY PREDICTED BY RF-SCORE:    0.00 PKD
ROOT
HETATM    1  O   UNL     1     -10.779  13.590  64.707  1.00  0.00    -0.353 OA 
HETATM    2  S   UNL     1     -11.676  12.542  65.134  1.00  0.00    -0.393 S  
HETATM    3  C   UNL     1     -11.130  10.984  64.483  1.00  0.00     0.036 C  
HETATM    4  O   UNL     1     -13.109  12.663  64.963  1.00  0.00    -0.808 OA 
HETATM    5  C   UNL     1      -9.767  10.644  65.062  1.00  0.00    -0.279 C  
HETATM    6  N   UNL     1      -9.683  10.603  66.534  1.00  0.00    -0.187 NA 
HETATM    7  N   UNL     1     -11.407  12.301  66.778  1.00  0.00    -0.318 N  
HETATM    8  C   UNL     1     -10.042  11.900  67.097  1.00  0.00    -0.204 C  
HETATM    9  H   UNL     1     -12.132  12.424  67.485  1.00  0.00     0.000 HD 
ENDROOT
BRANCH   6  10
HETATM   10  C   UNL     1     -10.445   9.520  67.161  1.00  0.00    -0.253 C  
BRANCH  10  11
HETATM   11  N   UNL     1      -9.738   8.249  67.050  1.00  0.00    -0.191 NA 
HETATM   12  C   UNL     1      -8.768   7.956  68.113  1.00  0.00    -0.126 C  
HETATM   13  C   UNL     1      -9.318   7.520  69.464  1.00  0.00    -0.153 C  
HETATM   14  S   UNL     1     -10.537   6.238  69.289  1.00  0.00    -0.309 S  
HETATM   15  O   UNL     1     -11.433   6.302  70.423  1.00  0.00    -0.364 OA 
HETATM   16  N   UNL     1     -11.410   6.791  67.981  1.00  0.00    -0.555 N  
HETATM   17  O   UNL     1      -9.878   5.009  68.906  1.00  0.00    -0.155 OA 
HETATM   18  H   UNL     1     -12.425   6.888  68.003  1.00  0.00     0.000 HD 
HETATM   19  C   UNL     1     -10.626   7.123  66.817  1.00  0.00    -0.221 C  
ENDBRANCH  10  11
ENDBRANCH   6  10
TORSDOF 2
ENDMDL
MODEL       54
REMARK 921   NORMALIZED FREE ENERGY PREDICTED BY IDOCK:   -4.19 KCAL/MOL
REMARK 922        TOTAL FREE ENERGY PREDICTED BY IDOCK:   -5.08 KCAL/MOL
REMARK 923 INTER-LIGAND FREE ENERGY PREDICTED BY IDOCK:   -5.04 KCAL/MOL
REMARK 924 INTRA-LIGAND FREE ENERGY PREDICTED BY IDOCK:   -0.05 KCAL/MOL
REMARK 927      BINDING AFFINITY PREDICTED BY RF-SCORE:    0.00 PKD
ROOT
HETATM    1  O   UNL     1     -11.055  16.746  70.451  1.00  0.00    -0.196 OA 
HETATM    2  S   UNL     1     -10.505  16.908  69.125  1.00  0.00    -0.307 S  
HETATM    3  C   UNL     1      -9.013  15.960  68.976  1.00  0.00    -0.245 C  
HETATM    4  O   UNL     1     -10.304  18.222  68.550  1.00  0.00    -0.372 OA 
HETATM    5  C   UNL     1      -9.335  14.483  69.129  1.00  0.00     0.006 C  
HETATM    6  N   UNL     1     -10.341  13.941  68.195  1.00  0.00    -0.241 NA 
HETATM    7  N   UNL     1     -11.511  16.069  68.067  1.00  0.00    -0.264 N  
HETATM    8  C   UNL     1     -11.609  14.644  68.356  1.00  0.00    -0.323 C  
HETATM    9  H   UNL     1     -12.006  16.518  67.296  1.00  0.00     0.000 HD 
ENDROOT
BRANCH   6  10
HETATM   10  C   UNL     1      -9.921  13.913  66.792  1.00  0.00    -0.269 C  
BRANCH  10  11
HETATM   11  N   UNL     1     -10.204  12.617  66.186  1.00  0.00    -0.253 NA 
HETATM   12  C   UNL     1     -11.593  12.150  66.282  1.00  0.00    -0.360 C  
HETATM   13  C   UNL     1     -12.616  12.795  65.357  1.00  0.00    -0.320 C  
HETATM   14  S   UNL     1     -12.035  12.846  63.678  1.00  0.00    -0.549 S  
HETATM   15  O   UNL     1     -12.682  13.951  63.005  1.00  0.00    -0.634 OA 
HETATM   16  N   UNL     1     -10.448  13.305  63.893  1.00  0.00    -0.508 N  
HETATM   17  O   UNL     1     -12.049  11.507  63.132  1.00  0.00    -0.254 OA 
HETATM   18  H   UNL     1     -10.036  14.096  63.399  1.00  0.00     0.000 HD 
HETATM   19  C   UNL     1      -9.699  12.502  64.828  1.00  0.00     0.049 C  
ENDBRANCH  10  11
ENDBRANCH   6  10
TORSDOF 2
ENDMDL
MODEL       55
REMARK 921   NORMALIZED FREE ENERGY PREDICTED BY IDOCK:   -4.14 KCAL/MOL
REMARK 922        TOTAL FREE ENERGY PREDICTED BY IDOCK:   -5.03 KCAL/MOL
REMARK 923 INTER-LIGAND FREE ENERGY PREDICTED BY IDOCK:   -4.75 KCAL/MOL
REMARK 924 INTRA-LIGAND FREE ENERGY PREDICTED BY IDOCK:   -0.28 KCAL/MOL
REMARK 927      BINDING AFFINITY PREDICTED BY RF-SCORE:    0.00 PKD
ROOT
HETATM    1  O   UNL     1      -8.627   5.125  67.401  1.00  0.00    -0.106 OA 
HETATM    2  S   UNL     1      -9.716   5.683  66.634  1.00  0.00    -0.168 S  
HETATM    3  C   UNL     1     -10.644   6.809  67.643  1.00  0.00    -0.259 C  
HETATM    4  O   UNL     1     -10.626   4.834  65.893  1.00  0.00    -0.303 OA 
HETATM    5  C   UNL     1      -9.758   7.977  68.043  1.00  0.00    -0.160 C  
HETATM    6  N   UNL     1      -9.140   8.728  66.933  1.00  0.00    -0.134 NA 
HETATM    7  N   UNL     1      -9.040   6.750  65.521  1.00  0.00    -0.368 N  
HETATM    8  C   UNL     1      -8.298   7.845  66.134  1.00  0.00    -0.127 C  
HETATM    9  H   UNL     1      -9.141   6.641  64.512  1.00  0.00     0.000 HD 
ENDROOT
BRANCH   6  10
HETATM   10  C   UNL     1     -10.086   9.468  66.094  1.00  0.00    -0.256 C  
BRANCH  10  11
HETATM   11  N   UNL     1      -9.635  10.838  65.878  1.00  0.00    -0.198 NA 
HETATM   12  C   UNL     1      -9.470  11.249  64.478  1.00  0.00    -0.185 C  
HETATM   13  C   UNL     1     -10.731  11.551  63.681  1.00  0.00    -0.424 C  
HETATM   14  S   UNL     1     -11.826  12.627  64.577  1.00  0.00    -0.406 S  
HETATM   15  O   UNL     1     -13.177  12.386  64.120  1.00  0.00    -0.761 OA 
HETATM   16  N   UNL     1     -11.738  11.982  66.111  1.00  0.00    -0.322 N  
HETATM   17  O   UNL     1     -11.258  13.956  64.612  1.00  0.00    -0.355 OA 
HETATM   18  H   UNL     1     -12.569  11.724  66.644  1.00  0.00     0.000 HD 
HETATM   19  C   UNL     1     -10.403  11.814  66.631  1.00  0.00    -0.218 C  
ENDBRANCH  10  11
ENDBRANCH   6  10
TORSDOF 2
ENDMDL
MODEL       56
REMARK 921   NORMALIZED FREE ENERGY PREDICTED BY IDOCK:   -4.12 KCAL/MOL
REMARK 922        TOTAL FREE ENERGY PREDICTED BY IDOCK:   -5.01 KCAL/MOL
REMARK 923 INTER-LIGAND FREE ENERGY PREDICTED BY IDOCK:   -4.64 KCAL/MOL
REMARK 924 INTRA-LIGAND FREE ENERGY PREDICTED BY IDOCK:   -0.38 KCAL/MOL
REMARK 927      BINDING AFFINITY PREDICTED BY RF-SCORE:    0.00 PKD
ROOT
HETATM    1  O   UNL     1      -9.996  19.095  66.313  1.00  0.00    -0.360 OA 
HETATM    2  S   UNL     1      -9.224  18.397  67.314  1.00  0.00    -0.273 S  
HETATM    3  C   UNL     1     -10.306  17.435  68.341  1.00  0.00    -0.379 C  
HETATM    4  O   UNL     1      -8.262  19.094  68.143  1.00  0.00    -0.295 OA 
HETATM    5  C   UNL     1     -10.983  16.367  67.499  1.00  0.00    -0.184 C  
HETATM    6  N   UNL     1     -10.084  15.455  66.766  1.00  0.00    -0.256 NA 
HETATM    7  N   UNL     1      -8.381  17.174  66.523  1.00  0.00    -0.251 N  
HETATM    8  C   UNL     1      -9.240  16.210  65.847  1.00  0.00    -0.261 C  
HETATM    9  H   UNL     1      -7.362  17.113  66.518  1.00  0.00     0.000 HD 
ENDROOT
BRANCH   6  10
HETATM   10  C   UNL     1      -9.286  14.568  67.617  1.00  0.00    -0.202 C  
BRANCH  10  11
HETATM   11  N   UNL     1      -8.940  13.338  66.913  1.00  0.00    -0.225 NA 
HETATM   12  C   UNL     1      -8.456  12.232  67.748  1.00  0.00    -0.163 C  
HETATM   13  C   UNL     1      -9.488  11.463  68.562  1.00  0.00    -0.183 C  
HETATM   14  S   UNL     1     -10.886  10.998  67.568  1.00  0.00    -0.281 S  
HETATM   15  O   UNL     1     -12.037  10.862  68.434  1.00  0.00    -0.559 OA 
HETATM   16  N   UNL     1     -11.138  12.388  66.684  1.00  0.00    -0.275 N  
HETATM   17  O   UNL     1     -10.490   9.949  66.656  1.00  0.00    -0.221 OA 
HETATM   18  H   UNL     1     -12.048  12.847  66.634  1.00  0.00     0.000 HD 
HETATM   19  C   UNL     1      -9.977  12.897  65.996  1.00  0.00    -0.272 C  
ENDBRANCH  10  11
ENDBRANCH   6  10
TORSDOF 2
ENDMDL
MODEL       57
REMARK 921   NORMALIZED FREE ENERGY PREDICTED BY IDOCK:   -4.11 KCAL/MOL
REMARK 922        TOTAL FREE ENERGY PREDICTED BY IDOCK:   -5.00 KCAL/MOL
REMARK 923 INTER-LIGAND FREE ENERGY PREDICTED BY IDOCK:   -4.71 KCAL/MOL
REMARK 924 INTRA-LIGAND FREE ENERGY PREDICTED BY IDOCK:   -0.29 KCAL/MOL
REMARK 927      BINDING AFFINITY PREDICTED BY RF-SCORE:    0.00 PKD
ROOT
HETATM    1  O   UNL     1     -11.371   7.906  70.401  1.00  0.00    -0.264 OA 
HETATM    2  S   UNL     1     -10.570   9.077  70.671  1.00  0.00    -0.257 S  
HETATM    3  C   UNL     1      -9.972   9.759  69.146  1.00  0.00    -0.189 C  
HETATM    4  O   UNL     1      -9.495   9.045  71.642  1.00  0.00    -0.282 OA 
HETATM    5  C   UNL     1     -11.148  10.228  68.307  1.00  0.00    -0.254 C  
HETATM    6  N   UNL     1     -12.048  11.207  68.946  1.00  0.00    -0.519 NA 
HETATM    7  N   UNL     1     -11.624  10.295  71.161  1.00  0.00    -0.343 N  
HETATM    8  C   UNL     1     -12.626  10.642  70.161  1.00  0.00    -0.214 C  
HETATM    9  H   UNL     1     -11.566  10.748  72.073  1.00  0.00     0.000 HD 
ENDROOT
BRANCH   6  10
HETATM   10  C   UNL     1     -11.444  12.517  69.202  1.00  0.00    -0.305 C  
BRANCH  10  11
HETATM   11  N   UNL     1     -10.721  12.998  68.031  1.00  0.00    -0.226 NA 
HETATM   12  C   UNL     1     -11.415  14.000  67.211  1.00  0.00    -0.348 C  
HETATM   13  C   UNL     1     -11.477  15.424  67.745  1.00  0.00    -0.278 C  
HETATM   14  S   UNL     1      -9.881  15.986  68.290  1.00  0.00    -0.222 S  
HETATM   15  O   UNL     1     -10.076  16.999  69.304  1.00  0.00    -0.269 OA 
HETATM   16  N   UNL     1      -9.314  14.638  69.089  1.00  0.00    -0.378 N  
HETATM   17  O   UNL     1      -9.041  16.213  67.136  1.00  0.00    -0.196 OA 
HETATM   18  H   UNL     1      -8.959  14.678  70.045  1.00  0.00     0.000 HD 
HETATM   19  C   UNL     1      -9.361  13.411  68.334  1.00  0.00    -0.165 C  
ENDBRANCH  10  11
ENDBRANCH   6  10
TORSDOF 2
ENDMDL
MODEL       58
REMARK 921   NORMALIZED FREE ENERGY PREDICTED BY IDOCK:   -4.10 KCAL/MOL
REMARK 922        TOTAL FREE ENERGY PREDICTED BY IDOCK:   -4.99 KCAL/MOL
REMARK 923 INTER-LIGAND FREE ENERGY PREDICTED BY IDOCK:   -4.52 KCAL/MOL
REMARK 924 INTRA-LIGAND FREE ENERGY PREDICTED BY IDOCK:   -0.47 KCAL/MOL
REMARK 927      BINDING AFFINITY PREDICTED BY RF-SCORE:    0.00 PKD
ROOT
HETATM    1  O   UNL     1     -10.391  15.146  65.791  1.00  0.00    -0.293 OA 
HETATM    2  S   UNL     1     -10.887  14.590  67.028  1.00  0.00    -0.303 S  
HETATM    3  C   UNL     1     -12.313  13.585  66.704  1.00  0.00    -0.297 C  
HETATM    4  O   UNL     1     -11.137  15.427  68.183  1.00  0.00    -0.284 OA 
HETATM    5  C   UNL     1     -11.913  12.406  65.833  1.00  0.00    -0.367 C  
HETATM    6  N   UNL     1     -10.835  11.549  66.361  1.00  0.00    -0.278 NA 
HETATM    7  N   UNL     1      -9.786  13.414  67.517  1.00  0.00    -0.219 N  
HETATM    8  C   UNL     1      -9.619  12.330  66.557  1.00  0.00    -0.238 C  
HETATM    9  H   UNL     1      -9.283  13.456  68.403  1.00  0.00     0.000 HD 
ENDROOT
BRANCH   6  10
HETATM   10  C   UNL     1     -11.187  10.799  67.569  1.00  0.00    -0.274 C  
BRANCH  10  11
HETATM   11  N   UNL     1     -10.018  10.132  68.132  1.00  0.00    -0.144 NA 
HETATM   12  C   UNL     1      -9.793  10.328  69.570  1.00  0.00    -0.220 C  
HETATM   13  C   UNL     1     -10.684   9.555  70.532  1.00  0.00    -0.298 C  
HETATM   14  S   UNL     1     -10.779   7.835  70.091  1.00  0.00    -0.240 S  
HETATM   15  O   UNL     1     -12.034   7.308  70.581  1.00  0.00    -0.291 OA 
HETATM   16  N   UNL     1     -10.934   7.928  68.435  1.00  0.00    -0.419 N  
HETATM   17  O   UNL     1      -9.516   7.199  70.392  1.00  0.00    -0.162 OA 
HETATM   18  H   UNL     1     -11.682   7.454  67.928  1.00  0.00     0.000 HD 
HETATM   19  C   UNL     1      -9.936   8.727  67.769  1.00  0.00    -0.194 C  
ENDBRANCH  10  11
ENDBRANCH   6  10
TORSDOF 2
ENDMDL
MODEL       59
REMARK 921   NORMALIZED FREE ENERGY PREDICTED BY IDOCK:   -4.08 KCAL/MOL
REMARK 922        TOTAL FREE ENERGY PREDICTED BY IDOCK:   -4.96 KCAL/MOL
REMARK 923 INTER-LIGAND FREE ENERGY PREDICTED BY IDOCK:   -4.49 KCAL/MOL
REMARK 924 INTRA-LIGAND FREE ENERGY PREDICTED BY IDOCK:   -0.47 KCAL/MOL
REMARK 927      BINDING AFFINITY PREDICTED BY RF-SCORE:    0.00 PKD
ROOT
HETATM    1  O   UNL     1      -9.291  17.205  68.257  1.00  0.00    -0.249 OA 
HETATM    2  S   UNL     1      -9.119  16.778  66.888  1.00  0.00    -0.241 S  
HETATM    3  C   UNL     1      -8.131  15.305  66.839  1.00  0.00    -0.189 C  
HETATM    4  O   UNL     1      -8.669  17.699  65.865  1.00  0.00    -0.520 OA 
HETATM    5  C   UNL     1      -8.863  14.181  67.550  1.00  0.00    -0.201 C  
HETATM    6  N   UNL     1     -10.213  13.867  67.043  1.00  0.00    -0.252 NA 
HETATM    7  N   UNL     1     -10.602  16.172  66.370  1.00  0.00    -0.297 N  
HETATM    8  C   UNL     1     -11.077  15.037  67.151  1.00  0.00    -0.332 C  
HETATM    9  H   UNL     1     -11.119  16.563  65.582  1.00  0.00     0.000 HD 
ENDROOT
BRANCH   6  10
HETATM   10  C   UNL     1     -10.243  13.306  65.689  1.00  0.00    -0.289 C  
BRANCH  10  11
HETATM   11  N   UNL     1     -11.046  12.089  65.644  1.00  0.00    -0.305 NA 
HETATM   12  C   UNL     1     -10.743  11.158  64.550  1.00  0.00    -0.297 C  
HETATM   13  C   UNL     1      -9.485  10.310  64.676  1.00  0.00    -0.293 C  
HETATM   14  S   UNL     1      -9.380   9.535  66.272  1.00  0.00    -0.206 S  
HETATM   15  O   UNL     1      -7.985   9.294  66.572  1.00  0.00    -0.103 OA 
HETATM   16  N   UNL     1      -9.857  10.777  67.274  1.00  0.00    -0.176 N  
HETATM   17  O   UNL     1     -10.369   8.484  66.353  1.00  0.00    -0.246 OA 
HETATM   18  H   UNL     1      -9.304  11.076  68.078  1.00  0.00     0.000 HD 
HETATM   19  C   UNL     1     -11.109  11.402  66.923  1.00  0.00    -0.295 C  
ENDBRANCH  10  11
ENDBRANCH   6  10
TORSDOF 2
ENDMDL
MODEL       60
REMARK 921   NORMALIZED FREE ENERGY PREDICTED BY IDOCK:   -4.07 KCAL/MOL
REMARK 922        TOTAL FREE ENERGY PREDICTED BY IDOCK:   -4.96 KCAL/MOL
REMARK 923 INTER-LIGAND FREE ENERGY PREDICTED BY IDOCK:   -4.64 KCAL/MOL
REMARK 924 INTRA-LIGAND FREE ENERGY PREDICTED BY IDOCK:   -0.32 KCAL/MOL
REMARK 927      BINDING AFFINITY PREDICTED BY RF-SCORE:    0.00 PKD
ROOT
HETATM    1  O   UNL     1      -9.088   9.084  65.301  1.00  0.00    -0.209 OA 
HETATM    2  S   UNL     1      -8.874  10.342  64.626  1.00  0.00    -0.215 S  
HETATM    3  C   UNL     1     -10.424  11.180  64.416  1.00  0.00    -0.353 C  
HETATM    4  O   UNL     1      -8.113  10.415  63.395  1.00  0.00    -0.161 OA 
HETATM    5  C   UNL     1     -11.004  11.518  65.779  1.00  0.00    -0.246 C  
HETATM    6  N   UNL     1     -10.142  12.323  66.666  1.00  0.00    -0.212 NA 
HETATM    7  N   UNL     1      -8.114  11.368  65.722  1.00  0.00    -0.369 N  
HETATM    8  C   UNL     1      -8.892  11.618  66.929  1.00  0.00    -0.190 C  
HETATM    9  H   UNL     1      -7.194  11.777  65.557  1.00  0.00     0.000 HD 
ENDROOT
BRANCH   6  10
HETATM   10  C   UNL     1      -9.897  13.691  66.204  1.00  0.00    -0.293 C  
BRANCH  10  11
HETATM   11  N   UNL     1      -9.363  14.519  67.280  1.00  0.00    -0.203 NA 
HETATM   12  C   UNL     1      -8.204  15.354  66.937  1.00  0.00    -0.246 C  
HETATM   13  C   UNL     1      -8.461  16.608  66.113  1.00  0.00    -0.273 C  
HETATM   14  S   UNL     1      -9.807  17.560  66.779  1.00  0.00    -0.320 S  
HETATM   15  O   UNL     1     -10.401  18.324  65.704  1.00  0.00    -0.607 OA 
HETATM   16  N   UNL     1     -10.903  16.363  67.153  1.00  0.00    -0.232 N  
HETATM   17  O   UNL     1      -9.380  18.183  68.012  1.00  0.00    -0.270 OA 
HETATM   18  H   UNL     1     -11.871  16.387  66.830  1.00  0.00     0.000 HD 
HETATM   19  C   UNL     1     -10.387  15.289  67.966  1.00  0.00    -0.244 C  
ENDBRANCH  10  11
ENDBRANCH   6  10
TORSDOF 2
ENDMDL
MODEL       61
REMARK 921   NORMALIZED FREE ENERGY PREDICTED BY IDOCK:   -4.04 KCAL/MOL
REMARK 922        TOTAL FREE ENERGY PREDICTED BY IDOCK:   -4.92 KCAL/MOL
REMARK 923 INTER-LIGAND FREE ENERGY PREDICTED BY IDOCK:   -4.99 KCAL/MOL
REMARK 924 INTRA-LIGAND FREE ENERGY PREDICTED BY IDOCK:    0.07 KCAL/MOL
REMARK 927      BINDING AFFINITY PREDICTED BY RF-SCORE:    0.00 PKD
ROOT
HETATM    1  O   UNL     1     -10.943  12.547  66.891  1.00  0.00    -0.242 OA 
HETATM    2  S   UNL     1     -10.975  13.121  68.216  1.00  0.00    -0.266 S  
HETATM    3  C   UNL     1      -9.458  13.985  68.532  1.00  0.00    -0.191 C  
HETATM    4  O   UNL     1     -11.329  12.325  69.372  1.00  0.00    -0.258 OA 
HETATM    5  C   UNL     1      -9.327  15.148  67.563  1.00  0.00    -0.198 C  
HETATM    6  N   UNL     1     -10.438  16.119  67.566  1.00  0.00    -0.297 NA 
HETATM    7  N   UNL     1     -12.059  14.409  68.170  1.00  0.00    -0.567 N  
HETATM    8  C   UNL     1     -11.690  15.454  67.222  1.00  0.00     0.013 C  
HETATM    9  H   UNL     1     -12.896  14.454  68.751  1.00  0.00     0.000 HD 
ENDROOT
BRANCH   6  10
HETATM   10  C   UNL     1     -10.568  16.896  68.801  1.00  0.00    -0.355 C  
BRANCH  10  11
HETATM   11  N   UNL     1     -10.406  18.323  68.542  1.00  0.00    -0.358 NA 
HETATM   12  C   UNL     1      -9.119  18.907  68.938  1.00  0.00    -0.240 C  
HETATM   13  C   UNL     1      -7.914  18.620  68.052  1.00  0.00    -0.273 C  
HETATM   14  S   UNL     1      -8.285  18.903  66.337  1.00  0.00    -0.275 S  
HETATM   15  O   UNL     1      -7.414  18.070  65.538  1.00  0.00    -0.538 OA 
HETATM   16  N   UNL     1      -9.805  18.230  66.214  1.00  0.00    -0.339 N  
HETATM   17  O   UNL     1      -8.401  20.326  66.107  1.00  0.00    -0.226 OA 
HETATM   18  H   UNL     1     -10.040  17.536  65.504  1.00  0.00     0.000 HD 
HETATM   19  C   UNL     1     -10.763  18.698  67.184  1.00  0.00    -0.377 C  
ENDBRANCH  10  11
ENDBRANCH   6  10
TORSDOF 2
ENDMDL
MODEL       62
REMARK 921   NORMALIZED FREE ENERGY PREDICTED BY IDOCK:   -4.04 KCAL/MOL
REMARK 922        TOTAL FREE ENERGY PREDICTED BY IDOCK:   -4.92 KCAL/MOL
REMARK 923 INTER-LIGAND FREE ENERGY PREDICTED BY IDOCK:   -4.83 KCAL/MOL
REMARK 924 INTRA-LIGAND FREE ENERGY PREDICTED BY IDOCK:   -0.09 KCAL/MOL
REMARK 927      BINDING AFFINITY PREDICTED BY RF-SCORE:    0.00 PKD
ROOT
HETATM    1  O   UNL     1     -12.240  14.395  72.482  1.00  0.00    -0.191 OA 
HETATM    2  S   UNL     1     -12.909  15.147  71.447  1.00  0.00    -0.426 S  
HETATM    3  C   UNL     1     -11.826  16.409  70.828  1.00  0.00     0.075 C  
HETATM    4  O   UNL     1     -14.231  15.701  71.655  1.00  0.00    -0.473 OA 
HETATM    5  C   UNL     1     -10.617  15.761  70.175  1.00  0.00    -0.324 C  
HETATM    6  N   UNL     1     -10.904  14.804  69.089  1.00  0.00    -0.252 NA 
HETATM    7  N   UNL     1     -13.016  14.143  70.099  1.00  0.00    -0.355 N  
HETATM    8  C   UNL     1     -11.723  13.705  69.589  1.00  0.00    -0.320 C  
HETATM    9  H   UNL     1     -13.904  13.869  69.678  1.00  0.00     0.000 HD 
ENDROOT
BRANCH   6  10
HETATM   10  C   UNL     1     -11.490  15.401  67.886  1.00  0.00    -0.299 C  
BRANCH  10  11
HETATM   11  N   UNL     1     -10.551  15.363  66.771  1.00  0.00    -0.305 NA 
HETATM   12  C   UNL     1     -10.686  16.435  65.777  1.00  0.00    -0.238 C  
HETATM   13  C   UNL     1     -10.165  17.815  66.156  1.00  0.00    -0.339 C  
HETATM   14  S   UNL     1      -8.525  17.727  66.835  1.00  0.00    -0.251 S  
HETATM   15  O   UNL     1      -8.333  18.861  67.712  1.00  0.00    -0.271 OA 
HETATM   16  N   UNL     1      -8.651  16.395  67.828  1.00  0.00    -0.168 N  
HETATM   17  O   UNL     1      -7.591  17.415  65.777  1.00  0.00    -0.484 OA 
HETATM   18  H   UNL     1      -8.381  16.418  68.811  1.00  0.00     0.000 HD 
HETATM   19  C   UNL     1      -9.170  15.206  67.197  1.00  0.00    -0.213 C  
ENDBRANCH  10  11
ENDBRANCH   6  10
TORSDOF 2
ENDMDL
MODEL       63
REMARK 921   NORMALIZED FREE ENERGY PREDICTED BY IDOCK:   -4.01 KCAL/MOL
REMARK 922        TOTAL FREE ENERGY PREDICTED BY IDOCK:   -4.89 KCAL/MOL
REMARK 923 INTER-LIGAND FREE ENERGY PREDICTED BY IDOCK:   -4.57 KCAL/MOL
REMARK 924 INTRA-LIGAND FREE ENERGY PREDICTED BY IDOCK:   -0.32 KCAL/MOL
REMARK 927      BINDING AFFINITY PREDICTED BY RF-SCORE:    0.00 PKD
ROOT
HETATM    1  O   UNL     1      -8.797  11.627  66.953  1.00  0.00    -0.176 OA 
HETATM    2  S   UNL     1      -9.776  11.732  68.009  1.00  0.00    -0.190 S  
HETATM    3  C   UNL     1     -11.137  10.644  67.674  1.00  0.00    -0.319 C  
HETATM    4  O   UNL     1     -10.280  13.019  68.442  1.00  0.00    -0.242 OA 
HETATM    5  C   UNL     1     -10.649   9.206  67.684  1.00  0.00    -0.242 C  
HETATM    6  N   UNL     1      -9.975   8.761  68.919  1.00  0.00    -0.186 NA 
HETATM    7  N   UNL     1      -9.117  10.992  69.370  1.00  0.00    -0.390 N  
HETATM    8  C   UNL     1      -8.797   9.583  69.175  1.00  0.00    -0.147 C  
HETATM    9  H   UNL     1      -8.957  11.484  70.249  1.00  0.00     0.000 HD 
ENDROOT
BRANCH   6  10
HETATM   10  C   UNL     1     -10.842   8.689  70.098  1.00  0.00    -0.233 C  
BRANCH  10  11
HETATM   11  N   UNL     1     -11.363   7.340  70.284  1.00  0.00    -0.264 NA 
HETATM   12  C   UNL     1     -10.361   6.275  70.419  1.00  0.00    -0.208 C  
HETATM   13  C   UNL     1      -9.629   6.164  71.749  1.00  0.00    -0.150 C  
HETATM   14  S   UNL     1     -10.759   6.207  73.121  1.00  0.00    -0.260 S  
HETATM   15  O   UNL     1     -10.055   6.717  74.276  1.00  0.00    -0.338 OA 
HETATM   16  N   UNL     1     -11.804   7.415  72.648  1.00  0.00    -0.537 N  
HETATM   17  O   UNL     1     -11.496   4.964  73.164  1.00  0.00    -0.322 OA 
HETATM   18  H   UNL     1     -12.028   8.210  73.247  1.00  0.00     0.000 HD 
HETATM   19  C   UNL     1     -12.368   7.258  71.330  1.00  0.00    -0.368 C  
ENDBRANCH  10  11
ENDBRANCH   6  10
TORSDOF 2
ENDMDL
MODEL       64
REMARK 921   NORMALIZED FREE ENERGY PREDICTED BY IDOCK:   -4.01 KCAL/MOL
REMARK 922        TOTAL FREE ENERGY PREDICTED BY IDOCK:   -4.88 KCAL/MOL
REMARK 923 INTER-LIGAND FREE ENERGY PREDICTED BY IDOCK:   -4.41 KCAL/MOL
REMARK 924 INTRA-LIGAND FREE ENERGY PREDICTED BY IDOCK:   -0.48 KCAL/MOL
REMARK 927      BINDING AFFINITY PREDICTED BY RF-SCORE:    0.00 PKD
ROOT
HETATM    1  O   UNL     1      -8.798   7.444  69.310  1.00  0.00    -0.136 OA 
HETATM    2  S   UNL     1     -10.170   7.757  68.986  1.00  0.00    -0.210 S  
HETATM    3  C   UNL     1     -10.616   9.315  69.711  1.00  0.00    -0.231 C  
HETATM    4  O   UNL     1     -11.232   6.798  69.206  1.00  0.00    -0.252 OA 
HETATM    5  C   UNL     1      -9.768  10.417  69.101  1.00  0.00    -0.220 C  
HETATM    6  N   UNL     1      -9.828  10.540  67.632  1.00  0.00    -0.164 NA 
HETATM    7  N   UNL     1     -10.212   8.155  67.350  1.00  0.00    -0.233 N  
HETATM    8  C   UNL     1      -9.382   9.301  67.003  1.00  0.00    -0.144 C  
HETATM    9  H   UNL     1     -10.768   7.641  66.667  1.00  0.00     0.000 HD 
ENDROOT
BRANCH   6  10
HETATM   10  C   UNL     1     -11.127  10.967  67.106  1.00  0.00    -0.267 C  
BRANCH  10  11
HETATM   11  N   UNL     1     -10.962  11.873  65.974  1.00  0.00    -0.299 NA 
HETATM   12  C   UNL     1     -12.147  12.651  65.593  1.00  0.00    -0.443 C  
HETATM   13  C   UNL     1     -12.521  13.836  66.473  1.00  0.00    -0.309 C  
HETATM   14  S   UNL     1     -11.114  14.869  66.808  1.00  0.00    -0.330 S  
HETATM   15  O   UNL     1     -11.337  15.551  68.064  1.00  0.00    -0.331 OA 
HETATM   16  N   UNL     1      -9.935  13.730  67.106  1.00  0.00    -0.239 N  
HETATM   17  O   UNL     1     -10.756  15.585  65.604  1.00  0.00    -0.330 OA 
HETATM   18  H   UNL     1      -9.359  13.746  67.949  1.00  0.00     0.000 HD 
HETATM   19  C   UNL     1      -9.786  12.718  66.089  1.00  0.00    -0.267 C  
ENDBRANCH  10  11
ENDBRANCH   6  10
TORSDOF 2
ENDMDL
MODEL       65
REMARK 921   NORMALIZED FREE ENERGY PREDICTED BY IDOCK:   -3.99 KCAL/MOL
REMARK 922        TOTAL FREE ENERGY PREDICTED BY IDOCK:   -4.86 KCAL/MOL
REMARK 923 INTER-LIGAND FREE ENERGY PREDICTED BY IDOCK:   -4.38 KCAL/MOL
REMARK 924 INTRA-LIGAND FREE ENERGY PREDICTED BY IDOCK:   -0.48 KCAL/MOL
REMARK 927      BINDING AFFINITY PREDICTED BY RF-SCORE:    0.00 PKD
ROOT
HETATM    1  O   UNL     1      -8.025   7.589  69.502  1.00  0.00    -0.120 OA 
HETATM    2  S   UNL     1      -8.757   7.938  68.306  1.00  0.00    -0.129 S  
HETATM    3  C   UNL     1     -10.491   8.034  68.672  1.00  0.00    -0.167 C  
HETATM    4  O   UNL     1      -8.562   7.213  67.068  1.00  0.00    -0.119 OA 
HETATM    5  C   UNL     1     -10.736   9.155  69.667  1.00  0.00    -0.225 C  
HETATM    6  N   UNL     1     -10.258  10.492  69.265  1.00  0.00    -0.219 NA 
HETATM    7  N   UNL     1      -8.421   9.554  67.975  1.00  0.00    -0.119 N  
HETATM    8  C   UNL     1      -8.816  10.466  69.041  1.00  0.00    -0.172 C  
HETATM    9  H   UNL     1      -7.982   9.865  67.109  1.00  0.00     0.000 HD 
ENDROOT
BRANCH   6  10
HETATM   10  C   UNL     1     -10.964  11.076  68.122  1.00  0.00    -0.247 C  
BRANCH  10  11
HETATM   11  N   UNL     1     -10.244  12.230  67.594  1.00  0.00    -0.200 NA 
HETATM   12  C   UNL     1     -10.013  12.238  66.144  1.00  0.00    -0.243 C  
HETATM   13  C   UNL     1     -11.195  12.578  65.246  1.00  0.00    -0.304 C  
HETATM   14  S   UNL     1     -12.037  14.040  65.805  1.00  0.00    -0.449 S  
HETATM   15  O   UNL     1     -13.414  13.970  65.365  1.00  0.00    -0.679 OA 
HETATM   16  N   UNL     1     -12.067  13.794  67.452  1.00  0.00    -0.398 N  
HETATM   17  O   UNL     1     -11.209  15.194  65.535  1.00  0.00    -0.345 OA 
HETATM   18  H   UNL     1     -12.927  13.849  67.998  1.00  0.00     0.000 HD 
HETATM   19  C   UNL     1     -10.789  13.497  68.052  1.00  0.00    -0.250 C  
ENDBRANCH  10  11
ENDBRANCH   6  10
TORSDOF 2
ENDMDL
MODEL       66
REMARK 921   NORMALIZED FREE ENERGY PREDICTED BY IDOCK:   -3.98 KCAL/MOL
REMARK 922        TOTAL FREE ENERGY PREDICTED BY IDOCK:   -4.85 KCAL/MOL
REMARK 923 INTER-LIGAND FREE ENERGY PREDICTED BY IDOCK:   -4.69 KCAL/MOL
REMARK 924 INTRA-LIGAND FREE ENERGY PREDICTED BY IDOCK:   -0.16 KCAL/MOL
REMARK 927      BINDING AFFINITY PREDICTED BY RF-SCORE:    0.00 PKD
ROOT
HETATM    1  O   UNL     1      -8.833  18.994  65.965  1.00  0.00    -0.460 OA 
HETATM    2  S   UNL     1      -8.204  17.944  66.733  1.00  0.00    -0.261 S  
HETATM    3  C   UNL     1      -9.076  17.716  68.261  1.00  0.00    -0.276 C  
HETATM    4  O   UNL     1      -6.778  17.948  66.984  1.00  0.00    -0.167 OA 
HETATM    5  C   UNL     1     -10.491  17.247  67.971  1.00  0.00    -0.375 C  
HETATM    6  N   UNL     1     -10.611  16.017  67.165  1.00  0.00    -0.309 NA 
HETATM    7  N   UNL     1      -8.553  16.490  65.959  1.00  0.00    -0.286 N  
HETATM    8  C   UNL     1      -9.978  16.203  65.864  1.00  0.00    -0.356 C  
HETATM    9  H   UNL     1      -7.832  15.869  65.591  1.00  0.00     0.000 HD 
ENDROOT
BRANCH   6  10
HETATM   10  C   UNL     1     -10.125  14.803  67.825  1.00  0.00    -0.224 C  
BRANCH  10  11
HETATM   11  N   UNL     1     -11.058  13.696  67.641  1.00  0.00    -0.266 NA 
HETATM   12  C   UNL     1     -10.958  12.973  66.367  1.00  0.00    -0.281 C  
HETATM   13  C   UNL     1      -9.794  12.006  66.199  1.00  0.00    -0.235 C  
HETATM   14  S   UNL     1      -9.636  10.927  67.602  1.00  0.00    -0.164 S  
HETATM   15  O   UNL     1      -8.255  10.506  67.701  1.00  0.00    -0.110 OA 
HETATM   16  N   UNL     1      -9.884  11.989  68.863  1.00  0.00    -0.417 N  
HETATM   17  O   UNL     1     -10.724   9.976  67.592  1.00  0.00    -0.249 OA 
HETATM   18  H   UNL     1      -9.233  12.072  69.644  1.00  0.00     0.000 HD 
HETATM   19  C   UNL     1     -11.085  12.782  68.770  1.00  0.00    -0.260 C  
ENDBRANCH  10  11
ENDBRANCH   6  10
TORSDOF 2
ENDMDL
MODEL       67
REMARK 921   NORMALIZED FREE ENERGY PREDICTED BY IDOCK:   -3.97 KCAL/MOL
REMARK 922        TOTAL FREE ENERGY PREDICTED BY IDOCK:   -4.85 KCAL/MOL
REMARK 923 INTER-LIGAND FREE ENERGY PREDICTED BY IDOCK:   -4.36 KCAL/MOL
REMARK 924 INTRA-LIGAND FREE ENERGY PREDICTED BY IDOCK:   -0.49 KCAL/MOL
REMARK 927      BINDING AFFINITY PREDICTED BY RF-SCORE:    0.00 PKD
ROOT
HETATM    1  O   UNL     1     -12.301  14.820  64.931  1.00  0.00    -0.357 OA 
HETATM    2  S   UNL     1     -11.426  13.680  64.792  1.00  0.00    -0.369 S  
HETATM    3  C   UNL     1      -9.860  14.030  65.550  1.00  0.00    -0.200 C  
HETATM    4  O   UNL     1     -11.211  13.049  63.505  1.00  0.00    -0.373 OA 
HETATM    5  C   UNL     1     -10.057  14.241  67.041  1.00  0.00    -0.260 C  
HETATM    6  N   UNL     1     -10.702  13.132  67.770  1.00  0.00    -0.236 NA 
HETATM    7  N   UNL     1     -12.006  12.482  65.823  1.00  0.00    -0.435 N  
HETATM    8  C   UNL     1     -12.031  12.877  67.226  1.00  0.00    -0.309 C  
HETATM    9  H   UNL     1     -12.312  11.566  65.496  1.00  0.00     0.000 HD 
ENDROOT
BRANCH   6  10
HETATM   10  C   UNL     1      -9.909  11.902  67.841  1.00  0.00    -0.190 C  
BRANCH  10  11
HETATM   11  N   UNL     1     -10.748  10.756  68.173  1.00  0.00    -0.197 NA 
HETATM   12  C   UNL     1     -10.529   9.543  67.375  1.00  0.00    -0.272 C  
HETATM   13  C   UNL     1      -9.290   8.714  67.684  1.00  0.00    -0.137 C  
HETATM   14  S   UNL     1      -9.126   8.413  69.428  1.00  0.00    -0.154 S  
HETATM   15  O   UNL     1      -7.725   8.208  69.726  1.00  0.00    -0.095 OA 
HETATM   16  N   UNL     1      -9.516   9.906  70.057  1.00  0.00    -0.324 N  
HETATM   17  O   UNL     1     -10.140   7.470  69.843  1.00  0.00    -0.188 OA 
HETATM   18  H   UNL     1      -8.914  10.395  70.721  1.00  0.00     0.000 HD 
HETATM   19  C   UNL     1     -10.766  10.459  69.596  1.00  0.00    -0.265 C  
ENDBRANCH  10  11
ENDBRANCH   6  10
TORSDOF 2
ENDMDL
MODEL       68
REMARK 921   NORMALIZED FREE ENERGY PREDICTED BY IDOCK:   -3.90 KCAL/MOL
REMARK 922        TOTAL FREE ENERGY PREDICTED BY IDOCK:   -4.76 KCAL/MOL
REMARK 923 INTER-LIGAND FREE ENERGY PREDICTED BY IDOCK:   -4.45 KCAL/MOL
REMARK 924 INTRA-LIGAND FREE ENERGY PREDICTED BY IDOCK:   -0.31 KCAL/MOL
REMARK 927      BINDING AFFINITY PREDICTED BY RF-SCORE:    0.00 PKD
ROOT
HETATM    1  O   UNL     1     -11.832   7.888  71.405  1.00  0.00    -0.286 OA 
HETATM    2  S   UNL     1     -10.618   8.669  71.341  1.00  0.00    -0.291 S  
HETATM    3  C   UNL     1      -9.766   8.328  69.822  1.00  0.00    -0.180 C  
HETATM    4  O   UNL     1      -9.671   8.677  72.437  1.00  0.00    -0.295 OA 
HETATM    5  C   UNL     1     -10.624   8.773  68.651  1.00  0.00    -0.139 C  
HETATM    6  N   UNL     1     -11.041  10.188  68.657  1.00  0.00    -0.227 NA 
HETATM    7  N   UNL     1     -11.073  10.270  71.087  1.00  0.00    -0.243 N  
HETATM    8  C   UNL     1     -11.822  10.479  69.854  1.00  0.00    -0.282 C  
HETATM    9  H   UNL     1     -10.845  11.023  71.736  1.00  0.00     0.000 HD 
ENDROOT
BRANCH   6  10
HETATM   10  C   UNL     1      -9.949  11.149  68.486  1.00  0.00    -0.199 C  
BRANCH  10  11
HETATM   11  N   UNL     1      -9.718  11.435  67.074  1.00  0.00    -0.189 NA 
HETATM   12  C   UNL     1     -10.918  11.552  66.235  1.00  0.00    -0.275 C  
HETATM   13  C   UNL     1     -11.734  12.832  66.351  1.00  0.00    -0.403 C  
HETATM   14  S   UNL     1     -10.700  14.274  66.255  1.00  0.00    -0.303 S  
HETATM   15  O   UNL     1     -11.354  15.353  66.962  1.00  0.00    -0.288 OA 
HETATM   16  N   UNL     1      -9.409  13.818  67.205  1.00  0.00    -0.231 N  
HETATM   17  O   UNL     1     -10.229  14.428  64.896  1.00  0.00    -0.417 OA 
HETATM   18  H   UNL     1      -9.066  14.392  67.975  1.00  0.00     0.000 HD 
HETATM   19  C   UNL     1      -8.812  12.551  66.861  1.00  0.00    -0.203 C  
ENDBRANCH  10  11
ENDBRANCH   6  10
TORSDOF 2
ENDMDL
MODEL       69
REMARK 921   NORMALIZED FREE ENERGY PREDICTED BY IDOCK:   -3.89 KCAL/MOL
REMARK 922        TOTAL FREE ENERGY PREDICTED BY IDOCK:   -4.75 KCAL/MOL
REMARK 923 INTER-LIGAND FREE ENERGY PREDICTED BY IDOCK:   -4.27 KCAL/MOL
REMARK 924 INTRA-LIGAND FREE ENERGY PREDICTED BY IDOCK:   -0.48 KCAL/MOL
REMARK 927      BINDING AFFINITY PREDICTED BY RF-SCORE:    0.00 PKD
ROOT
HETATM    1  O   UNL     1      -8.887   8.543  65.140  1.00  0.00    -0.165 OA 
HETATM    2  S   UNL     1      -8.356   9.865  65.379  1.00  0.00    -0.154 S  
HETATM    3  C   UNL     1      -9.081  11.017  64.240  1.00  0.00    -0.102 C  
HETATM    4  O   UNL     1      -6.929  10.098  65.462  1.00  0.00    -0.117 OA 
HETATM    5  C   UNL     1     -10.577  11.103  64.492  1.00  0.00    -0.328 C  
HETATM    6  N   UNL     1     -10.981  11.469  65.863  1.00  0.00    -0.272 NA 
HETATM    7  N   UNL     1      -9.017  10.408  66.830  1.00  0.00    -0.139 N  
HETATM    8  C   UNL     1     -10.473  10.490  66.817  1.00  0.00    -0.242 C  
HETATM    9  H   UNL     1      -8.451  10.657  67.641  1.00  0.00     0.000 HD 
ENDROOT
BRANCH   6  10
HETATM   10  C   UNL     1     -10.628  12.834  66.261  1.00  0.00    -0.257 C  
BRANCH  10  11
HETATM   11  N   UNL     1     -10.688  12.990  67.710  1.00  0.00    -0.225 NA 
HETATM   12  C   UNL     1      -9.538  13.655  68.335  1.00  0.00    -0.203 C  
HETATM   13  C   UNL     1      -9.435  15.167  68.188  1.00  0.00    -0.201 C  
HETATM   14  S   UNL     1     -10.974  15.966  68.581  1.00  0.00    -0.341 S  
HETATM   15  O   UNL     1     -11.033  17.220  67.864  1.00  0.00    -0.336 OA 
HETATM   16  N   UNL     1     -12.069  14.957  67.833  1.00  0.00    -0.545 N  
HETATM   17  O   UNL     1     -11.193  15.892  70.008  1.00  0.00    -0.296 OA 
HETATM   18  H   UNL     1     -12.777  15.302  67.185  1.00  0.00     0.000 HD 
HETATM   19  C   UNL     1     -11.944  13.560  68.168  1.00  0.00    -0.341 C  
ENDBRANCH  10  11
ENDBRANCH   6  10
TORSDOF 2
ENDMDL
MODEL       70
REMARK 921   NORMALIZED FREE ENERGY PREDICTED BY IDOCK:   -3.88 KCAL/MOL
REMARK 922        TOTAL FREE ENERGY PREDICTED BY IDOCK:   -4.75 KCAL/MOL
REMARK 923 INTER-LIGAND FREE ENERGY PREDICTED BY IDOCK:   -4.42 KCAL/MOL
REMARK 924 INTRA-LIGAND FREE ENERGY PREDICTED BY IDOCK:   -0.33 KCAL/MOL
REMARK 927      BINDING AFFINITY PREDICTED BY RF-SCORE:    0.00 PKD
ROOT
HETATM    1  O   UNL     1      -9.290  13.176  67.348  1.00  0.00    -0.198 OA 
HETATM    2  S   UNL     1      -9.575  11.864  66.817  1.00  0.00    -0.209 S  
HETATM    3  C   UNL     1      -8.368  10.704  67.406  1.00  0.00    -0.119 C  
HETATM    4  O   UNL     1      -9.795  11.658  65.400  1.00  0.00    -0.228 OA 
HETATM    5  C   UNL     1      -8.473  10.588  68.916  1.00  0.00    -0.152 C  
HETATM    6  N   UNL     1      -9.797  10.208  69.444  1.00  0.00    -0.218 NA 
HETATM    7  N   UNL     1     -10.953  11.301  67.604  1.00  0.00    -0.240 N  
HETATM    8  C   UNL     1     -10.800  11.192  69.050  1.00  0.00    -0.231 C  
HETATM    9  H   UNL     1     -11.814  11.059  67.115  1.00  0.00     0.000 HD 
ENDROOT
BRANCH   6  10
HETATM   10  C   UNL     1     -10.223   8.848  69.105  1.00  0.00    -0.206 C  
BRANCH  10  11
HETATM   11  N   UNL     1      -9.971   7.929  70.210  1.00  0.00    -0.188 NA 
HETATM   12  C   UNL     1     -10.247   8.447  71.556  1.00  0.00    -0.228 C  
HETATM   13  C   UNL     1     -11.705   8.546  71.985  1.00  0.00    -0.362 C  
HETATM   14  S   UNL     1     -12.587   7.041  71.646  1.00  0.00    -0.360 S  
HETATM   15  O   UNL     1     -13.986   7.362  71.471  1.00  0.00    -0.410 OA 
HETATM   16  N   UNL     1     -12.011   6.656  70.131  1.00  0.00    -0.615 N  
HETATM   17  O   UNL     1     -12.148   6.018  72.570  1.00  0.00    -0.230 OA 
HETATM   18  H   UNL     1     -12.630   6.458  69.344  1.00  0.00     0.000 HD 
HETATM   19  C   UNL     1     -10.574   6.622  70.011  1.00  0.00    -0.224 C  
ENDBRANCH  10  11
ENDBRANCH   6  10
TORSDOF 2
ENDMDL
MODEL       71
REMARK 921   NORMALIZED FREE ENERGY PREDICTED BY IDOCK:   -3.87 KCAL/MOL
REMARK 922        TOTAL FREE ENERGY PREDICTED BY IDOCK:   -4.73 KCAL/MOL
REMARK 923 INTER-LIGAND FREE ENERGY PREDICTED BY IDOCK:   -4.30 KCAL/MOL
REMARK 924 INTRA-LIGAND FREE ENERGY PREDICTED BY IDOCK:   -0.44 KCAL/MOL
REMARK 927      BINDING AFFINITY PREDICTED BY RF-SCORE:    0.00 PKD
ROOT
HETATM    1  O   UNL     1     -10.906  13.153  68.827  1.00  0.00    -0.251 OA 
HETATM    2  S   UNL     1     -11.307  11.967  68.107  1.00  0.00    -0.315 S  
HETATM    3  C   UNL     1      -9.912  10.888  67.908  1.00  0.00    -0.176 C  
HETATM    4  O   UNL     1     -12.032  12.056  66.857  1.00  0.00    -0.612 OA 
HETATM    5  C   UNL     1      -9.436  10.421  69.273  1.00  0.00    -0.198 C  
HETATM    6  N   UNL     1     -10.444   9.748  70.113  1.00  0.00    -0.266 NA 
HETATM    7  N   UNL     1     -12.258  11.052  69.152  1.00  0.00    -0.434 N  
HETATM    8  C   UNL     1     -11.568  10.643  70.368  1.00  0.00    -0.351 C  
HETATM    9  H   UNL     1     -13.228  10.807  68.951  1.00  0.00     0.000 HD 
ENDROOT
BRANCH   6  10
HETATM   10  C   UNL     1     -10.900   8.452  69.602  1.00  0.00    -0.148 C  
BRANCH  10  11
HETATM   11  N   UNL     1     -11.236   7.546  70.695  1.00  0.00    -0.266 NA 
HETATM   12  C   UNL     1     -11.395   6.132  70.335  1.00  0.00    -0.328 C  
HETATM   13  C   UNL     1     -10.129   5.328  70.071  1.00  0.00    -0.266 C  
HETATM   14  S   UNL     1      -8.927   5.566  71.358  1.00  0.00    -0.139 S  
HETATM   15  O   UNL     1      -7.611   5.336  70.802  1.00  0.00    -0.079 OA 
HETATM   16  N   UNL     1      -9.037   7.209  71.612  1.00  0.00    -0.137 N  
HETATM   17  O   UNL     1      -9.377   4.893  72.556  1.00  0.00    -0.133 OA 
HETATM   18  H   UNL     1      -8.221   7.821  71.598  1.00  0.00     0.000 HD 
HETATM   19  C   UNL     1     -10.370   7.705  71.851  1.00  0.00    -0.199 C  
ENDBRANCH  10  11
ENDBRANCH   6  10
TORSDOF 2
ENDMDL
MODEL       72
REMARK 921   NORMALIZED FREE ENERGY PREDICTED BY IDOCK:   -3.86 KCAL/MOL
REMARK 922        TOTAL FREE ENERGY PREDICTED BY IDOCK:   -4.72 KCAL/MOL
REMARK 923 INTER-LIGAND FREE ENERGY PREDICTED BY IDOCK:   -4.28 KCAL/MOL
REMARK 924 INTRA-LIGAND FREE ENERGY PREDICTED BY IDOCK:   -0.44 KCAL/MOL
REMARK 927      BINDING AFFINITY PREDICTED BY RF-SCORE:    0.00 PKD
ROOT
HETATM    1  O   UNL     1     -12.607   5.164  72.859  1.00  0.00     0.105 OA 
HETATM    2  S   UNL     1     -11.206   5.511  72.814  1.00  0.00    -0.295 S  
HETATM    3  C   UNL     1     -10.639   5.492  71.132  1.00  0.00    -0.233 C  
HETATM    4  O   UNL     1     -10.238   4.844  73.659  1.00  0.00    -0.161 OA 
HETATM    5  C   UNL     1     -11.371   6.561  70.339  1.00  0.00    -0.383 C  
HETATM    6  N   UNL     1     -11.269   7.936  70.862  1.00  0.00    -0.267 NA 
HETATM    7  N   UNL     1     -11.092   7.155  73.158  1.00  0.00    -0.512 N  
HETATM    8  C   UNL     1     -11.810   8.004  72.215  1.00  0.00    -0.369 C  
HETATM    9  H   UNL     1     -10.570   7.523  73.954  1.00  0.00     0.000 HD 
ENDROOT
BRANCH   6  10
HETATM   10  C   UNL     1      -9.926   8.518  70.795  1.00  0.00    -0.191 C  
BRANCH  10  11
HETATM   11  N   UNL     1      -9.971   9.883  70.281  1.00  0.00    -0.247 NA 
HETATM   12  C   UNL     1      -8.779  10.338  69.554  1.00  0.00    -0.139 C  
HETATM   13  C   UNL     1      -8.582   9.822  68.136  1.00  0.00    -0.118 C  
HETATM   14  S   UNL     1     -10.065   9.986  67.171  1.00  0.00    -0.224 S  
HETATM   15  O   UNL     1     -10.048   8.980  66.132  1.00  0.00    -0.290 OA 
HETATM   16  N   UNL     1     -11.224   9.499  68.264  1.00  0.00    -0.505 N  
HETATM   17  O   UNL     1     -10.283  11.384  66.874  1.00  0.00    -0.208 OA 
HETATM   18  H   UNL     1     -11.911   8.776  68.047  1.00  0.00     0.000 HD 
HETATM   19  C   UNL     1     -11.187  10.171  69.539  1.00  0.00    -0.238 C  
ENDBRANCH  10  11
ENDBRANCH   6  10
TORSDOF 2
ENDMDL
MODEL       73
REMARK 921   NORMALIZED FREE ENERGY PREDICTED BY IDOCK:   -3.86 KCAL/MOL
REMARK 922        TOTAL FREE ENERGY PREDICTED BY IDOCK:   -4.72 KCAL/MOL
REMARK 923 INTER-LIGAND FREE ENERGY PREDICTED BY IDOCK:   -4.44 KCAL/MOL
REMARK 924 INTRA-LIGAND FREE ENERGY PREDICTED BY IDOCK:   -0.28 KCAL/MOL
REMARK 927      BINDING AFFINITY PREDICTED BY RF-SCORE:    0.00 PKD
ROOT
HETATM    1  O   UNL     1      -9.314   7.556  68.422  1.00  0.00    -0.142 OA 
HETATM    2  S   UNL     1      -9.945   8.515  69.299  1.00  0.00    -0.200 S  
HETATM    3  C   UNL     1      -8.761   9.739  69.799  1.00  0.00    -0.212 C  
HETATM    4  O   UNL     1     -10.716   8.089  70.448  1.00  0.00    -0.225 OA 
HETATM    5  C   UNL     1      -8.292  10.515  68.580  1.00  0.00    -0.132 C  
HETATM    6  N   UNL     1      -9.348  11.170  67.785  1.00  0.00    -0.161 NA 
HETATM    7  N   UNL     1     -10.973   9.451  68.349  1.00  0.00    -0.463 N  
HETATM    8  C   UNL     1     -10.292  10.176  67.285  1.00  0.00    -0.237 C  
HETATM    9  H   UNL     1     -11.980   9.504  68.505  1.00  0.00     0.000 HD 
ENDROOT
BRANCH   6  10
HETATM   10  C   UNL     1     -10.040  12.265  68.471  1.00  0.00    -0.187 C  
BRANCH  10  11
HETATM   11  N   UNL     1      -9.801  13.538  67.799  1.00  0.00    -0.227 NA 
HETATM   12  C   UNL     1     -10.990  14.227  67.284  1.00  0.00    -0.297 C  
HETATM   13  C   UNL     1     -11.882  14.939  68.292  1.00  0.00    -0.278 C  
HETATM   14  S   UNL     1     -10.933  15.960  69.394  1.00  0.00    -0.338 S  
HETATM   15  O   UNL     1     -11.662  16.092  70.636  1.00  0.00    -0.368 OA 
HETATM   16  N   UNL     1      -9.635  14.969  69.726  1.00  0.00    -0.456 N  
HETATM   17  O   UNL     1     -10.447  17.113  68.669  1.00  0.00    -0.331 OA 
HETATM   18  H   UNL     1      -9.341  14.754  70.679  1.00  0.00     0.000 HD 
HETATM   19  C   UNL     1      -8.958  14.437  68.569  1.00  0.00    -0.187 C  
ENDBRANCH  10  11
ENDBRANCH   6  10
TORSDOF 2
ENDMDL
MODEL       74
REMARK 921   NORMALIZED FREE ENERGY PREDICTED BY IDOCK:   -3.84 KCAL/MOL
REMARK 922        TOTAL FREE ENERGY PREDICTED BY IDOCK:   -4.70 KCAL/MOL
REMARK 923 INTER-LIGAND FREE ENERGY PREDICTED BY IDOCK:   -4.33 KCAL/MOL
REMARK 924 INTRA-LIGAND FREE ENERGY PREDICTED BY IDOCK:   -0.37 KCAL/MOL
REMARK 927      BINDING AFFINITY PREDICTED BY RF-SCORE:    0.00 PKD
ROOT
HETATM    1  O   UNL     1     -11.169  16.517  68.256  1.00  0.00    -0.356 OA 
HETATM    2  S   UNL     1     -11.589  15.297  68.905  1.00  0.00    -0.355 S  
HETATM    3  C   UNL     1     -12.129  14.126  67.686  1.00  0.00    -0.302 C  
HETATM    4  O   UNL     1     -12.528  15.316  70.008  1.00  0.00    -0.339 OA 
HETATM    5  C   UNL     1     -10.960  13.754  66.789  1.00  0.00    -0.304 C  
HETATM    6  N   UNL     1      -9.768  13.217  67.471  1.00  0.00    -0.219 NA 
HETATM    7  N   UNL     1     -10.199  14.534  69.471  1.00  0.00    -0.428 N  
HETATM    8  C   UNL     1      -9.246  14.194  68.421  1.00  0.00    -0.203 C  
HETATM    9  H   UNL     1     -10.039  14.328  70.457  1.00  0.00     0.000 HD 
ENDROOT
BRANCH   6  10
HETATM   10  C   UNL     1      -9.962  11.910  68.104  1.00  0.00    -0.197 C  
BRANCH  10  11
HETATM   11  N   UNL     1      -8.834  11.025  67.836  1.00  0.00    -0.131 NA 
HETATM   12  C   UNL     1      -9.161   9.608  67.633  1.00  0.00    -0.130 C  
HETATM   13  C   UNL     1      -9.776   9.213  66.297  1.00  0.00    -0.274 C  
HETATM   14  S   UNL     1      -8.865   9.898  64.933  1.00  0.00    -0.211 S  
HETATM   15  O   UNL     1      -9.765  10.042  63.810  1.00  0.00    -0.242 OA 
HETATM   16  N   UNL     1      -8.564  11.442  65.482  1.00  0.00    -0.386 N  
HETATM   17  O   UNL     1      -7.602   9.206  64.814  1.00  0.00    -0.103 OA 
HETATM   18  H   UNL     1      -8.791  12.272  64.933  1.00  0.00     0.000 HD 
HETATM   19  C   UNL     1      -7.959  11.522  66.788  1.00  0.00    -0.152 C  
ENDBRANCH  10  11
ENDBRANCH   6  10
TORSDOF 2
ENDMDL
MODEL       75
REMARK 921   NORMALIZED FREE ENERGY PREDICTED BY IDOCK:   -3.83 KCAL/MOL
REMARK 922        TOTAL FREE ENERGY PREDICTED BY IDOCK:   -4.69 KCAL/MOL
REMARK 923 INTER-LIGAND FREE ENERGY PREDICTED BY IDOCK:   -4.39 KCAL/MOL
REMARK 924 INTRA-LIGAND FREE ENERGY PREDICTED BY IDOCK:   -0.30 KCAL/MOL
REMARK 927      BINDING AFFINITY PREDICTED BY RF-SCORE:    0.00 PKD
ROOT
HETATM    1  O   UNL     1      -9.486  17.226  68.546  1.00  0.00    -0.268 OA 
HETATM    2  S   UNL     1     -10.246  16.138  69.116  1.00  0.00    -0.273 S  
HETATM    3  C   UNL     1     -11.039  15.218  67.821  1.00  0.00    -0.318 C  
HETATM    4  O   UNL     1     -11.185  16.361  70.196  1.00  0.00    -0.354 OA 
HETATM    5  C   UNL     1      -9.983  14.585  66.931  1.00  0.00    -0.259 C  
HETATM    6  N   UNL     1      -9.007  13.710  67.610  1.00  0.00    -0.191 NA 
HETATM    7  N   UNL     1      -9.138  14.998  69.669  1.00  0.00    -0.456 N  
HETATM    8  C   UNL     1      -8.275  14.461  68.624  1.00  0.00    -0.148 C  
HETATM    9  H   UNL     1      -9.076  14.709  70.645  1.00  0.00     0.000 HD 
ENDROOT
BRANCH   6  10
HETATM   10  C   UNL     1      -9.573  12.478  68.164  1.00  0.00    -0.215 C  
BRANCH  10  11
HETATM   11  N   UNL     1      -9.865  11.514  67.108  1.00  0.00    -0.190 NA 
HETATM   12  C   UNL     1      -8.847  10.481  66.878  1.00  0.00    -0.137 C  
HETATM   13  C   UNL     1      -8.764   9.340  67.882  1.00  0.00    -0.124 C  
HETATM   14  S   UNL     1     -10.366   8.647  68.214  1.00  0.00    -0.186 S  
HETATM   15  O   UNL     1     -10.346   8.063  69.537  1.00  0.00    -0.212 OA 
HETATM   16  N   UNL     1     -11.302  10.021  68.332  1.00  0.00    -0.521 N  
HETATM   17  O   UNL     1     -10.806   7.899  67.057  1.00  0.00    -0.305 OA 
HETATM   18  H   UNL     1     -11.907  10.203  69.132  1.00  0.00     0.000 HD 
HETATM   19  C   UNL     1     -11.193  10.934  67.221  1.00  0.00    -0.233 C  
ENDBRANCH  10  11
ENDBRANCH   6  10
TORSDOF 2
ENDMDL
MODEL       76
REMARK 921   NORMALIZED FREE ENERGY PREDICTED BY IDOCK:   -3.80 KCAL/MOL
REMARK 922        TOTAL FREE ENERGY PREDICTED BY IDOCK:   -4.65 KCAL/MOL
REMARK 923 INTER-LIGAND FREE ENERGY PREDICTED BY IDOCK:   -4.37 KCAL/MOL
REMARK 924 INTRA-LIGAND FREE ENERGY PREDICTED BY IDOCK:   -0.28 KCAL/MOL
REMARK 927      BINDING AFFINITY PREDICTED BY RF-SCORE:    0.00 PKD
ROOT
HETATM    1  O   UNL     1     -11.641   5.560  72.900  1.00  0.00    -0.297 OA 
HETATM    2  S   UNL     1     -10.699   6.651  72.994  1.00  0.00    -0.278 S  
HETATM    3  C   UNL     1      -9.652   6.663  71.561  1.00  0.00    -0.164 C  
HETATM    4  O   UNL     1      -9.896   6.850  74.183  1.00  0.00    -0.278 OA 
HETATM    5  C   UNL     1     -10.492   6.928  70.323  1.00  0.00    -0.204 C  
HETATM    6  N   UNL     1     -11.294   8.166  70.340  1.00  0.00    -0.229 NA 
HETATM    7  N   UNL     1     -11.566   8.074  72.755  1.00  0.00    -0.527 N  
HETATM    8  C   UNL     1     -12.229   8.148  71.459  1.00  0.00    -0.301 C  
HETATM    9  H   UNL     1     -11.621   8.817  73.452  1.00  0.00     0.000 HD 
ENDROOT
BRANCH   6  10
HETATM   10  C   UNL     1     -10.509   9.403  70.321  1.00  0.00    -0.251 C  
BRANCH  10  11
HETATM   11  N   UNL     1      -9.706   9.496  69.107  1.00  0.00    -0.171 NA 
HETATM   12  C   UNL     1     -10.450   9.497  67.840  1.00  0.00    -0.241 C  
HETATM   13  C   UNL     1     -11.170  10.780  67.450  1.00  0.00    -0.241 C  
HETATM   14  S   UNL     1     -10.110  12.197  67.612  1.00  0.00    -0.202 S  
HETATM   15  O   UNL     1     -10.937  13.361  67.847  1.00  0.00    -0.245 OA 
HETATM   16  N   UNL     1      -9.348  11.875  69.058  1.00  0.00    -0.391 N  
HETATM   17  O   UNL     1      -9.117  12.167  66.561  1.00  0.00    -0.208 OA 
HETATM   18  H   UNL     1      -9.320  12.549  69.823  1.00  0.00     0.000 HD 
HETATM   19  C   UNL     1      -8.733  10.574  69.151  1.00  0.00    -0.147 C  
ENDBRANCH  10  11
ENDBRANCH   6  10
TORSDOF 2
ENDMDL
MODEL       77
REMARK 921   NORMALIZED FREE ENERGY PREDICTED BY IDOCK:   -3.80 KCAL/MOL
REMARK 922        TOTAL FREE ENERGY PREDICTED BY IDOCK:   -4.65 KCAL/MOL
REMARK 923 INTER-LIGAND FREE ENERGY PREDICTED BY IDOCK:   -4.17 KCAL/MOL
REMARK 924 INTRA-LIGAND FREE ENERGY PREDICTED BY IDOCK:   -0.48 KCAL/MOL
REMARK 927      BINDING AFFINITY PREDICTED BY RF-SCORE:    0.00 PKD
ROOT
HETATM    1  O   UNL     1      -9.877   6.176  72.681  1.00  0.00    -0.166 OA 
HETATM    2  S   UNL     1      -9.781   6.408  71.258  1.00  0.00    -0.173 S  
HETATM    3  C   UNL     1     -11.407   6.491  70.553  1.00  0.00    -0.367 C  
HETATM    4  O   UNL     1      -8.930   5.590  70.419  1.00  0.00    -0.134 OA 
HETATM    5  C   UNL     1     -12.149   7.683  71.133  1.00  0.00    -0.298 C  
HETATM    6  N   UNL     1     -11.492   8.994  70.972  1.00  0.00    -0.280 NA 
HETATM    7  N   UNL     1      -9.273   8.000  71.051  1.00  0.00    -0.146 N  
HETATM    8  C   UNL     1     -10.184   8.986  71.619  1.00  0.00    -0.348 C  
HETATM    9  H   UNL     1      -8.408   8.250  70.571  1.00  0.00     0.000 HD 
ENDROOT
BRANCH   6  10
HETATM   10  C   UNL     1     -11.399   9.465  69.588  1.00  0.00     0.008 C  
BRANCH  10  11
HETATM   11  N   UNL     1     -10.587  10.674  69.499  1.00  0.00    -0.236 NA 
HETATM   12  C   UNL     1      -9.624  10.724  68.392  1.00  0.00    -0.176 C  
HETATM   13  C   UNL     1     -10.170  11.001  66.998  1.00  0.00    -0.211 C  
HETATM   14  S   UNL     1     -11.274  12.394  66.996  1.00  0.00    -0.323 S  
HETATM   15  O   UNL     1     -12.201  12.240  65.896  1.00  0.00    -0.634 OA 
HETATM   16  N   UNL     1     -12.156  12.116  68.383  1.00  0.00    -0.184 N  
HETATM   17  O   UNL     1     -10.508  13.605  67.184  1.00  0.00    -0.261 OA 
HETATM   18  H   UNL     1     -13.176  12.104  68.388  1.00  0.00     0.000 HD 
HETATM   19  C   UNL     1     -11.374  11.893  69.573  1.00  0.00    -0.236 C  
ENDBRANCH  10  11
ENDBRANCH   6  10
TORSDOF 2
ENDMDL
MODEL       78
REMARK 921   NORMALIZED FREE ENERGY PREDICTED BY IDOCK:   -3.80 KCAL/MOL
REMARK 922        TOTAL FREE ENERGY PREDICTED BY IDOCK:   -4.65 KCAL/MOL
REMARK 923 INTER-LIGAND FREE ENERGY PREDICTED BY IDOCK:   -4.15 KCAL/MOL
REMARK 924 INTRA-LIGAND FREE ENERGY PREDICTED BY IDOCK:   -0.50 KCAL/MOL
REMARK 927      BINDING AFFINITY PREDICTED BY RF-SCORE:    0.00 PKD
ROOT
HETATM    1  O   UNL     1      -9.765   4.108  65.985  1.00  0.00    -0.182 OA 
HETATM    2  S   UNL     1      -9.006   5.222  66.503  1.00  0.00    -0.124 S  
HETATM    3  C   UNL     1     -10.048   6.653  66.623  1.00  0.00    -0.135 C  
HETATM    4  O   UNL     1      -7.731   5.597  65.927  1.00  0.00    -0.091 OA 
HETATM    5  C   UNL     1     -11.159   6.387  67.624  1.00  0.00    -0.289 C  
HETATM    6  N   UNL     1     -10.727   5.997  68.980  1.00  0.00    -0.292 NA 
HETATM    7  N   UNL     1      -8.722   4.910  68.133  1.00  0.00    -0.102 N  
HETATM    8  C   UNL     1      -9.938   4.771  68.925  1.00  0.00    -0.126 C  
HETATM    9  H   UNL     1      -7.786   4.826  68.530  1.00  0.00     0.000 HD 
ENDROOT
BRANCH   6  10
HETATM   10  C   UNL     1     -10.028   7.047  69.725  1.00  0.00    -0.173 C  
BRANCH  10  11
HETATM   11  N   UNL     1     -10.492   7.107  71.107  1.00  0.00    -0.210 NA 
HETATM   12  C   UNL     1     -10.173   8.337  71.842  1.00  0.00    -0.245 C  
HETATM   13  C   UNL     1     -10.995   9.578  71.523  1.00  0.00    -0.299 C  
HETATM   14  S   UNL     1     -12.737   9.224  71.523  1.00  0.00    -0.366 S  
HETATM   15  O   UNL     1     -13.396  10.172  70.652  1.00  0.00    -0.310 OA 
HETATM   16  N   UNL     1     -12.775   7.762  70.723  1.00  0.00    -0.519 N  
HETATM   17  O   UNL     1     -13.175   9.006  72.883  1.00  0.00    -0.339 OA 
HETATM   18  H   UNL     1     -13.378   7.596  69.917  1.00  0.00     0.000 HD 
HETATM   19  C   UNL     1     -11.893   6.751  71.251  1.00  0.00    -0.348 C  
ENDBRANCH  10  11
ENDBRANCH   6  10
TORSDOF 2
ENDMDL
MODEL       79
REMARK 921   NORMALIZED FREE ENERGY PREDICTED BY IDOCK:   -3.79 KCAL/MOL
REMARK 922        TOTAL FREE ENERGY PREDICTED BY IDOCK:   -4.64 KCAL/MOL
REMARK 923 INTER-LIGAND FREE ENERGY PREDICTED BY IDOCK:   -4.20 KCAL/MOL
REMARK 924 INTRA-LIGAND FREE ENERGY PREDICTED BY IDOCK:   -0.44 KCAL/MOL
REMARK 927      BINDING AFFINITY PREDICTED BY RF-SCORE:    0.00 PKD
ROOT
HETATM    1  O   UNL     1     -10.412   5.110  69.324  1.00  0.00    -0.219 OA 
HETATM    2  S   UNL     1     -10.745   6.467  69.691  1.00  0.00    -0.317 S  
HETATM    3  C   UNL     1      -9.282   7.321  70.219  1.00  0.00    -0.155 C  
HETATM    4  O   UNL     1     -11.830   6.753  70.606  1.00  0.00    -0.370 OA 
HETATM    5  C   UNL     1      -8.306   7.417  69.059  1.00  0.00    -0.126 C  
HETATM    6  N   UNL     1      -8.819   8.062  67.835  1.00  0.00    -0.131 NA 
HETATM    7  N   UNL     1     -11.087   7.294  68.265  1.00  0.00    -0.464 N  
HETATM    8  C   UNL     1      -9.973   7.330  67.325  1.00  0.00    -0.192 C  
HETATM    9  H   UNL     1     -11.989   7.730  68.077  1.00  0.00     0.000 HD 
ENDROOT
BRANCH   6  10
HETATM   10  C   UNL     1      -9.112   9.491  67.974  1.00  0.00    -0.123 C  
BRANCH  10  11
HETATM   11  N   UNL     1     -10.092   9.923  66.983  1.00  0.00    -0.206 NA 
HETATM   12  C   UNL     1     -11.113  10.867  67.455  1.00  0.00    -0.307 C  
HETATM   13  C   UNL     1     -10.691  12.316  67.655  1.00  0.00    -0.220 C  
HETATM   14  S   UNL     1      -9.798  12.934  66.248  1.00  0.00    -0.268 S  
HETATM   15  O   UNL     1      -8.922  13.996  66.694  1.00  0.00    -0.231 OA 
HETATM   16  N   UNL     1      -8.809  11.641  65.892  1.00  0.00    -0.378 N  
HETATM   17  O   UNL     1     -10.717  13.116  65.147  1.00  0.00    -0.295 OA 
HETATM   18  H   UNL     1      -7.799  11.738  65.787  1.00  0.00     0.000 HD 
HETATM   19  C   UNL     1      -9.484  10.375  65.743  1.00  0.00    -0.198 C  
ENDBRANCH  10  11
ENDBRANCH   6  10
TORSDOF 2
ENDMDL
MODEL       80
REMARK 921   NORMALIZED FREE ENERGY PREDICTED BY IDOCK:   -3.78 KCAL/MOL
REMARK 922        TOTAL FREE ENERGY PREDICTED BY IDOCK:   -4.63 KCAL/MOL
REMARK 923 INTER-LIGAND FREE ENERGY PREDICTED BY IDOCK:   -4.15 KCAL/MOL
REMARK 924 INTRA-LIGAND FREE ENERGY PREDICTED BY IDOCK:   -0.48 KCAL/MOL
REMARK 927      BINDING AFFINITY PREDICTED BY RF-SCORE:    0.00 PKD
ROOT
HETATM    1  O   UNL     1     -10.905   7.242  73.584  1.00  0.00    -0.356 OA 
HETATM    2  S   UNL     1     -11.128   6.967  72.184  1.00  0.00    -0.253 S  
HETATM    3  C   UNL     1     -12.498   7.930  71.596  1.00  0.00    -0.319 C  
HETATM    4  O   UNL     1     -11.244   5.609  71.694  1.00  0.00    -0.231 OA 
HETATM    5  C   UNL     1     -12.157   9.407  71.694  1.00  0.00    -0.388 C  
HETATM    6  N   UNL     1     -10.934   9.835  70.988  1.00  0.00    -0.339 NA 
HETATM    7  N   UNL     1      -9.862   7.679  71.333  1.00  0.00    -0.173 N  
HETATM    8  C   UNL     1      -9.773   9.123  71.512  1.00  0.00    -0.243 C  
HETATM    9  H   UNL     1      -9.218   7.149  70.746  1.00  0.00     0.000 HD 
ENDROOT
BRANCH   6  10
HETATM   10  C   UNL     1     -11.005   9.739  69.528  1.00  0.00    -0.227 C  
BRANCH  10  11
HETATM   11  N   UNL     1      -9.671   9.749  68.937  1.00  0.00    -0.165 NA 
HETATM   12  C   UNL     1      -9.422   8.750  67.890  1.00  0.00    -0.142 C  
HETATM   13  C   UNL     1     -10.022   9.008  66.515  1.00  0.00    -0.285 C  
HETATM   14  S   UNL     1      -9.691  10.664  65.961  1.00  0.00    -0.220 S  
HETATM   15  O   UNL     1     -10.734  11.053  65.037  1.00  0.00    -0.274 OA 
HETATM   16  N   UNL     1      -9.961  11.538  67.354  1.00  0.00    -0.189 N  
HETATM   17  O   UNL     1      -8.290  10.777  65.621  1.00  0.00    -0.164 OA 
HETATM   18  H   UNL     1     -10.587  12.342  67.382  1.00  0.00     0.000 HD 
HETATM   19  C   UNL     1      -9.246  11.074  68.517  1.00  0.00    -0.177 C  
ENDBRANCH  10  11
ENDBRANCH   6  10
TORSDOF 2
ENDMDL
MODEL       81
REMARK 921   NORMALIZED FREE ENERGY PREDICTED BY IDOCK:   -3.78 KCAL/MOL
REMARK 922        TOTAL FREE ENERGY PREDICTED BY IDOCK:   -4.63 KCAL/MOL
REMARK 923 INTER-LIGAND FREE ENERGY PREDICTED BY IDOCK:   -5.66 KCAL/MOL
REMARK 924 INTRA-LIGAND FREE ENERGY PREDICTED BY IDOCK:    1.03 KCAL/MOL
REMARK 927      BINDING AFFINITY PREDICTED BY RF-SCORE:    0.00 PKD
ROOT
HETATM    1  O   UNL     1     -10.675  15.229  70.714  1.00  0.00    -0.276 OA 
HETATM    2  S   UNL     1     -11.053  15.203  69.320  1.00  0.00    -0.293 S  
HETATM    3  C   UNL     1      -9.720  14.546  68.350  1.00  0.00    -0.224 C  
HETATM    4  O   UNL     1     -11.597  16.375  68.666  1.00  0.00    -0.311 OA 
HETATM    5  C   UNL     1      -9.465  13.104  68.753  1.00  0.00     0.109 C  
HETATM    6  N   UNL     1     -10.620  12.192  68.655  1.00  0.00    -0.227 NA 
HETATM    7  N   UNL     1     -12.196  13.979  69.141  1.00  0.00    -0.472 N  
HETATM    8  C   UNL     1     -11.705  12.658  69.512  1.00  0.00    -0.308 C  
HETATM    9  H   UNL     1     -13.144  14.148  68.805  1.00  0.00     0.000 HD 
ENDROOT
BRANCH   6  10
HETATM   10  C   UNL     1     -11.089  11.942  67.290  1.00  0.00    -0.288 C  
BRANCH  10  11
HETATM   11  N   UNL     1     -10.942  13.132  66.459  1.00  0.00    -0.283 NA 
HETATM   12  C   UNL     1     -10.093  12.989  65.270  1.00  0.00    -0.231 C  
HETATM   13  C   UNL     1     -10.674  12.241  64.078  1.00  0.00    -0.396 C  
HETATM   14  S   UNL     1     -12.305  12.823  63.677  1.00  0.00    -0.429 S  
HETATM   15  O   UNL     1     -13.024  11.750  63.025  1.00  0.00    -0.487 OA 
HETATM   16  N   UNL     1     -12.981  12.976  65.192  1.00  0.00    -0.629 N  
HETATM   17  O   UNL     1     -12.206  14.141  63.091  1.00  0.00    -0.451 OA 
HETATM   18  H   UNL     1     -13.874  12.548  65.438  1.00  0.00     0.000 HD 
HETATM   19  C   UNL     1     -12.213  13.755  66.131  1.00  0.00    -0.459 C  
ENDBRANCH  10  11
ENDBRANCH   6  10
TORSDOF 2
ENDMDL
MODEL       82
REMARK 921   NORMALIZED FREE ENERGY PREDICTED BY IDOCK:   -3.77 KCAL/MOL
REMARK 922        TOTAL FREE ENERGY PREDICTED BY IDOCK:   -4.62 KCAL/MOL
REMARK 923 INTER-LIGAND FREE ENERGY PREDICTED BY IDOCK:   -4.30 KCAL/MOL
REMARK 924 INTRA-LIGAND FREE ENERGY PREDICTED BY IDOCK:   -0.32 KCAL/MOL
REMARK 927      BINDING AFFINITY PREDICTED BY RF-SCORE:    0.00 PKD
ROOT
HETATM    1  O   UNL     1     -10.127  13.266  66.709  1.00  0.00    -0.248 OA 
HETATM    2  S   UNL     1     -10.522  13.118  68.090  1.00  0.00    -0.254 S  
HETATM    3  C   UNL     1     -11.765  11.858  68.226  1.00  0.00    -0.321 C  
HETATM    4  O   UNL     1     -10.905  14.264  68.889  1.00  0.00    -0.245 OA 
HETATM    5  C   UNL     1     -11.178  10.522  67.803  1.00  0.00    -0.273 C  
HETATM    6  N   UNL     1      -9.973  10.086  68.533  1.00  0.00    -0.157 NA 
HETATM    7  N   UNL     1      -9.242  12.377  68.894  1.00  0.00    -0.373 N  
HETATM    8  C   UNL     1      -8.901  11.061  68.368  1.00  0.00    -0.151 C  
HETATM    9  H   UNL     1      -8.752  12.810  69.677  1.00  0.00     0.000 HD 
ENDROOT
BRANCH   6  10
HETATM   10  C   UNL     1     -10.195   9.772  69.947  1.00  0.00    -0.254 C  
BRANCH  10  11
HETATM   11  N   UNL     1     -11.044   8.594  70.096  1.00  0.00    -0.230 NA 
HETATM   12  C   UNL     1     -10.357   7.297  70.064  1.00  0.00    -0.213 C  
HETATM   13  C   UNL     1      -9.582   6.881  71.306  1.00  0.00    -0.165 C  
HETATM   14  S   UNL     1     -10.550   7.097  72.781  1.00  0.00    -0.297 S  
HETATM   15  O   UNL     1      -9.648   7.302  73.893  1.00  0.00    -0.251 OA 
HETATM   16  N   UNL     1     -11.265   8.574  72.491  1.00  0.00    -0.330 N  
HETATM   17  O   UNL     1     -11.588   6.092  72.816  1.00  0.00    -0.247 OA 
HETATM   18  H   UNL     1     -11.222   9.343  73.160  1.00  0.00     0.000 HD 
HETATM   19  C   UNL     1     -11.950   8.687  71.227  1.00  0.00    -0.293 C  
ENDBRANCH  10  11
ENDBRANCH   6  10
TORSDOF 2
ENDMDL
MODEL       83
REMARK 921   NORMALIZED FREE ENERGY PREDICTED BY IDOCK:   -3.70 KCAL/MOL
REMARK 922        TOTAL FREE ENERGY PREDICTED BY IDOCK:   -4.55 KCAL/MOL
REMARK 923 INTER-LIGAND FREE ENERGY PREDICTED BY IDOCK:   -4.61 KCAL/MOL
REMARK 924 INTRA-LIGAND FREE ENERGY PREDICTED BY IDOCK:    0.06 KCAL/MOL
REMARK 927      BINDING AFFINITY PREDICTED BY RF-SCORE:    0.00 PKD
ROOT
HETATM    1  O   UNL     1      -6.474  20.625  66.317  1.00  0.00    -0.221 OA 
HETATM    2  S   UNL     1      -6.826  19.845  67.481  1.00  0.00    -0.239 S  
HETATM    3  C   UNL     1      -8.592  19.767  67.637  1.00  0.00    -0.326 C  
HETATM    4  O   UNL     1      -6.237  20.118  68.775  1.00  0.00    -0.275 OA 
HETATM    5  C   UNL     1      -9.174  19.036  66.439  1.00  0.00    -0.334 C  
HETATM    6  N   UNL     1      -8.655  17.677  66.197  1.00  0.00    -0.491 NA 
HETATM    7  N   UNL     1      -6.477  18.238  67.122  1.00  0.00    -0.173 N  
HETATM    8  C   UNL     1      -7.213  17.718  65.977  1.00  0.00    -0.287 C  
HETATM    9  H   UNL     1      -5.811  17.680  67.657  1.00  0.00     0.000 HD 
ENDROOT
BRANCH   6  10
HETATM   10  C   UNL     1      -9.009  16.695  67.225  1.00  0.00    -0.200 C  
BRANCH  10  11
HETATM   11  N   UNL     1     -10.447  16.450  67.243  1.00  0.00    -0.303 NA 
HETATM   12  C   UNL     1     -10.860  15.048  67.388  1.00  0.00    -0.305 C  
HETATM   13  C   UNL     1     -10.748  14.423  68.772  1.00  0.00    -0.252 C  
HETATM   14  S   UNL     1     -11.458  15.470  70.019  1.00  0.00    -0.365 S  
HETATM   15  O   UNL     1     -10.810  15.183  71.280  1.00  0.00    -0.219 OA 
HETATM   16  N   UNL     1     -10.903  16.968  69.547  1.00  0.00    -0.369 N  
HETATM   17  O   UNL     1     -12.898  15.458  69.883  1.00  0.00    -0.176 OA 
HETATM   18  H   UNL     1     -10.416  17.597  70.186  1.00  0.00     0.000 HD 
HETATM   19  C   UNL     1     -11.159  17.312  68.170  1.00  0.00    -0.070 C  
ENDBRANCH  10  11
ENDBRANCH   6  10
TORSDOF 2
ENDMDL
MODEL       84
REMARK 921   NORMALIZED FREE ENERGY PREDICTED BY IDOCK:   -3.65 KCAL/MOL
REMARK 922        TOTAL FREE ENERGY PREDICTED BY IDOCK:   -4.49 KCAL/MOL
REMARK 923 INTER-LIGAND FREE ENERGY PREDICTED BY IDOCK:   -4.06 KCAL/MOL
REMARK 924 INTRA-LIGAND FREE ENERGY PREDICTED BY IDOCK:   -0.42 KCAL/MOL
REMARK 927      BINDING AFFINITY PREDICTED BY RF-SCORE:    0.00 PKD
ROOT
HETATM    1  O   UNL     1      -7.752   7.476  65.897  1.00  0.00    -0.091 OA 
HETATM    2  S   UNL     1      -7.404   8.873  66.016  1.00  0.00    -0.090 S  
HETATM    3  C   UNL     1      -7.317   9.608  64.402  1.00  0.00    -0.125 C  
HETATM    4  O   UNL     1      -6.266   9.300  66.804  1.00  0.00    -0.063 OA 
HETATM    5  C   UNL     1      -8.689   9.561  63.752  1.00  0.00    -0.217 C  
HETATM    6  N   UNL     1      -9.785  10.197  64.508  1.00  0.00    -0.312 NA 
HETATM    7  N   UNL     1      -8.750   9.666  66.644  1.00  0.00    -0.133 N  
HETATM    8  C   UNL     1      -9.939   9.555  65.809  1.00  0.00    -0.245 C  
HETATM    9  H   UNL     1      -8.733  10.176  67.527  1.00  0.00     0.000 HD 
ENDROOT
BRANCH   6  10
HETATM   10  C   UNL     1      -9.672  11.652  64.641  1.00  0.00    -0.185 C  
BRANCH  10  11
HETATM   11  N   UNL     1     -10.389  12.127  65.819  1.00  0.00    -0.250 NA 
HETATM   12  C   UNL     1      -9.647  13.036  66.702  1.00  0.00    -0.259 C  
HETATM   13  C   UNL     1      -9.472  14.476  66.241  1.00  0.00    -0.283 C  
HETATM   14  S   UNL     1     -11.011  15.175  65.690  1.00  0.00    -0.354 S  
HETATM   15  O   UNL     1     -10.721  16.219  64.732  1.00  0.00    -0.680 OA 
HETATM   16  N   UNL     1     -11.651  13.911  64.813  1.00  0.00    -0.357 N  
HETATM   17  O   UNL     1     -11.861  15.407  66.836  1.00  0.00    -0.017 OA 
HETATM   18  H   UNL     1     -11.978  14.022  63.853  1.00  0.00     0.000 HD 
HETATM   19  C   UNL     1     -11.709  12.649  65.509  1.00  0.00    -0.402 C  
ENDBRANCH  10  11
ENDBRANCH   6  10
TORSDOF 2
ENDMDL
MODEL       85
REMARK 921   NORMALIZED FREE ENERGY PREDICTED BY IDOCK:   -3.63 KCAL/MOL
REMARK 922        TOTAL FREE ENERGY PREDICTED BY IDOCK:   -4.47 KCAL/MOL
REMARK 923 INTER-LIGAND FREE ENERGY PREDICTED BY IDOCK:   -4.16 KCAL/MOL
REMARK 924 INTRA-LIGAND FREE ENERGY PREDICTED BY IDOCK:   -0.31 KCAL/MOL
REMARK 927      BINDING AFFINITY PREDICTED BY RF-SCORE:    0.00 PKD
ROOT
HETATM    1  O   UNL     1     -10.252  18.051  66.850  1.00  0.00    -0.330 OA 
HETATM    2  S   UNL     1      -9.227  17.105  66.474  1.00  0.00    -0.267 S  
HETATM    3  C   UNL     1      -8.701  16.193  67.902  1.00  0.00    -0.174 C  
HETATM    4  O   UNL     1      -8.069  17.517  65.708  1.00  0.00    -0.551 OA 
HETATM    5  C   UNL     1      -9.864  15.375  68.436  1.00  0.00    -0.215 C  
HETATM    6  N   UNL     1     -10.492  14.444  67.479  1.00  0.00    -0.252 NA 
HETATM    7  N   UNL     1      -9.980  15.886  65.589  1.00  0.00    -0.345 N  
HETATM    8  C   UNL     1     -11.014  15.176  66.331  1.00  0.00    -0.329 C  
HETATM    9  H   UNL     1      -9.734  15.666  64.624  1.00  0.00     0.000 HD 
ENDROOT
BRANCH   6  10
HETATM   10  C   UNL     1      -9.637  13.331  67.058  1.00  0.00    -0.243 C  
BRANCH  10  11
HETATM   11  N   UNL     1      -9.549  12.314  68.101  1.00  0.00    -0.209 NA 
HETATM   12  C   UNL     1     -10.749  11.492  68.303  1.00  0.00    -0.211 C  
HETATM   13  C   UNL     1     -11.036  10.403  67.279  1.00  0.00    -0.240 C  
HETATM   14  S   UNL     1      -9.591   9.420  66.953  1.00  0.00    -0.177 S  
HETATM   15  O   UNL     1      -9.705   8.871  65.619  1.00  0.00    -0.210 OA 
HETATM   16  N   UNL     1      -8.409  10.591  66.868  1.00  0.00    -0.124 N  
HETATM   17  O   UNL     1      -9.319   8.585  68.101  1.00  0.00    -0.137 OA 
HETATM   18  H   UNL     1      -7.768  10.666  66.077  1.00  0.00     0.000 HD 
HETATM   19  C   UNL     1      -8.356  11.492  67.993  1.00  0.00    -0.146 C  
ENDBRANCH  10  11
ENDBRANCH   6  10
TORSDOF 2
ENDMDL
MODEL       86
REMARK 921   NORMALIZED FREE ENERGY PREDICTED BY IDOCK:   -3.61 KCAL/MOL
REMARK 922        TOTAL FREE ENERGY PREDICTED BY IDOCK:   -4.44 KCAL/MOL
REMARK 923 INTER-LIGAND FREE ENERGY PREDICTED BY IDOCK:   -4.04 KCAL/MOL
REMARK 924 INTRA-LIGAND FREE ENERGY PREDICTED BY IDOCK:   -0.40 KCAL/MOL
REMARK 927      BINDING AFFINITY PREDICTED BY RF-SCORE:    0.00 PKD
ROOT
HETATM    1  O   UNL     1      -7.625   8.497  65.739  1.00  0.00    -0.082 OA 
HETATM    2  S   UNL     1      -8.511   9.347  64.979  1.00  0.00    -0.170 S  
HETATM    3  C   UNL     1     -10.021   9.595  65.879  1.00  0.00    -0.281 C  
HETATM    4  O   UNL     1      -8.815   9.067  63.591  1.00  0.00    -0.143 OA 
HETATM    5  C   UNL     1      -9.723  10.333  67.173  1.00  0.00    -0.173 C  
HETATM    6  N   UNL     1      -9.033  11.629  67.032  1.00  0.00    -0.176 NA 
HETATM    7  N   UNL     1      -7.866  10.901  65.026  1.00  0.00    -0.354 N  
HETATM    8  C   UNL     1      -7.744  11.446  66.373  1.00  0.00    -0.051 C  
HETATM    9  H   UNL     1      -7.586  11.413  64.190  1.00  0.00     0.000 HD 
ENDROOT
BRANCH   6  10
HETATM   10  C   UNL     1      -9.823  12.675  66.379  1.00  0.00    -0.259 C  
BRANCH  10  11
HETATM   11  N   UNL     1      -9.470  13.995  66.890  1.00  0.00    -0.255 NA 
HETATM   12  C   UNL     1     -10.452  15.061  66.654  1.00  0.00    -0.284 C  
HETATM   13  C   UNL     1     -11.702  15.070  67.522  1.00  0.00    -0.253 C  
HETATM   14  S   UNL     1     -11.300  14.892  69.244  1.00  0.00    -0.315 S  
HETATM   15  O   UNL     1     -12.433  14.297  69.918  1.00  0.00    -0.337 OA 
HETATM   16  N   UNL     1     -10.126  13.711  69.187  1.00  0.00    -0.424 N  
HETATM   17  O   UNL     1     -10.688  16.114  69.716  1.00  0.00    -0.292 OA 
HETATM   18  H   UNL     1     -10.174  12.864  69.755  1.00  0.00     0.000 HD 
HETATM   19  C   UNL     1      -9.038  13.970  68.277  1.00  0.00    -0.191 C  
ENDBRANCH  10  11
ENDBRANCH   6  10
TORSDOF 2
ENDMDL
MODEL       87
REMARK 921   NORMALIZED FREE ENERGY PREDICTED BY IDOCK:   -3.60 KCAL/MOL
REMARK 922        TOTAL FREE ENERGY PREDICTED BY IDOCK:   -4.44 KCAL/MOL
REMARK 923 INTER-LIGAND FREE ENERGY PREDICTED BY IDOCK:   -4.18 KCAL/MOL
REMARK 924 INTRA-LIGAND FREE ENERGY PREDICTED BY IDOCK:   -0.26 KCAL/MOL
REMARK 927      BINDING AFFINITY PREDICTED BY RF-SCORE:    0.00 PKD
ROOT
HETATM    1  O   UNL     1     -12.987  14.286  65.171  1.00  0.00    -0.692 OA 
HETATM    2  S   UNL     1     -12.454  12.999  64.790  1.00  0.00    -0.402 S  
HETATM    3  C   UNL     1     -10.851  13.208  64.058  1.00  0.00    -0.318 C  
HETATM    4  O   UNL     1     -13.230  12.067  63.998  1.00  0.00    -0.681 OA 
HETATM    5  C   UNL     1      -9.895  13.781  65.090  1.00  0.00    -0.093 C  
HETATM    6  N   UNL     1      -9.752  13.007  66.338  1.00  0.00    -0.265 NA 
HETATM    7  N   UNL     1     -12.041  12.195  66.211  1.00  0.00    -0.147 N  
HETATM    8  C   UNL     1     -11.042  12.892  67.011  1.00  0.00    -0.275 C  
HETATM    9  H   UNL     1     -12.453  11.304  66.485  1.00  0.00     0.000 HD 
ENDROOT
BRANCH   6  10
HETATM   10  C   UNL     1      -9.116  11.697  66.176  1.00  0.00    -0.203 C  
BRANCH  10  11
HETATM   11  N   UNL     1      -9.640  10.738  67.142  1.00  0.00    -0.160 NA 
HETATM   12  C   UNL     1     -10.215   9.508  66.583  1.00  0.00    -0.240 C  
HETATM   13  C   UNL     1      -9.247   8.449  66.072  1.00  0.00    -0.187 C  
HETATM   14  S   UNL     1      -7.962   8.117  67.253  1.00  0.00    -0.114 S  
HETATM   15  O   UNL     1      -6.798   7.640  66.539  1.00  0.00    -0.060 OA 
HETATM   16  N   UNL     1      -7.584   9.656  67.770  1.00  0.00    -0.087 N  
HETATM   17  O   UNL     1      -8.522   7.390  68.370  1.00  0.00    -0.124 OA 
HETATM   18  H   UNL     1      -6.629  10.014  67.770  1.00  0.00     0.000 HD 
HETATM   19  C   UNL     1      -8.705  10.445  68.216  1.00  0.00    -0.128 C  
ENDBRANCH  10  11
ENDBRANCH   6  10
TORSDOF 2
ENDMDL
MODEL       88
REMARK 921   NORMALIZED FREE ENERGY PREDICTED BY IDOCK:   -3.60 KCAL/MOL
REMARK 922        TOTAL FREE ENERGY PREDICTED BY IDOCK:   -4.43 KCAL/MOL
REMARK 923 INTER-LIGAND FREE ENERGY PREDICTED BY IDOCK:   -4.35 KCAL/MOL
REMARK 924 INTRA-LIGAND FREE ENERGY PREDICTED BY IDOCK:   -0.08 KCAL/MOL
REMARK 927      BINDING AFFINITY PREDICTED BY RF-SCORE:    0.00 PKD
ROOT
HETATM    1  O   UNL     1      -7.778   7.720  65.679  1.00  0.00    -0.091 OA 
HETATM    2  S   UNL     1      -8.707   6.677  66.046  1.00  0.00    -0.130 S  
HETATM    3  C   UNL     1      -8.257   6.003  67.626  1.00  0.00    -0.109 C  
HETATM    4  O   UNL     1      -9.027   5.599  65.133  1.00  0.00    -0.105 OA 
HETATM    5  C   UNL     1      -8.380   7.081  68.688  1.00  0.00    -0.122 C  
HETATM    6  N   UNL     1      -9.701   7.727  68.804  1.00  0.00    -0.155 NA 
HETATM    7  N   UNL     1     -10.163   7.427  66.435  1.00  0.00    -0.480 N  
HETATM    8  C   UNL     1     -10.062   8.367  67.543  1.00  0.00    -0.218 C  
HETATM    9  H   UNL     1     -11.035   7.239  65.940  1.00  0.00     0.000 HD 
ENDROOT
BRANCH   6  10
HETATM   10  C   UNL     1     -10.772   6.848  69.281  1.00  0.00    -0.238 C  
BRANCH  10  11
HETATM   11  N   UNL     1     -10.912   6.931  70.731  1.00  0.00    -0.248 NA 
HETATM   12  C   UNL     1     -10.307   8.106  71.370  1.00  0.00    -0.208 C  
HETATM   13  C   UNL     1     -11.039   9.434  71.234  1.00  0.00    -0.376 C  
HETATM   14  S   UNL     1     -12.766   9.269  71.620  1.00  0.00    -0.390 S  
HETATM   15  O   UNL     1     -13.493  10.299  70.911  1.00  0.00    -0.307 OA 
HETATM   16  N   UNL     1     -13.138   7.836  70.856  1.00  0.00    -0.540 N  
HETATM   17  O   UNL     1     -12.915   9.074  73.045  1.00  0.00    -0.277 OA 
HETATM   18  H   UNL     1     -13.917   7.750  70.204  1.00  0.00     0.000 HD 
HETATM   19  C   UNL     1     -12.277   6.725  71.182  1.00  0.00    -0.360 C  
ENDBRANCH  10  11
ENDBRANCH   6  10
TORSDOF 2
ENDMDL
MODEL       89
REMARK 921   NORMALIZED FREE ENERGY PREDICTED BY IDOCK:   -3.57 KCAL/MOL
REMARK 922        TOTAL FREE ENERGY PREDICTED BY IDOCK:   -4.40 KCAL/MOL
REMARK 923 INTER-LIGAND FREE ENERGY PREDICTED BY IDOCK:   -4.11 KCAL/MOL
REMARK 924 INTRA-LIGAND FREE ENERGY PREDICTED BY IDOCK:   -0.28 KCAL/MOL
REMARK 927      BINDING AFFINITY PREDICTED BY RF-SCORE:    0.00 PKD
ROOT
HETATM    1  O   UNL     1     -12.601   7.086  71.913  1.00  0.00    -0.331 OA 
HETATM    2  S   UNL     1     -11.285   7.643  72.124  1.00  0.00    -0.305 S  
HETATM    3  C   UNL     1     -10.230   7.222  70.761  1.00  0.00    -0.197 C  
HETATM    4  O   UNL     1     -10.573   7.439  73.369  1.00  0.00    -0.362 OA 
HETATM    5  C   UNL     1     -10.767   7.860  69.491  1.00  0.00    -0.192 C  
HETATM    6  N   UNL     1     -10.940   9.324  69.526  1.00  0.00    -0.198 NA 
HETATM    7  N   UNL     1     -11.414   9.308  71.912  1.00  0.00    -0.367 N  
HETATM    8  C   UNL     1     -11.873   9.697  70.584  1.00  0.00    -0.256 C  
HETATM    9  H   UNL     1     -11.192   9.982  72.644  1.00  0.00     0.000 HD 
ENDROOT
BRANCH   6  10
HETATM   10  C   UNL     1      -9.692  10.085  69.624  1.00  0.00    -0.229 C  
BRANCH  10  11
HETATM   11  N   UNL     1      -9.752  11.298  68.815  1.00  0.00    -0.199 NA 
HETATM   12  C   UNL     1      -8.519  11.663  68.107  1.00  0.00    -0.156 C  
HETATM   13  C   UNL     1      -8.161  10.864  66.862  1.00  0.00    -0.137 C  
HETATM   14  S   UNL     1      -9.550  10.711  65.764  1.00  0.00    -0.225 S  
HETATM   15  O   UNL     1      -9.384   9.505  64.983  1.00  0.00    -0.249 OA 
HETATM   16  N   UNL     1     -10.785  10.397  66.838  1.00  0.00    -0.236 N  
HETATM   17  O   UNL     1      -9.806  11.992  65.145  1.00  0.00    -0.248 OA 
HETATM   18  H   UNL     1     -11.412   9.599  66.732  1.00  0.00     0.000 HD 
HETATM   19  C   UNL     1     -10.903  11.333  67.929  1.00  0.00    -0.228 C  
ENDBRANCH  10  11
ENDBRANCH   6  10
TORSDOF 2
ENDMDL
MODEL       90
REMARK 921   NORMALIZED FREE ENERGY PREDICTED BY IDOCK:   -3.57 KCAL/MOL
REMARK 922        TOTAL FREE ENERGY PREDICTED BY IDOCK:   -4.40 KCAL/MOL
REMARK 923 INTER-LIGAND FREE ENERGY PREDICTED BY IDOCK:   -3.90 KCAL/MOL
REMARK 924 INTRA-LIGAND FREE ENERGY PREDICTED BY IDOCK:   -0.49 KCAL/MOL
REMARK 927      BINDING AFFINITY PREDICTED BY RF-SCORE:    0.00 PKD
ROOT
HETATM    1  O   UNL     1     -12.595   8.458  72.562  1.00  0.00    -0.345 OA 
HETATM    2  S   UNL     1     -11.323   7.775  72.554  1.00  0.00    -0.388 S  
HETATM    3  C   UNL     1     -11.420   6.340  71.514  1.00  0.00    -0.293 C  
HETATM    4  O   UNL     1     -10.644   7.434  73.788  1.00  0.00    -0.349 OA 
HETATM    5  C   UNL     1     -11.685   6.771  70.082  1.00  0.00    -0.313 C  
HETATM    6  N   UNL     1     -10.712   7.716  69.502  1.00  0.00    -0.233 NA 
HETATM    7  N   UNL     1     -10.256   8.727  71.666  1.00  0.00    -0.295 N  
HETATM    8  C   UNL     1     -10.672   8.945  70.287  1.00  0.00    -0.221 C  
HETATM    9  H   UNL     1      -9.398   9.115  72.058  1.00  0.00     0.000 HD 
ENDROOT
BRANCH   6  10
HETATM   10  C   UNL     1      -9.368   7.167  69.304  1.00  0.00    -0.146 C  
BRANCH  10  11
HETATM   11  N   UNL     1      -8.880   7.446  67.958  1.00  0.00    -0.127 NA 
HETATM   12  C   UNL     1      -7.692   6.695  67.534  1.00  0.00    -0.110 C  
HETATM   13  C   UNL     1      -7.884   5.235  67.149  1.00  0.00    -0.100 C  
HETATM   14  S   UNL     1      -9.248   5.031  66.028  1.00  0.00    -0.158 S  
HETATM   15  O   UNL     1      -9.771   3.691  66.185  1.00  0.00    -0.167 OA 
HETATM   16  N   UNL     1     -10.382   6.049  66.701  1.00  0.00    -0.323 N  
HETATM   17  O   UNL     1      -8.879   5.558  64.734  1.00  0.00    -0.098 OA 
HETATM   18  H   UNL     1     -11.330   5.742  66.920  1.00  0.00     0.000 HD 
HETATM   19  C   UNL     1      -9.928   7.394  66.952  1.00  0.00    -0.236 C  
ENDBRANCH  10  11
ENDBRANCH   6  10
TORSDOF 2
ENDMDL
MODEL       91
REMARK 921   NORMALIZED FREE ENERGY PREDICTED BY IDOCK:   -3.57 KCAL/MOL
REMARK 922        TOTAL FREE ENERGY PREDICTED BY IDOCK:   -4.39 KCAL/MOL
REMARK 923 INTER-LIGAND FREE ENERGY PREDICTED BY IDOCK:   -4.06 KCAL/MOL
REMARK 924 INTRA-LIGAND FREE ENERGY PREDICTED BY IDOCK:   -0.33 KCAL/MOL
REMARK 927      BINDING AFFINITY PREDICTED BY RF-SCORE:    0.00 PKD
ROOT
HETATM    1  O   UNL     1     -10.584  12.919  65.562  1.00  0.00    -0.271 OA 
HETATM    2  S   UNL     1      -9.743  12.656  66.706  1.00  0.00    -0.246 S  
HETATM    3  C   UNL     1     -10.751  12.239  68.106  1.00  0.00    -0.216 C  
HETATM    4  O   UNL     1      -8.711  13.587  67.111  1.00  0.00    -0.210 OA 
HETATM    5  C   UNL     1     -11.504  10.951  67.822  1.00  0.00    -0.243 C  
HETATM    6  N   UNL     1     -10.676   9.784  67.465  1.00  0.00    -0.277 NA 
HETATM    7  N   UNL     1      -8.978  11.182  66.427  1.00  0.00    -0.177 N  
HETATM    8  C   UNL     1      -9.899  10.064  66.263  1.00  0.00    -0.236 C  
HETATM    9  H   UNL     1      -7.964  11.081  66.378  1.00  0.00     0.000 HD 
ENDROOT
BRANCH   6  10
HETATM   10  C   UNL     1      -9.823   9.285  68.547  1.00  0.00    -0.158 C  
BRANCH  10  11
HETATM   11  N   UNL     1      -9.422   7.904  68.305  1.00  0.00    -0.143 NA 
HETATM   12  C   UNL     1      -8.527   7.308  69.304  1.00  0.00    -0.133 C  
HETATM   13  C   UNL     1      -9.139   6.886  70.633  1.00  0.00    -0.155 C  
HETATM   14  S   UNL     1     -10.617   5.929  70.394  1.00  0.00    -0.306 S  
HETATM   15  O   UNL     1     -11.458   6.088  71.560  1.00  0.00    -0.281 OA 
HETATM   16  N   UNL     1     -11.364   6.777  69.169  1.00  0.00    -0.562 N  
HETATM   17  O   UNL     1     -10.259   4.624  69.885  1.00  0.00    -0.237 OA 
HETATM   18  H   UNL     1     -12.331   7.095  69.235  1.00  0.00     0.000 HD 
HETATM   19  C   UNL     1     -10.545   7.030  68.010  1.00  0.00    -0.207 C  
ENDBRANCH  10  11
ENDBRANCH   6  10
TORSDOF 2
ENDMDL
MODEL       92
REMARK 921   NORMALIZED FREE ENERGY PREDICTED BY IDOCK:   -3.56 KCAL/MOL
REMARK 922        TOTAL FREE ENERGY PREDICTED BY IDOCK:   -4.38 KCAL/MOL
REMARK 923 INTER-LIGAND FREE ENERGY PREDICTED BY IDOCK:   -4.18 KCAL/MOL
REMARK 924 INTRA-LIGAND FREE ENERGY PREDICTED BY IDOCK:   -0.20 KCAL/MOL
REMARK 927      BINDING AFFINITY PREDICTED BY RF-SCORE:    0.00 PKD
ROOT
HETATM    1  O   UNL     1      -8.243   4.834  66.661  1.00  0.00    -0.107 OA 
HETATM    2  S   UNL     1      -9.591   5.314  66.859  1.00  0.00    -0.159 S  
HETATM    3  C   UNL     1      -9.939   5.420  68.596  1.00  0.00    -0.170 C  
HETATM    4  O   UNL     1     -10.714   4.705  66.177  1.00  0.00    -0.269 OA 
HETATM    5  C   UNL     1      -9.019   6.448  69.234  1.00  0.00    -0.133 C  
HETATM    6  N   UNL     1      -9.065   7.804  68.653  1.00  0.00    -0.136 NA 
HETATM    7  N   UNL     1      -9.601   6.945  66.442  1.00  0.00    -0.335 N  
HETATM    8  C   UNL     1      -8.698   7.761  67.242  1.00  0.00    -0.128 C  
HETATM    9  H   UNL     1     -10.187   7.325  65.698  1.00  0.00     0.000 HD 
ENDROOT
BRANCH   6  10
HETATM   10  C   UNL     1     -10.332   8.512  68.854  1.00  0.00    -0.210 C  
BRANCH  10  11
HETATM   11  N   UNL     1     -10.120   9.780  69.543  1.00  0.00    -0.202 NA 
HETATM   12  C   UNL     1      -9.245  10.744  68.865  1.00  0.00    -0.173 C  
HETATM   13  C   UNL     1      -9.821  11.499  67.675  1.00  0.00    -0.181 C  
HETATM   14  S   UNL     1     -11.418  12.183  68.048  1.00  0.00    -0.340 S  
HETATM   15  O   UNL     1     -12.158  12.316  66.812  1.00  0.00    -0.593 OA 
HETATM   16  N   UNL     1     -12.129  10.925  68.877  1.00  0.00    -0.476 N  
HETATM   17  O   UNL     1     -11.256  13.292  68.962  1.00  0.00    -0.256 OA 
HETATM   18  H   UNL     1     -13.043  10.550  68.624  1.00  0.00     0.000 HD 
HETATM   19  C   UNL     1     -11.359  10.403  69.979  1.00  0.00    -0.313 C  
ENDBRANCH  10  11
ENDBRANCH   6  10
TORSDOF 2
ENDMDL
MODEL       93
REMARK 921   NORMALIZED FREE ENERGY PREDICTED BY IDOCK:   -3.56 KCAL/MOL
REMARK 922        TOTAL FREE ENERGY PREDICTED BY IDOCK:   -4.38 KCAL/MOL
REMARK 923 INTER-LIGAND FREE ENERGY PREDICTED BY IDOCK:   -4.09 KCAL/MOL
REMARK 924 INTRA-LIGAND FREE ENERGY PREDICTED BY IDOCK:   -0.29 KCAL/MOL
REMARK 927      BINDING AFFINITY PREDICTED BY RF-SCORE:    0.00 PKD
ROOT
HETATM    1  O   UNL     1      -9.660   6.261  68.919  1.00  0.00    -0.126 OA 
HETATM    2  S   UNL     1      -9.623   7.595  69.472  1.00  0.00    -0.163 S  
HETATM    3  C   UNL     1      -8.162   8.433  68.916  1.00  0.00    -0.115 C  
HETATM    4  O   UNL     1      -9.805   7.826  70.890  1.00  0.00    -0.176 OA 
HETATM    5  C   UNL     1      -8.216   8.596  67.406  1.00  0.00    -0.105 C  
HETATM    6  N   UNL     1      -9.400   9.297  66.874  1.00  0.00    -0.145 NA 
HETATM    7  N   UNL     1     -10.811   8.489  68.683  1.00  0.00    -0.434 N  
HETATM    8  C   UNL     1     -10.617   8.581  67.241  1.00  0.00    -0.245 C  
HETATM    9  H   UNL     1     -11.594   8.927  69.169  1.00  0.00     0.000 HD 
ENDROOT
BRANCH   6  10
HETATM   10  C   UNL     1      -9.485  10.714  67.235  1.00  0.00    -0.158 C  
BRANCH  10  11
HETATM   11  N   UNL     1     -10.569  11.374  66.515  1.00  0.00    -0.253 NA 
HETATM   12  C   UNL     1     -11.577  12.047  67.344  1.00  0.00    -0.318 C  
HETATM   13  C   UNL     1     -11.195  13.381  67.969  1.00  0.00    -0.268 C  
HETATM   14  S   UNL     1     -10.463  14.475  66.775  1.00  0.00    -0.274 S  
HETATM   15  O   UNL     1      -9.590  15.394  67.472  1.00  0.00    -0.206 OA 
HETATM   16  N   UNL     1      -9.462  13.432  65.945  1.00  0.00    -0.494 N  
HETATM   17  O   UNL     1     -11.487  14.937  65.866  1.00  0.00    -0.342 OA 
HETATM   18  H   UNL     1      -8.471  13.625  65.800  1.00  0.00     0.000 HD 
HETATM   19  C   UNL     1     -10.098  12.238  65.446  1.00  0.00    -0.269 C  
ENDBRANCH  10  11
ENDBRANCH   6  10
TORSDOF 2
ENDMDL
MODEL       94
REMARK 921   NORMALIZED FREE ENERGY PREDICTED BY IDOCK:   -3.55 KCAL/MOL
REMARK 922        TOTAL FREE ENERGY PREDICTED BY IDOCK:   -4.38 KCAL/MOL
REMARK 923 INTER-LIGAND FREE ENERGY PREDICTED BY IDOCK:   -4.89 KCAL/MOL
REMARK 924 INTRA-LIGAND FREE ENERGY PREDICTED BY IDOCK:    0.51 KCAL/MOL
REMARK 927      BINDING AFFINITY PREDICTED BY RF-SCORE:    0.00 PKD
ROOT
HETATM    1  O   UNL     1     -12.152  14.719  72.392  1.00  0.00    -0.323 OA 
HETATM    2  S   UNL     1     -12.833  15.093  71.174  1.00  0.00    -0.439 S  
HETATM    3  C   UNL     1     -11.712  15.957  70.103  1.00  0.00    -0.334 C  
HETATM    4  O   UNL     1     -14.105  15.785  71.205  1.00  0.00    -0.501 OA 
HETATM    5  C   UNL     1     -10.583  15.026  69.696  1.00  0.00    -0.238 C  
HETATM    6  N   UNL     1     -10.988  13.766  69.045  1.00  0.00    -0.254 NA 
HETATM    7  N   UNL     1     -13.075  13.680  70.291  1.00  0.00     0.029 N  
HETATM    8  C   UNL     1     -11.842  12.989  69.938  1.00  0.00    -0.307 C  
HETATM    9  H   UNL     1     -14.000  13.340  70.028  1.00  0.00     0.000 HD 
ENDROOT
BRANCH   6  10
HETATM   10  C   UNL     1     -11.604  13.928  67.726  1.00  0.00    -0.347 C  
BRANCH  10  11
HETATM   11  N   UNL     1     -12.033  12.643  67.185  1.00  0.00    -0.481 NA 
HETATM   12  C   UNL     1     -12.025  12.524  65.722  1.00  0.00    -0.420 C  
HETATM   13  C   UNL     1     -10.676  12.349  65.039  1.00  0.00    -0.294 C  
HETATM   14  S   UNL     1      -9.707  11.083  65.825  1.00  0.00    -0.237 S  
HETATM   15  O   UNL     1      -8.308  11.368  65.592  1.00  0.00    -0.008 OA 
HETATM   16  N   UNL     1      -9.981  11.411  67.435  1.00  0.00    -0.185 N  
HETATM   17  O   UNL     1     -10.282   9.792  65.523  1.00  0.00    -0.256 OA 
HETATM   18  H   UNL     1      -9.222  11.533  68.106  1.00  0.00     0.000 HD 
HETATM   19  C   UNL     1     -11.369  11.513  67.813  1.00  0.00    -0.296 C  
ENDBRANCH  10  11
ENDBRANCH   6  10
TORSDOF 2
ENDMDL
MODEL       95
REMARK 921   NORMALIZED FREE ENERGY PREDICTED BY IDOCK:   -3.50 KCAL/MOL
REMARK 922        TOTAL FREE ENERGY PREDICTED BY IDOCK:   -4.32 KCAL/MOL
REMARK 923 INTER-LIGAND FREE ENERGY PREDICTED BY IDOCK:   -4.66 KCAL/MOL
REMARK 924 INTRA-LIGAND FREE ENERGY PREDICTED BY IDOCK:    0.34 KCAL/MOL
REMARK 927      BINDING AFFINITY PREDICTED BY RF-SCORE:    0.00 PKD
ROOT
HETATM    1  O   UNL     1     -10.657  10.345  65.206  1.00  0.00    -0.191 OA 
HETATM    2  S   UNL     1      -9.808  11.371  64.647  1.00  0.00    -0.259 S  
HETATM    3  C   UNL     1     -10.749  12.854  64.392  1.00  0.00    -0.386 C  
HETATM    4  O   UNL     1      -8.984  11.114  63.484  1.00  0.00    -0.151 OA 
HETATM    5  C   UNL     1     -11.234  13.382  65.732  1.00  0.00    -0.290 C  
HETATM    6  N   UNL     1     -10.188  13.646  66.739  1.00  0.00    -0.264 NA 
HETATM    7  N   UNL     1      -8.768  11.872  65.872  1.00  0.00    -0.401 N  
HETATM    8  C   UNL     1      -9.452  12.422  67.036  1.00  0.00    -0.211 C  
HETATM    9  H   UNL     1      -7.753  11.798  65.806  1.00  0.00     0.000 HD 
ENDROOT
BRANCH   6  10
HETATM   10  C   UNL     1      -9.281  14.746  66.403  1.00  0.00    -0.269 C  
BRANCH  10  11
HETATM   11  N   UNL     1      -9.403  15.838  67.364  1.00  0.00    -0.209 NA 
HETATM   12  C   UNL     1     -10.748  16.403  67.530  1.00  0.00    -0.298 C  
HETATM   13  C   UNL     1     -11.754  15.594  68.337  1.00  0.00    -0.290 C  
HETATM   14  S   UNL     1     -11.059  15.039  69.876  1.00  0.00    -0.270 S  
HETATM   15  O   UNL     1     -11.751  13.835  70.281  1.00  0.00    -0.270 OA 
HETATM   16  N   UNL     1      -9.539  14.556  69.395  1.00  0.00    -0.415 N  
HETATM   17  O   UNL     1     -10.914  16.170  70.765  1.00  0.00    -0.292 OA 
HETATM   18  H   UNL     1      -9.163  13.633  69.613  1.00  0.00     0.000 HD 
HETATM   19  C   UNL     1      -8.791  15.536  68.647  1.00  0.00    -0.193 C  
ENDBRANCH  10  11
ENDBRANCH   6  10
TORSDOF 2
ENDMDL
MODEL       96
REMARK 921   NORMALIZED FREE ENERGY PREDICTED BY IDOCK:   -3.49 KCAL/MOL
REMARK 922        TOTAL FREE ENERGY PREDICTED BY IDOCK:   -4.30 KCAL/MOL
REMARK 923 INTER-LIGAND FREE ENERGY PREDICTED BY IDOCK:   -4.03 KCAL/MOL
REMARK 924 INTRA-LIGAND FREE ENERGY PREDICTED BY IDOCK:   -0.28 KCAL/MOL
REMARK 927      BINDING AFFINITY PREDICTED BY RF-SCORE:    0.00 PKD
ROOT
HETATM    1  O   UNL     1     -10.177  13.436  66.126  1.00  0.00    -0.287 OA 
HETATM    2  S   UNL     1     -11.041  12.283  66.028  1.00  0.00    -0.324 S  
HETATM    3  C   UNL     1     -10.339  11.101  64.905  1.00  0.00    -0.313 C  
HETATM    4  O   UNL     1     -12.457  12.426  65.758  1.00  0.00    -0.615 OA 
HETATM    5  C   UNL     1      -9.017  10.600  65.460  1.00  0.00    -0.191 C  
HETATM    6  N   UNL     1      -9.068  10.005  66.809  1.00  0.00    -0.139 NA 
HETATM    7  N   UNL     1     -10.911  11.443  67.481  1.00  0.00    -0.242 N  
HETATM    8  C   UNL     1      -9.560  10.983  67.774  1.00  0.00    -0.170 C  
HETATM    9  H   UNL     1     -11.705  11.271  68.098  1.00  0.00     0.000 HD 
ENDROOT
BRANCH   6  10
HETATM   10  C   UNL     1      -9.815   8.748  66.896  1.00  0.00    -0.229 C  
BRANCH  10  11
HETATM   11  N   UNL     1      -8.938   7.641  67.264  1.00  0.00    -0.126 NA 
HETATM   12  C   UNL     1      -9.508   6.644  68.179  1.00  0.00    -0.115 C  
HETATM   13  C   UNL     1     -10.505   5.649  67.601  1.00  0.00    -0.219 C  
HETATM   14  S   UNL     1      -9.898   4.918  66.098  1.00  0.00    -0.228 S  
HETATM   15  O   UNL     1     -11.033   4.513  65.297  1.00  0.00    -0.252 OA 
HETATM   16  N   UNL     1      -9.243   6.244  65.329  1.00  0.00    -0.331 N  
HETATM   17  O   UNL     1      -8.825   4.004  66.416  1.00  0.00    -0.114 OA 
HETATM   18  H   UNL     1      -9.486   6.495  64.371  1.00  0.00     0.000 HD 
HETATM   19  C   UNL     1      -8.309   7.010  66.116  1.00  0.00    -0.130 C  
ENDBRANCH  10  11
ENDBRANCH   6  10
TORSDOF 2
ENDMDL
MODEL       97
REMARK 921   NORMALIZED FREE ENERGY PREDICTED BY IDOCK:   -3.47 KCAL/MOL
REMARK 922        TOTAL FREE ENERGY PREDICTED BY IDOCK:   -4.29 KCAL/MOL
REMARK 923 INTER-LIGAND FREE ENERGY PREDICTED BY IDOCK:   -4.40 KCAL/MOL
REMARK 924 INTRA-LIGAND FREE ENERGY PREDICTED BY IDOCK:    0.11 KCAL/MOL
REMARK 927      BINDING AFFINITY PREDICTED BY RF-SCORE:    0.00 PKD
ROOT
HETATM    1  O   UNL     1     -10.073  10.013  65.099  1.00  0.00    -0.325 OA 
HETATM    2  S   UNL     1      -8.981   9.170  65.526  1.00  0.00    -0.209 S  
HETATM    3  C   UNL     1      -8.458   9.647  67.153  1.00  0.00    -0.131 C  
HETATM    4  O   UNL     1      -7.821   8.958  64.686  1.00  0.00    -0.111 OA 
HETATM    5  C   UNL     1      -9.591   9.415  68.138  1.00  0.00    -0.142 C  
HETATM    6  N   UNL     1     -10.127   8.041  68.193  1.00  0.00    -0.190 NA 
HETATM    7  N   UNL     1      -9.628   7.648  65.845  1.00  0.00    -0.420 N  
HETATM    8  C   UNL     1     -10.647   7.649  66.887  1.00  0.00    -0.289 C  
HETATM    9  H   UNL     1      -9.334   6.804  65.354  1.00  0.00     0.000 HD 
ENDROOT
BRANCH   6  10
HETATM   10  C   UNL     1      -9.193   7.041  68.717  1.00  0.00    -0.132 C  
BRANCH  10  11
HETATM   11  N   UNL     1      -9.622   6.557  70.024  1.00  0.00    -0.159 NA 
HETATM   12  C   UNL     1      -9.004   7.207  71.187  1.00  0.00    -0.145 C  
HETATM   13  C   UNL     1      -9.492   8.601  71.555  1.00  0.00    -0.250 C  
HETATM   14  S   UNL     1     -11.267   8.679  71.602  1.00  0.00    -0.336 S  
HETATM   15  O   UNL     1     -11.672  10.040  71.330  1.00  0.00    -0.367 OA 
HETATM   16  N   UNL     1     -11.671   7.799  70.246  1.00  0.00    -0.481 N  
HETATM   17  O   UNL     1     -11.740   7.960  72.764  1.00  0.00    -0.364 OA 
HETATM   18  H   UNL     1     -12.299   8.160  69.528  1.00  0.00     0.000 HD 
HETATM   19  C   UNL     1     -11.068   6.492  70.159  1.00  0.00    -0.351 C  
ENDBRANCH  10  11
ENDBRANCH   6  10
TORSDOF 2
ENDMDL
MODEL       98
REMARK 921   NORMALIZED FREE ENERGY PREDICTED BY IDOCK:   -3.45 KCAL/MOL
REMARK 922        TOTAL FREE ENERGY PREDICTED BY IDOCK:   -4.27 KCAL/MOL
REMARK 923 INTER-LIGAND FREE ENERGY PREDICTED BY IDOCK:   -3.96 KCAL/MOL
REMARK 924 INTRA-LIGAND FREE ENERGY PREDICTED BY IDOCK:   -0.31 KCAL/MOL
REMARK 927      BINDING AFFINITY PREDICTED BY RF-SCORE:    0.00 PKD
ROOT
HETATM    1  O   UNL     1      -8.195  14.375  67.100  1.00  0.00    -0.204 OA 
HETATM    2  S   UNL     1      -8.877  14.060  68.333  1.00  0.00    -0.159 S  
HETATM    3  C   UNL     1     -10.282  13.030  67.995  1.00  0.00    -0.233 C  
HETATM    4  O   UNL     1      -9.252  15.099  69.271  1.00  0.00    -0.220 OA 
HETATM    5  C   UNL     1      -9.811  11.707  67.416  1.00  0.00    -0.183 C  
HETATM    6  N   UNL     1      -8.850  10.948  68.239  1.00  0.00    -0.134 NA 
HETATM    7  N   UNL     1      -7.899  12.981  69.177  1.00  0.00    -0.304 N  
HETATM    8  C   UNL     1      -7.643  11.737  68.461  1.00  0.00    -0.131 C  
HETATM    9  H   UNL     1      -7.522  13.179  70.104  1.00  0.00     0.000 HD 
ENDROOT
BRANCH   6  10
HETATM   10  C   UNL     1      -9.393  10.437  69.500  1.00  0.00    -0.127 C  
BRANCH  10  11
HETATM   11  N   UNL     1     -10.657   9.742  69.282  1.00  0.00    -0.212 NA 
HETATM   12  C   UNL     1     -10.582   8.278  69.204  1.00  0.00    -0.165 C  
HETATM   13  C   UNL     1     -10.398   7.513  70.507  1.00  0.00    -0.215 C  
HETATM   14  S   UNL     1     -11.538   8.065  71.753  1.00  0.00    -0.305 S  
HETATM   15  O   UNL     1     -10.955   7.808  73.052  1.00  0.00    -0.386 OA 
HETATM   16  N   UNL     1     -11.481   9.717  71.543  1.00  0.00    -0.385 N  
HETATM   17  O   UNL     1     -12.868   7.612  71.412  1.00  0.00    -0.337 OA 
HETATM   18  H   UNL     1     -11.299  10.361  72.313  1.00  0.00     0.000 HD 
HETATM   19  C   UNL     1     -11.705  10.172  70.193  1.00  0.00    -0.256 C  
ENDBRANCH  10  11
ENDBRANCH   6  10
TORSDOF 2
ENDMDL
MODEL       99
REMARK 921   NORMALIZED FREE ENERGY PREDICTED BY IDOCK:   -3.44 KCAL/MOL
REMARK 922        TOTAL FREE ENERGY PREDICTED BY IDOCK:   -4.26 KCAL/MOL
REMARK 923 INTER-LIGAND FREE ENERGY PREDICTED BY IDOCK:   -4.06 KCAL/MOL
REMARK 924 INTRA-LIGAND FREE ENERGY PREDICTED BY IDOCK:   -0.20 KCAL/MOL
REMARK 927      BINDING AFFINITY PREDICTED BY RF-SCORE:    0.00 PKD
ROOT
HETATM    1  O   UNL     1      -9.117  13.958  68.349  1.00  0.00    -0.192 OA 
HETATM    2  S   UNL     1     -10.242  13.121  68.003  1.00  0.00    -0.238 S  
HETATM    3  C   UNL     1      -9.865  12.186  66.542  1.00  0.00    -0.218 C  
HETATM    4  O   UNL     1     -11.580  13.666  67.898  1.00  0.00    -0.301 OA 
HETATM    5  C   UNL     1      -8.705  11.249  66.827  1.00  0.00    -0.166 C  
HETATM    6  N   UNL     1      -8.889  10.317  67.956  1.00  0.00    -0.122 NA 
HETATM    7  N   UNL     1     -10.312  11.890  69.148  1.00  0.00    -0.420 N  
HETATM    8  C   UNL     1      -9.114  11.059  69.192  1.00  0.00     0.010 C  
HETATM    9  H   UNL     1     -11.118  11.738  69.754  1.00  0.00     0.000 HD 
ENDROOT
BRANCH   6  10
HETATM   10  C   UNL     1      -9.925   9.302  67.748  1.00  0.00    -0.190 C  
BRANCH  10  11
HETATM   11  N   UNL     1      -9.378   7.957  67.896  1.00  0.00    -0.140 NA 
HETATM   12  C   UNL     1      -8.781   7.644  69.200  1.00  0.00    -0.139 C  
HETATM   13  C   UNL     1      -9.729   7.375  70.361  1.00  0.00    -0.175 C  
HETATM   14  S   UNL     1     -11.002   6.222  69.907  1.00  0.00    -0.403 S  
HETATM   15  O   UNL     1     -12.159   6.468  70.740  1.00  0.00    -0.362 OA 
HETATM   16  N   UNL     1     -11.409   6.763  68.384  1.00  0.00    -0.553 N  
HETATM   17  O   UNL     1     -10.423   4.903  69.778  1.00  0.00    -0.232 OA 
HETATM   18  H   UNL     1     -12.371   6.969  68.116  1.00  0.00     0.000 HD 
HETATM   19  C   UNL     1     -10.302   6.919  67.473  1.00  0.00    -0.217 C  
ENDBRANCH  10  11
ENDBRANCH   6  10
TORSDOF 2
ENDMDL
MODEL      100
REMARK 921   NORMALIZED FREE ENERGY PREDICTED BY IDOCK:   -3.44 KCAL/MOL
REMARK 922        TOTAL FREE ENERGY PREDICTED BY IDOCK:   -4.25 KCAL/MOL
REMARK 923 INTER-LIGAND FREE ENERGY PREDICTED BY IDOCK:   -3.94 KCAL/MOL
REMARK 924 INTRA-LIGAND FREE ENERGY PREDICTED BY IDOCK:   -0.31 KCAL/MOL
REMARK 927      BINDING AFFINITY PREDICTED BY RF-SCORE:    0.00 PKD
ROOT
HETATM    1  O   UNL     1     -12.272   8.223  72.950  1.00  0.00    -0.256 OA 
HETATM    2  S   UNL     1     -10.926   7.760  72.705  1.00  0.00    -0.400 S  
HETATM    3  C   UNL     1     -10.967   6.316  71.674  1.00  0.00    -0.261 C  
HETATM    4  O   UNL     1      -9.993   7.553  73.793  1.00  0.00    -0.305 OA 
HETATM    5  C   UNL     1     -11.549   6.679  70.319  1.00  0.00    -0.395 C  
HETATM    6  N   UNL     1     -10.864   7.766  69.592  1.00  0.00    -0.223 NA 
HETATM    7  N   UNL     1     -10.207   8.866  71.659  1.00  0.00    -0.319 N  
HETATM    8  C   UNL     1     -10.891   8.994  70.379  1.00  0.00    -0.246 C  
HETATM    9  H   UNL     1      -9.369   9.396  71.900  1.00  0.00     0.000 HD 
ENDROOT
BRANCH   6  10
HETATM   10  C   UNL     1      -9.505   7.444  69.150  1.00  0.00    -0.149 C  
BRANCH  10  11
HETATM   11  N   UNL     1      -9.502   6.959  67.775  1.00  0.00    -0.123 NA 
HETATM   12  C   UNL     1     -10.460   7.597  66.863  1.00  0.00    -0.318 C  
HETATM   13  C   UNL     1     -10.126   8.994  66.360  1.00  0.00    -0.281 C  
HETATM   14  S   UNL     1      -8.456   9.088  65.759  1.00  0.00    -0.150 S  
HETATM   15  O   UNL     1      -8.001  10.455  65.888  1.00  0.00    -0.139 OA 
HETATM   16  N   UNL     1      -7.638   8.219  66.921  1.00  0.00    -0.091 N  
HETATM   17  O   UNL     1      -8.363   8.369  64.508  1.00  0.00    -0.166 OA 
HETATM   18  H   UNL     1      -6.820   8.589  67.406  1.00  0.00     0.000 HD 
HETATM   19  C   UNL     1      -8.171   6.907  67.194  1.00  0.00    -0.118 C  
ENDBRANCH  10  11
ENDBRANCH   6  10
TORSDOF 2
ENDMDL
MODEL      101
REMARK 921   NORMALIZED FREE ENERGY PREDICTED BY IDOCK:   -3.43 KCAL/MOL
REMARK 922        TOTAL FREE ENERGY PREDICTED BY IDOCK:   -4.24 KCAL/MOL
REMARK 923 INTER-LIGAND FREE ENERGY PREDICTED BY IDOCK:   -3.92 KCAL/MOL
REMARK 924 INTRA-LIGAND FREE ENERGY PREDICTED BY IDOCK:   -0.33 KCAL/MOL
REMARK 927      BINDING AFFINITY PREDICTED BY RF-SCORE:    0.00 PKD
ROOT
HETATM    1  O   UNL     1     -12.414   9.023  72.902  1.00  0.00    -0.178 OA 
HETATM    2  S   UNL     1     -13.003   8.963  71.585  1.00  0.00    -0.363 S  
HETATM    3  C   UNL     1     -12.890  10.553  70.806  1.00  0.00    -0.367 C  
HETATM    4  O   UNL     1     -14.328   8.415  71.379  1.00  0.00    -0.406 OA 
HETATM    5  C   UNL     1     -11.428  10.915  70.605  1.00  0.00    -0.130 C  
HETATM    6  N   UNL     1     -10.623   9.947  69.836  1.00  0.00    -0.252 NA 
HETATM    7  N   UNL     1     -11.957   8.069  70.616  1.00  0.00    -0.482 N  
HETATM    8  C   UNL     1     -10.625   8.648  70.500  1.00  0.00    -0.217 C  
HETATM    9  H   UNL     1     -12.230   7.202  70.153  1.00  0.00     0.000 HD 
ENDROOT
BRANCH   6  10
HETATM   10  C   UNL     1     -10.998   9.825  68.425  1.00  0.00    -0.152 C  
BRANCH  10  11
HETATM   11  N   UNL     1     -10.265  10.782  67.603  1.00  0.00    -0.182 NA 
HETATM   12  C   UNL     1      -8.806  10.792  67.771  1.00  0.00    -0.130 C  
HETATM   13  C   UNL     1      -8.018   9.657  67.134  1.00  0.00    -0.106 C  
HETATM   14  S   UNL     1      -8.501   9.397  65.443  1.00  0.00    -0.158 S  
HETATM   15  O   UNL     1      -8.233   8.018  65.099  1.00  0.00    -0.136 OA 
HETATM   16  N   UNL     1     -10.158   9.531  65.551  1.00  0.00    -0.348 N  
HETATM   17  O   UNL     1      -8.010  10.493  64.638  1.00  0.00    -0.134 OA 
HETATM   18  H   UNL     1     -10.789   8.818  65.184  1.00  0.00     0.000 HD 
HETATM   19  C   UNL     1     -10.636  10.727  66.199  1.00  0.00    -0.175 C  
ENDBRANCH  10  11
ENDBRANCH   6  10
TORSDOF 2
ENDMDL
MODEL      102
REMARK 921   NORMALIZED FREE ENERGY PREDICTED BY IDOCK:   -3.42 KCAL/MOL
REMARK 922        TOTAL FREE ENERGY PREDICTED BY IDOCK:   -4.23 KCAL/MOL
REMARK 923 INTER-LIGAND FREE ENERGY PREDICTED BY IDOCK:   -3.84 KCAL/MOL
REMARK 924 INTRA-LIGAND FREE ENERGY PREDICTED BY IDOCK:   -0.40 KCAL/MOL
REMARK 927      BINDING AFFINITY PREDICTED BY RF-SCORE:    0.00 PKD
ROOT
HETATM    1  O   UNL     1      -8.078   8.432  64.585  1.00  0.00    -0.142 OA 
HETATM    2  S   UNL     1      -8.302   9.338  65.687  1.00  0.00    -0.129 S  
HETATM    3  C   UNL     1      -9.996   9.243  66.206  1.00  0.00    -0.286 C  
HETATM    4  O   UNL     1      -7.894  10.725  65.615  1.00  0.00    -0.147 OA 
HETATM    5  C   UNL     1     -10.287   7.847  66.731  1.00  0.00    -0.287 C  
HETATM    6  N   UNL     1      -9.424   7.379  67.832  1.00  0.00    -0.140 NA 
HETATM    7  N   UNL     1      -7.530   8.679  67.032  1.00  0.00    -0.084 N  
HETATM    8  C   UNL     1      -8.028   7.362  67.408  1.00  0.00    -0.112 C  
HETATM    9  H   UNL     1      -6.785   9.159  67.536  1.00  0.00     0.000 HD 
ENDROOT
BRANCH   6  10
HETATM   10  C   UNL     1      -9.589   8.109  69.092  1.00  0.00    -0.157 C  
BRANCH  10  11
HETATM   11  N   UNL     1      -9.657   7.192  70.224  1.00  0.00    -0.169 NA 
HETATM   12  C   UNL     1      -9.785   7.812  71.549  1.00  0.00    -0.162 C  
HETATM   13  C   UNL     1     -11.148   8.372  71.934  1.00  0.00    -0.308 C  
HETATM   14  S   UNL     1     -12.448   7.205  71.605  1.00  0.00    -0.376 S  
HETATM   15  O   UNL     1     -13.674   7.939  71.383  1.00  0.00    -0.323 OA 
HETATM   16  N   UNL     1     -11.990   6.613  70.116  1.00  0.00    -0.615 N  
HETATM   17  O   UNL     1     -12.368   6.126  72.564  1.00  0.00    -0.138 OA 
HETATM   18  H   UNL     1     -12.623   6.594  69.317  1.00  0.00     0.000 HD 
HETATM   19  C   UNL     1     -10.633   6.132  70.038  1.00  0.00    -0.261 C  
ENDBRANCH  10  11
ENDBRANCH   6  10
TORSDOF 2
ENDMDL
MODEL      103
REMARK 921   NORMALIZED FREE ENERGY PREDICTED BY IDOCK:   -3.41 KCAL/MOL
REMARK 922        TOTAL FREE ENERGY PREDICTED BY IDOCK:   -4.22 KCAL/MOL
REMARK 923 INTER-LIGAND FREE ENERGY PREDICTED BY IDOCK:   -4.29 KCAL/MOL
REMARK 924 INTRA-LIGAND FREE ENERGY PREDICTED BY IDOCK:    0.07 KCAL/MOL
REMARK 927      BINDING AFFINITY PREDICTED BY RF-SCORE:    0.00 PKD
ROOT
HETATM    1  O   UNL     1     -11.624  10.379  67.728  1.00  0.00    -0.405 OA 
HETATM    2  S   UNL     1     -10.280  10.652  67.278  1.00  0.00    -0.220 S  
HETATM    3  C   UNL     1     -10.332  11.561  65.754  1.00  0.00    -0.248 C  
HETATM    4  O   UNL     1      -9.291   9.599  67.180  1.00  0.00    -0.136 OA 
HETATM    5  C   UNL     1     -10.987  12.911  65.993  1.00  0.00    -0.276 C  
HETATM    6  N   UNL     1     -10.367  13.755  67.032  1.00  0.00    -0.258 NA 
HETATM    7  N   UNL     1      -9.640  11.818  68.311  1.00  0.00    -0.196 N  
HETATM    8  C   UNL     1     -10.388  13.069  68.319  1.00  0.00    -0.252 C  
HETATM    9  H   UNL     1      -8.806  11.663  68.877  1.00  0.00     0.000 HD 
ENDROOT
BRANCH   6  10
HETATM   10  C   UNL     1      -9.022  14.237  66.706  1.00  0.00    -0.227 C  
BRANCH  10  11
HETATM   11  N   UNL     1      -8.993  15.692  66.619  1.00  0.00    -0.258 NA 
HETATM   12  C   UNL     1     -10.291  16.353  66.433  1.00  0.00    -0.313 C  
HETATM   13  C   UNL     1     -11.207  16.454  67.645  1.00  0.00    -0.072 C  
HETATM   14  S   UNL     1     -10.337  17.063  69.070  1.00  0.00    -0.315 S  
HETATM   15  O   UNL     1     -11.002  16.570  70.256  1.00  0.00    -0.332 OA 
HETATM   16  N   UNL     1      -8.903  16.222  68.964  1.00  0.00    -0.248 N  
HETATM   17  O   UNL     1     -10.051  18.468  68.884  1.00  0.00    -0.386 OA 
HETATM   18  H   UNL     1      -8.527  15.682  69.743  1.00  0.00     0.000 HD 
HETATM   19  C   UNL     1      -8.232  16.311  67.691  1.00  0.00    -0.153 C  
ENDBRANCH  10  11
ENDBRANCH   6  10
TORSDOF 2
ENDMDL
MODEL      104
REMARK 921   NORMALIZED FREE ENERGY PREDICTED BY IDOCK:   -3.41 KCAL/MOL
REMARK 922        TOTAL FREE ENERGY PREDICTED BY IDOCK:   -4.22 KCAL/MOL
REMARK 923 INTER-LIGAND FREE ENERGY PREDICTED BY IDOCK:   -3.73 KCAL/MOL
REMARK 924 INTRA-LIGAND FREE ENERGY PREDICTED BY IDOCK:   -0.49 KCAL/MOL
REMARK 927      BINDING AFFINITY PREDICTED BY RF-SCORE:    0.00 PKD
ROOT
HETATM    1  O   UNL     1     -12.601   7.591  72.162  1.00  0.00    -0.258 OA 
HETATM    2  S   UNL     1     -11.190   7.898  72.168  1.00  0.00    -0.334 S  
HETATM    3  C   UNL     1     -10.371   6.970  70.895  1.00  0.00    -0.198 C  
HETATM    4  O   UNL     1     -10.412   7.838  73.388  1.00  0.00    -0.338 OA 
HETATM    5  C   UNL     1     -10.898   7.400  69.537  1.00  0.00    -0.189 C  
HETATM    6  N   UNL     1     -10.786   8.838  69.227  1.00  0.00    -0.140 NA 
HETATM    7  N   UNL     1     -11.021   9.461  71.566  1.00  0.00    -0.372 N  
HETATM    8  C   UNL     1     -11.525   9.625  70.208  1.00  0.00    -0.233 C  
HETATM    9  H   UNL     1     -10.605  10.222  72.103  1.00  0.00     0.000 HD 
ENDROOT
BRANCH   6  10
HETATM   10  C   UNL     1      -9.413   9.326  69.076  1.00  0.00    -0.155 C  
BRANCH  10  11
HETATM   11  N   UNL     1      -9.292  10.201  67.915  1.00  0.00    -0.141 NA 
HETATM   12  C   UNL     1      -7.937  10.376  67.378  1.00  0.00    -0.107 C  
HETATM   13  C   UNL     1      -7.351   9.232  66.563  1.00  0.00    -0.092 C  
HETATM   14  S   UNL     1      -8.496   8.655  65.332  1.00  0.00    -0.178 S  
HETATM   15  O   UNL     1      -8.196   7.270  65.043  1.00  0.00    -0.137 OA 
HETATM   16  N   UNL     1      -9.925   8.648  66.190  1.00  0.00    -0.453 N  
HETATM   17  O   UNL     1      -8.603   9.646  64.285  1.00  0.00    -0.164 OA 
HETATM   18  H   UNL     1     -10.530   7.828  66.236  1.00  0.00     0.000 HD 
HETATM   19  C   UNL     1     -10.243   9.883  66.863  1.00  0.00    -0.240 C  
ENDBRANCH  10  11
ENDBRANCH   6  10
TORSDOF 2
ENDMDL
MODEL      105
REMARK 921   NORMALIZED FREE ENERGY PREDICTED BY IDOCK:   -3.40 KCAL/MOL
REMARK 922        TOTAL FREE ENERGY PREDICTED BY IDOCK:   -4.21 KCAL/MOL
REMARK 923 INTER-LIGAND FREE ENERGY PREDICTED BY IDOCK:   -4.25 KCAL/MOL
REMARK 924 INTRA-LIGAND FREE ENERGY PREDICTED BY IDOCK:    0.05 KCAL/MOL
REMARK 927      BINDING AFFINITY PREDICTED BY RF-SCORE:    0.00 PKD
ROOT
HETATM    1  O   UNL     1      -7.808   7.375  64.565  1.00  0.00    -0.120 OA 
HETATM    2  S   UNL     1      -8.390   7.347  65.887  1.00  0.00    -0.144 S  
HETATM    3  C   UNL     1      -7.365   8.258  67.013  1.00  0.00    -0.084 C  
HETATM    4  O   UNL     1      -8.798   6.101  66.502  1.00  0.00    -0.124 OA 
HETATM    5  C   UNL     1      -7.324   9.717  66.592  1.00  0.00    -0.094 C  
HETATM    6  N   UNL     1      -8.631  10.394  66.482  1.00  0.00    -0.129 NA 
HETATM    7  N   UNL     1      -9.754   8.333  65.846  1.00  0.00    -0.456 N  
HETATM    8  C   UNL     1      -9.468   9.718  65.496  1.00  0.00    -0.262 C  
HETATM    9  H   UNL     1     -10.694   7.991  66.047  1.00  0.00     0.000 HD 
ENDROOT
BRANCH   6  10
HETATM   10  C   UNL     1      -9.339  10.568  67.753  1.00  0.00    -0.149 C  
BRANCH  10  11
HETATM   11  N   UNL     1      -9.528  11.982  68.058  1.00  0.00    -0.193 NA 
HETATM   12  C   UNL     1      -9.207  12.923  66.978  1.00  0.00    -0.226 C  
HETATM   13  C   UNL     1     -10.204  13.047  65.834  1.00  0.00    -0.292 C  
HETATM   14  S   UNL     1     -11.864  13.251  66.436  1.00  0.00    -0.405 S  
HETATM   15  O   UNL     1     -12.778  12.750  65.433  1.00  0.00    -0.621 OA 
HETATM   16  N   UNL     1     -11.899  12.146  67.683  1.00  0.00    -0.311 N  
HETATM   17  O   UNL     1     -12.002  14.575  67.001  1.00  0.00    -0.404 OA 
HETATM   18  H   UNL     1     -12.626  11.435  67.763  1.00  0.00     0.000 HD 
HETATM   19  C   UNL     1     -10.828  12.268  68.641  1.00  0.00    -0.236 C  
ENDBRANCH  10  11
ENDBRANCH   6  10
TORSDOF 2
ENDMDL
MODEL      106
REMARK 921   NORMALIZED FREE ENERGY PREDICTED BY IDOCK:   -3.38 KCAL/MOL
REMARK 922        TOTAL FREE ENERGY PREDICTED BY IDOCK:   -4.18 KCAL/MOL
REMARK 923 INTER-LIGAND FREE ENERGY PREDICTED BY IDOCK:   -3.92 KCAL/MOL
REMARK 924 INTRA-LIGAND FREE ENERGY PREDICTED BY IDOCK:   -0.26 KCAL/MOL
REMARK 927      BINDING AFFINITY PREDICTED BY RF-SCORE:    0.00 PKD
ROOT
HETATM    1  O   UNL     1     -10.920  15.295  65.693  1.00  0.00    -0.334 OA 
HETATM    2  S   UNL     1     -11.245  14.800  67.010  1.00  0.00    -0.349 S  
HETATM    3  C   UNL     1     -12.275  13.361  66.871  1.00  0.00    -0.289 C  
HETATM    4  O   UNL     1     -11.773  15.677  68.035  1.00  0.00    -0.306 OA 
HETATM    5  C   UNL     1     -11.505  12.253  66.174  1.00  0.00    -0.374 C  
HETATM    6  N   UNL     1     -10.225  11.865  66.797  1.00  0.00    -0.204 NA 
HETATM    7  N   UNL     1      -9.842  14.114  67.641  1.00  0.00    -0.226 N  
HETATM    8  C   UNL     1      -9.321  13.009  66.847  1.00  0.00    -0.241 C  
HETATM    9  H   UNL     1      -9.399  14.443  68.499  1.00  0.00     0.000 HD 
ENDROOT
BRANCH   6  10
HETATM   10  C   UNL     1     -10.352  11.229  68.111  1.00  0.00    -0.186 C  
BRANCH  10  11
HETATM   11  N   UNL     1      -9.866   9.854  68.077  1.00  0.00    -0.144 NA 
HETATM   12  C   UNL     1      -8.505   9.664  67.560  1.00  0.00    -0.125 C  
HETATM   13  C   UNL     1      -7.347  10.040  68.475  1.00  0.00    -0.077 C  
HETATM   14  S   UNL     1      -7.554   9.354  70.101  1.00  0.00    -0.148 S  
HETATM   15  O   UNL     1      -6.846  10.193  71.044  1.00  0.00    -0.341 OA 
HETATM   16  N   UNL     1      -9.176   9.629  70.371  1.00  0.00    -0.313 N  
HETATM   17  O   UNL     1      -7.341   7.925  70.043  1.00  0.00    -0.068 OA 
HETATM   18  H   UNL     1      -9.519  10.100  71.208  1.00  0.00     0.000 HD 
HETATM   19  C   UNL     1     -10.059   9.152  69.335  1.00  0.00    -0.197 C  
ENDBRANCH  10  11
ENDBRANCH   6  10
TORSDOF 2
ENDMDL
MODEL      107
REMARK 921   NORMALIZED FREE ENERGY PREDICTED BY IDOCK:   -3.37 KCAL/MOL
REMARK 922        TOTAL FREE ENERGY PREDICTED BY IDOCK:   -4.18 KCAL/MOL
REMARK 923 INTER-LIGAND FREE ENERGY PREDICTED BY IDOCK:   -3.70 KCAL/MOL
REMARK 924 INTRA-LIGAND FREE ENERGY PREDICTED BY IDOCK:   -0.48 KCAL/MOL
REMARK 927      BINDING AFFINITY PREDICTED BY RF-SCORE:    0.00 PKD
ROOT
HETATM    1  O   UNL     1      -9.081   9.846  64.840  1.00  0.00    -0.189 OA 
HETATM    2  S   UNL     1      -8.766   8.620  65.537  1.00  0.00    -0.172 S  
HETATM    3  C   UNL     1      -7.696   8.970  66.909  1.00  0.00    -0.098 C  
HETATM    4  O   UNL     1      -8.280   7.455  64.827  1.00  0.00    -0.126 OA 
HETATM    5  C   UNL     1      -8.423   9.855  67.905  1.00  0.00    -0.121 C  
HETATM    6  N   UNL     1      -9.703   9.332  68.420  1.00  0.00    -0.151 NA 
HETATM    7  N   UNL     1     -10.161   8.141  66.349  1.00  0.00    -0.472 N  
HETATM    8  C   UNL     1     -10.639   9.116  67.322  1.00  0.00    -0.233 C  
HETATM    9  H   UNL     1     -10.628   7.251  66.176  1.00  0.00     0.000 HD 
ENDROOT
BRANCH   6  10
HETATM   10  C   UNL     1      -9.582   8.137  69.260  1.00  0.00    -0.164 C  
BRANCH  10  11
HETATM   11  N   UNL     1     -10.895   7.602  69.602  1.00  0.00    -0.226 NA 
HETATM   12  C   UNL     1     -11.024   6.140  69.568  1.00  0.00    -0.393 C  
HETATM   13  C   UNL     1     -10.415   5.353  70.720  1.00  0.00    -0.247 C  
HETATM   14  S   UNL     1     -10.882   6.036  72.293  1.00  0.00    -0.259 S  
HETATM   15  O   UNL     1      -9.856   5.706  73.257  1.00  0.00    -0.162 OA 
HETATM   16  N   UNL     1     -10.730   7.670  72.001  1.00  0.00    -0.218 N  
HETATM   17  O   UNL     1     -12.278   5.749  72.537  1.00  0.00    -0.196 OA 
HETATM   18  H   UNL     1     -10.181   8.284  72.603  1.00  0.00     0.000 HD 
HETATM   19  C   UNL     1     -11.429   8.153  70.836  1.00  0.00    -0.271 C  
ENDBRANCH  10  11
ENDBRANCH   6  10
TORSDOF 2
ENDMDL
MODEL      108
REMARK 921   NORMALIZED FREE ENERGY PREDICTED BY IDOCK:   -3.36 KCAL/MOL
REMARK 922        TOTAL FREE ENERGY PREDICTED BY IDOCK:   -4.16 KCAL/MOL
REMARK 923 INTER-LIGAND FREE ENERGY PREDICTED BY IDOCK:   -3.86 KCAL/MOL
REMARK 924 INTRA-LIGAND FREE ENERGY PREDICTED BY IDOCK:   -0.30 KCAL/MOL
REMARK 927      BINDING AFFINITY PREDICTED BY RF-SCORE:    0.00 PKD
ROOT
HETATM    1  O   UNL     1      -9.608   4.143  69.878  1.00  0.00    -0.182 OA 
HETATM    2  S   UNL     1     -10.092   5.400  70.400  1.00  0.00    -0.264 S  
HETATM    3  C   UNL     1      -8.849   6.650  70.198  1.00  0.00    -0.141 C  
HETATM    4  O   UNL     1     -10.662   5.493  71.728  1.00  0.00    -0.231 OA 
HETATM    5  C   UNL     1      -8.591   6.871  68.717  1.00  0.00    -0.124 C  
HETATM    6  N   UNL     1      -9.767   7.231  67.903  1.00  0.00    -0.138 NA 
HETATM    7  N   UNL     1     -11.268   5.958  69.332  1.00  0.00    -0.328 N  
HETATM    8  C   UNL     1     -10.774   6.178  67.978  1.00  0.00    -0.295 C  
HETATM    9  H   UNL     1     -12.235   6.126  69.607  1.00  0.00     0.000 HD 
ENDROOT
BRANCH   6  10
HETATM   10  C   UNL     1     -10.343   8.543  68.207  1.00  0.00    -0.201 C  
BRANCH  10  11
HETATM   11  N   UNL     1      -9.451   9.618  67.786  1.00  0.00    -0.127 NA 
HETATM   12  C   UNL     1      -9.865  10.371  66.595  1.00  0.00    -0.202 C  
HETATM   13  C   UNL     1     -10.990  11.384  66.761  1.00  0.00    -0.291 C  
HETATM   14  S   UNL     1     -10.715  12.438  68.165  1.00  0.00    -0.231 S  
HETATM   15  O   UNL     1     -11.998  12.907  68.642  1.00  0.00    -0.313 OA 
HETATM   16  N   UNL     1     -10.177  11.342  69.299  1.00  0.00    -0.419 N  
HETATM   17  O   UNL     1      -9.632  13.349  67.868  1.00  0.00    -0.202 OA 
HETATM   18  H   UNL     1     -10.593  11.266  70.227  1.00  0.00     0.000 HD 
HETATM   19  C   UNL     1      -9.080  10.507  68.874  1.00  0.00    -0.177 C  
ENDBRANCH  10  11
ENDBRANCH   6  10
TORSDOF 2
ENDMDL
MODEL      109
REMARK 921   NORMALIZED FREE ENERGY PREDICTED BY IDOCK:   -3.36 KCAL/MOL
REMARK 922        TOTAL FREE ENERGY PREDICTED BY IDOCK:   -4.16 KCAL/MOL
REMARK 923 INTER-LIGAND FREE ENERGY PREDICTED BY IDOCK:   -4.28 KCAL/MOL
REMARK 924 INTRA-LIGAND FREE ENERGY PREDICTED BY IDOCK:    0.12 KCAL/MOL
REMARK 927      BINDING AFFINITY PREDICTED BY RF-SCORE:    0.00 PKD
ROOT
HETATM    1  O   UNL     1     -12.504  14.169  73.367  1.00  0.00    -0.243 OA 
HETATM    2  S   UNL     1     -13.064  14.960  72.297  1.00  0.00    -0.388 S  
HETATM    3  C   UNL     1     -11.802  15.985  71.586  1.00  0.00    -0.507 C  
HETATM    4  O   UNL     1     -14.269  15.740  72.490  1.00  0.00    -0.552 OA 
HETATM    5  C   UNL     1     -10.734  15.108  70.956  1.00  0.00     0.051 C  
HETATM    6  N   UNL     1     -11.202  14.150  69.936  1.00  0.00    -0.166 NA 
HETATM    7  N   UNL     1     -13.369  13.912  71.015  1.00  0.00    -0.193 N  
HETATM    8  C   UNL     1     -12.180  13.235  70.515  1.00  0.00    -0.340 C  
HETATM    9  H   UNL     1     -14.300  13.766  70.625  1.00  0.00     0.000 HD 
ENDROOT
BRANCH   6  10
HETATM   10  C   UNL     1     -11.710  14.766  68.707  1.00  0.00    -0.323 C  
BRANCH  10  11
HETATM   11  N   UNL     1     -10.794  14.547  67.594  1.00  0.00    -0.268 NA 
HETATM   12  C   UNL     1      -9.380  14.372  67.948  1.00  0.00    -0.203 C  
HETATM   13  C   UNL     1      -8.964  13.032  68.539  1.00  0.00    -0.048 C  
HETATM   14  S   UNL     1      -9.595  11.674  67.580  1.00  0.00    -0.184 S  
HETATM   15  O   UNL     1      -9.730  10.525  68.450  1.00  0.00    -0.149 OA 
HETATM   16  N   UNL     1     -11.145  12.191  67.257  1.00  0.00    -0.269 N  
HETATM   17  O   UNL     1      -8.872  11.603  66.330  1.00  0.00    -0.189 OA 
HETATM   18  H   UNL     1     -11.965  11.616  67.453  1.00  0.00     0.000 HD 
HETATM   19  C   UNL     1     -11.245  13.510  66.682  1.00  0.00    -0.312 C  
ENDBRANCH  10  11
ENDBRANCH   6  10
TORSDOF 2
ENDMDL
MODEL      110
REMARK 921   NORMALIZED FREE ENERGY PREDICTED BY IDOCK:   -3.34 KCAL/MOL
REMARK 922        TOTAL FREE ENERGY PREDICTED BY IDOCK:   -4.14 KCAL/MOL
REMARK 923 INTER-LIGAND FREE ENERGY PREDICTED BY IDOCK:   -3.79 KCAL/MOL
REMARK 924 INTRA-LIGAND FREE ENERGY PREDICTED BY IDOCK:   -0.35 KCAL/MOL
REMARK 927      BINDING AFFINITY PREDICTED BY RF-SCORE:    0.00 PKD
ROOT
HETATM    1  O   UNL     1     -12.285  11.110  68.111  1.00  0.00    -0.612 OA 
HETATM    2  S   UNL     1     -11.392  11.482  69.183  1.00  0.00    -0.314 S  
HETATM    3  C   UNL     1     -12.006  10.848  70.723  1.00  0.00    -0.346 C  
HETATM    4  O   UNL     1     -10.961  12.853  69.361  1.00  0.00    -0.132 OA 
HETATM    5  C   UNL     1     -12.013   9.329  70.677  1.00  0.00    -0.152 C  
HETATM    6  N   UNL     1     -10.719   8.687  70.378  1.00  0.00    -0.220 NA 
HETATM    7  N   UNL     1      -9.995  10.559  69.005  1.00  0.00    -0.202 N  
HETATM    8  C   UNL     1     -10.228   9.122  69.075  1.00  0.00    -0.207 C  
HETATM    9  H   UNL     1      -9.072  10.968  68.861  1.00  0.00     0.000 HD 
ENDROOT
BRANCH   6  10
HETATM   10  C   UNL     1      -9.698   8.855  71.416  1.00  0.00    -0.300 C  
BRANCH  10  11
HETATM   11  N   UNL     1      -8.795   7.710  71.453  1.00  0.00    -0.130 NA 
HETATM   12  C   UNL     1      -8.115   7.466  72.732  1.00  0.00    -0.104 C  
HETATM   13  C   UNL     1      -8.933   6.845  73.855  1.00  0.00    -0.173 C  
HETATM   14  S   UNL     1      -9.840   5.424  73.292  1.00  0.00    -0.167 S  
HETATM   15  O   UNL     1     -11.007   5.265  74.131  1.00  0.00    -0.251 OA 
HETATM   16  N   UNL     1     -10.403   5.957  71.817  1.00  0.00    -0.210 N  
HETATM   17  O   UNL     1      -8.916   4.337  73.056  1.00  0.00    -0.108 OA 
HETATM   18  H   UNL     1     -11.389   5.908  71.558  1.00  0.00     0.000 HD 
HETATM   19  C   UNL     1      -9.398   6.494  70.933  1.00  0.00    -0.161 C  
ENDBRANCH  10  11
ENDBRANCH   6  10
TORSDOF 2
ENDMDL
MODEL      111
REMARK 921   NORMALIZED FREE ENERGY PREDICTED BY IDOCK:   -3.33 KCAL/MOL
REMARK 922        TOTAL FREE ENERGY PREDICTED BY IDOCK:   -4.13 KCAL/MOL
REMARK 923 INTER-LIGAND FREE ENERGY PREDICTED BY IDOCK:   -3.80 KCAL/MOL
REMARK 924 INTRA-LIGAND FREE ENERGY PREDICTED BY IDOCK:   -0.32 KCAL/MOL
REMARK 927      BINDING AFFINITY PREDICTED BY RF-SCORE:    0.00 PKD
ROOT
HETATM    1  O   UNL     1     -11.095  15.625  66.970  1.00  0.00    -0.297 OA 
HETATM    2  S   UNL     1      -9.855  15.124  66.424  1.00  0.00    -0.300 S  
HETATM    3  C   UNL     1      -9.148  13.934  67.535  1.00  0.00    -0.201 C  
HETATM    4  O   UNL     1      -8.822  16.024  65.955  1.00  0.00    -0.333 OA 
HETATM    5  C   UNL     1     -10.078  12.740  67.655  1.00  0.00    -0.220 C  
HETATM    6  N   UNL     1     -10.428  12.063  66.392  1.00  0.00    -0.227 NA 
HETATM    7  N   UNL     1     -10.254  14.131  65.123  1.00  0.00    -0.473 N  
HETATM    8  C   UNL     1     -11.092  12.995  65.487  1.00  0.00    -0.275 C  
HETATM    9  H   UNL     1      -9.939  14.309  64.170  1.00  0.00     0.000 HD 
ENDROOT
BRANCH   6  10
HETATM   10  C   UNL     1      -9.309  11.385  65.731  1.00  0.00    -0.228 C  
BRANCH  10  11
HETATM   11  N   UNL     1      -9.675  10.027  65.344  1.00  0.00    -0.282 NA 
HETATM   12  C   UNL     1      -8.727   9.329  64.466  1.00  0.00    -0.187 C  
HETATM   13  C   UNL     1      -7.449   8.794  65.097  1.00  0.00    -0.090 C  
HETATM   14  S   UNL     1      -7.790   7.882  66.584  1.00  0.00    -0.103 S  
HETATM   15  O   UNL     1      -6.622   7.944  67.435  1.00  0.00    -0.054 OA 
HETATM   16  N   UNL     1      -8.937   8.849  67.308  1.00  0.00    -0.127 N  
HETATM   17  O   UNL     1      -8.413   6.625  66.235  1.00  0.00    -0.119 OA 
HETATM   18  H   UNL     1      -8.851   9.172  68.272  1.00  0.00     0.000 HD 
HETATM   19  C   UNL     1     -10.060   9.198  66.473  1.00  0.00    -0.287 C  
ENDBRANCH  10  11
ENDBRANCH   6  10
TORSDOF 2
ENDMDL
MODEL      112
REMARK 921   NORMALIZED FREE ENERGY PREDICTED BY IDOCK:   -3.32 KCAL/MOL
REMARK 922        TOTAL FREE ENERGY PREDICTED BY IDOCK:   -4.12 KCAL/MOL
REMARK 923 INTER-LIGAND FREE ENERGY PREDICTED BY IDOCK:   -4.23 KCAL/MOL
REMARK 924 INTRA-LIGAND FREE ENERGY PREDICTED BY IDOCK:    0.11 KCAL/MOL
REMARK 927      BINDING AFFINITY PREDICTED BY RF-SCORE:    0.00 PKD
ROOT
HETATM    1  O   UNL     1      -5.918  20.087  68.940  1.00  0.00    -0.246 OA 
HETATM    2  S   UNL     1      -6.439  19.669  67.659  1.00  0.00    -0.216 S  
HETATM    3  C   UNL     1      -6.331  17.903  67.515  1.00  0.00    -0.167 C  
HETATM    4  O   UNL     1      -5.990  20.284  66.427  1.00  0.00    -0.171 OA 
HETATM    5  C   UNL     1      -7.212  17.255  68.570  1.00  0.00    -0.224 C  
HETATM    6  N   UNL     1      -8.634  17.649  68.554  1.00  0.00    -0.286 NA 
HETATM    7  N   UNL     1      -8.110  19.872  67.717  1.00  0.00    -0.292 N  
HETATM    8  C   UNL     1      -8.761  19.088  68.759  1.00  0.00    -0.316 C  
HETATM    9  H   UNL     1      -8.618  20.486  67.080  1.00  0.00     0.000 HD 
ENDROOT
BRANCH   6  10
HETATM   10  C   UNL     1      -9.377  17.211  67.370  1.00  0.00    -0.234 C  
BRANCH  10  11
HETATM   11  N   UNL     1      -8.930  15.895  66.928  1.00  0.00    -0.214 NA 
HETATM   12  C   UNL     1      -9.111  14.797  67.885  1.00  0.00    -0.183 C  
HETATM   13  C   UNL     1     -10.519  14.246  68.064  1.00  0.00    -0.235 C  
HETATM   14  S   UNL     1     -11.291  13.912  66.499  1.00  0.00    -0.344 S  
HETATM   15  O   UNL     1     -12.725  14.007  66.667  1.00  0.00    -0.255 OA 
HETATM   16  N   UNL     1     -10.843  15.253  65.618  1.00  0.00    -0.348 N  
HETATM   17  O   UNL     1     -10.669  12.751  65.903  1.00  0.00    -0.264 OA 
HETATM   18  H   UNL     1     -11.519  15.832  65.119  1.00  0.00     0.000 HD 
HETATM   19  C   UNL     1      -9.429  15.538  65.611  1.00  0.00    -0.236 C  
ENDBRANCH  10  11
ENDBRANCH   6  10
TORSDOF 2
ENDMDL
MODEL      113
REMARK 921   NORMALIZED FREE ENERGY PREDICTED BY IDOCK:   -3.31 KCAL/MOL
REMARK 922        TOTAL FREE ENERGY PREDICTED BY IDOCK:   -4.11 KCAL/MOL
REMARK 923 INTER-LIGAND FREE ENERGY PREDICTED BY IDOCK:   -3.80 KCAL/MOL
REMARK 924 INTRA-LIGAND FREE ENERGY PREDICTED BY IDOCK:   -0.31 KCAL/MOL
REMARK 927      BINDING AFFINITY PREDICTED BY RF-SCORE:    0.00 PKD
ROOT
HETATM    1  O   UNL     1     -10.246  14.111  66.046  1.00  0.00    -0.287 OA 
HETATM    2  S   UNL     1     -10.981  13.715  67.225  1.00  0.00    -0.292 S  
HETATM    3  C   UNL     1     -11.636  12.080  67.001  1.00  0.00    -0.317 C  
HETATM    4  O   UNL     1     -11.999  14.570  67.799  1.00  0.00    -0.363 OA 
HETATM    5  C   UNL     1     -10.491  11.093  66.857  1.00  0.00    -0.246 C  
HETATM    6  N   UNL     1      -9.516  11.068  67.964  1.00  0.00    -0.162 NA 
HETATM    7  N   UNL     1      -9.850  13.430  68.440  1.00  0.00    -0.255 N  
HETATM    8  C   UNL     1      -8.894  12.379  68.117  1.00  0.00    -0.191 C  
HETATM    9  H   UNL     1      -9.837  13.945  69.320  1.00  0.00     0.000 HD 
ENDROOT
BRANCH   6  10
HETATM   10  C   UNL     1     -10.048  10.579  69.238  1.00  0.00    -0.224 C  
BRANCH  10  11
HETATM   11  N   UNL     1      -9.302   9.415  69.705  1.00  0.00    -0.176 NA 
HETATM   12  C   UNL     1     -10.076   8.404  70.436  1.00  0.00    -0.187 C  
HETATM   13  C   UNL     1     -10.978   7.486  69.622  1.00  0.00    -0.153 C  
HETATM   14  S   UNL     1     -10.118   6.800  68.225  1.00  0.00    -0.171 S  
HETATM   15  O   UNL     1     -11.089   6.488  67.200  1.00  0.00    -0.390 OA 
HETATM   16  N   UNL     1      -9.276   8.128  67.673  1.00  0.00    -0.137 N  
HETATM   17  O   UNL     1      -9.162   5.821  68.693  1.00  0.00    -0.117 OA 
HETATM   18  H   UNL     1      -9.318   8.436  66.701  1.00  0.00     0.000 HD 
HETATM   19  C   UNL     1      -8.485   8.810  68.667  1.00  0.00    -0.129 C  
ENDBRANCH  10  11
ENDBRANCH   6  10
TORSDOF 2
ENDMDL
MODEL      114
REMARK 921   NORMALIZED FREE ENERGY PREDICTED BY IDOCK:   -3.30 KCAL/MOL
REMARK 922        TOTAL FREE ENERGY PREDICTED BY IDOCK:   -4.10 KCAL/MOL
REMARK 923 INTER-LIGAND FREE ENERGY PREDICTED BY IDOCK:   -3.77 KCAL/MOL
REMARK 924 INTRA-LIGAND FREE ENERGY PREDICTED BY IDOCK:   -0.33 KCAL/MOL
REMARK 927      BINDING AFFINITY PREDICTED BY RF-SCORE:    0.00 PKD
ROOT
HETATM    1  O   UNL     1      -8.804   3.586  71.461  1.00  0.00    -0.086 OA 
HETATM    2  S   UNL     1      -8.389   4.482  70.407  1.00  0.00    -0.075 S  
HETATM    3  C   UNL     1      -9.765   4.831  69.342  1.00  0.00    -0.196 C  
HETATM    4  O   UNL     1      -7.213   4.208  69.607  1.00  0.00    -0.048 OA 
HETATM    5  C   UNL     1     -10.840   5.561  70.128  1.00  0.00    -0.229 C  
HETATM    6  N   UNL     1     -10.420   6.811  70.789  1.00  0.00    -0.211 NA 
HETATM    7  N   UNL     1      -8.152   5.994  71.109  1.00  0.00    -0.120 N  
HETATM    8  C   UNL     1      -9.346   6.542  71.739  1.00  0.00    -0.149 C  
HETATM    9  H   UNL     1      -7.255   6.480  71.095  1.00  0.00     0.000 HD 
ENDROOT
BRANCH   6  10
HETATM   10  C   UNL     1     -10.064   7.898  69.874  1.00  0.00    -0.197 C  
BRANCH  10  11
HETATM   11  N   UNL     1     -10.066   9.184  70.561  1.00  0.00    -0.216 NA 
HETATM   12  C   UNL     1      -9.250  10.242  69.953  1.00  0.00     0.022 C  
HETATM   13  C   UNL     1      -9.797  10.920  68.704  1.00  0.00    -0.190 C  
HETATM   14  S   UNL     1     -11.491  11.413  68.920  1.00  0.00    -0.330 S  
HETATM   15  O   UNL     1     -12.123  11.453  67.619  1.00  0.00    -0.630 OA 
HETATM   16  N   UNL     1     -12.124  10.083  69.698  1.00  0.00    -0.477 N  
HETATM   17  O   UNL     1     -11.544  12.536  69.828  1.00  0.00    -0.277 OA 
HETATM   18  H   UNL     1     -12.961   9.602  69.367  1.00  0.00     0.000 HD 
HETATM   19  C   UNL     1     -11.404   9.659  70.873  1.00  0.00    -0.360 C  
ENDBRANCH  10  11
ENDBRANCH   6  10
TORSDOF 2
ENDMDL
MODEL      115
REMARK 921   NORMALIZED FREE ENERGY PREDICTED BY IDOCK:   -3.29 KCAL/MOL
REMARK 922        TOTAL FREE ENERGY PREDICTED BY IDOCK:   -4.08 KCAL/MOL
REMARK 923 INTER-LIGAND FREE ENERGY PREDICTED BY IDOCK:   -3.73 KCAL/MOL
REMARK 924 INTRA-LIGAND FREE ENERGY PREDICTED BY IDOCK:   -0.36 KCAL/MOL
REMARK 927      BINDING AFFINITY PREDICTED BY RF-SCORE:    0.00 PKD
ROOT
HETATM    1  O   UNL     1      -9.486   7.001  74.218  1.00  0.00    -0.236 OA 
HETATM    2  S   UNL     1      -9.260   5.982  73.221  1.00  0.00    -0.131 S  
HETATM    3  C   UNL     1     -10.805   5.242  72.759  1.00  0.00    -0.261 C  
HETATM    4  O   UNL     1      -8.266   4.947  73.416  1.00  0.00    -0.106 OA 
HETATM    5  C   UNL     1     -11.693   6.289  72.109  1.00  0.00    -0.319 C  
HETATM    6  N   UNL     1     -11.125   6.978  70.935  1.00  0.00    -0.256 NA 
HETATM    7  N   UNL     1      -8.857   6.772  71.790  1.00  0.00    -0.129 N  
HETATM    8  C   UNL     1      -9.895   7.672  71.303  1.00  0.00    -0.171 C  
HETATM    9  H   UNL     1      -7.969   6.633  71.308  1.00  0.00     0.000 HD 
ENDROOT
BRANCH   6  10
HETATM   10  C   UNL     1     -10.924   6.124  69.762  1.00  0.00    -0.390 C  
BRANCH  10  11
HETATM   11  N   UNL     1      -9.867   6.651  68.905  1.00  0.00    -0.138 NA 
HETATM   12  C   UNL     1      -8.778   5.721  68.580  1.00  0.00    -0.111 C  
HETATM   13  C   UNL     1      -9.062   4.639  67.547  1.00  0.00    -0.121 C  
HETATM   14  S   UNL     1      -9.832   5.312  66.094  1.00  0.00    -0.147 S  
HETATM   15  O   UNL     1     -10.615   4.270  65.468  1.00  0.00    -0.221 OA 
HETATM   16  N   UNL     1     -10.928   6.373  66.763  1.00  0.00    -0.652 N  
HETATM   17  O   UNL     1      -8.855   6.080  65.354  1.00  0.00    -0.129 OA 
HETATM   18  H   UNL     1     -11.919   6.362  66.519  1.00  0.00     0.000 HD 
HETATM   19  C   UNL     1     -10.377   7.308  67.713  1.00  0.00    -0.209 C  
ENDBRANCH  10  11
ENDBRANCH   6  10
TORSDOF 2
ENDMDL
MODEL      116
REMARK 921   NORMALIZED FREE ENERGY PREDICTED BY IDOCK:   -3.28 KCAL/MOL
REMARK 922        TOTAL FREE ENERGY PREDICTED BY IDOCK:   -4.08 KCAL/MOL
REMARK 923 INTER-LIGAND FREE ENERGY PREDICTED BY IDOCK:   -3.60 KCAL/MOL
REMARK 924 INTRA-LIGAND FREE ENERGY PREDICTED BY IDOCK:   -0.48 KCAL/MOL
REMARK 927      BINDING AFFINITY PREDICTED BY RF-SCORE:    0.00 PKD
ROOT
HETATM    1  O   UNL     1      -9.731  11.178  66.357  1.00  0.00    -0.194 OA 
HETATM    2  S   UNL     1     -10.640  10.991  67.464  1.00  0.00    -0.244 S  
HETATM    3  C   UNL     1     -10.784   9.262  67.835  1.00  0.00    -0.188 C  
HETATM    4  O   UNL     1     -11.954  11.599  67.468  1.00  0.00    -0.622 OA 
HETATM    5  C   UNL     1      -9.437   8.729  68.292  1.00  0.00    -0.141 C  
HETATM    6  N   UNL     1      -8.829   9.416  69.447  1.00  0.00    -0.149 NA 
HETATM    7  N   UNL     1      -9.853  11.539  68.848  1.00  0.00    -0.384 N  
HETATM    8  C   UNL     1      -8.616  10.826  69.141  1.00  0.00    -0.088 C  
HETATM    9  H   UNL     1     -10.209  12.299  69.427  1.00  0.00     0.000 HD 
ENDROOT
BRANCH   6  10
HETATM   10  C   UNL     1      -9.553   9.248  70.710  1.00  0.00    -0.275 C  
BRANCH  10  11
HETATM   11  N   UNL     1      -8.660   8.793  71.770  1.00  0.00    -0.315 NA 
HETATM   12  C   UNL     1      -9.309   8.271  72.979  1.00  0.00    -0.240 C  
HETATM   13  C   UNL     1      -9.914   6.876  72.905  1.00  0.00    -0.181 C  
HETATM   14  S   UNL     1      -8.778   5.710  72.190  1.00  0.00    -0.133 S  
HETATM   15  O   UNL     1      -9.541   4.643  71.582  1.00  0.00    -0.145 OA 
HETATM   16  N   UNL     1      -8.145   6.598  70.930  1.00  0.00    -0.117 N  
HETATM   17  O   UNL     1      -7.716   5.446  73.135  1.00  0.00    -0.099 OA 
HETATM   18  H   UNL     1      -8.128   6.251  69.971  1.00  0.00     0.000 HD 
HETATM   19  C   UNL     1      -7.624   7.893  71.293  1.00  0.00    -0.081 C  
ENDBRANCH  10  11
ENDBRANCH   6  10
TORSDOF 2
ENDMDL
MODEL      117
REMARK 921   NORMALIZED FREE ENERGY PREDICTED BY IDOCK:   -3.28 KCAL/MOL
REMARK 922        TOTAL FREE ENERGY PREDICTED BY IDOCK:   -4.07 KCAL/MOL
REMARK 923 INTER-LIGAND FREE ENERGY PREDICTED BY IDOCK:   -3.76 KCAL/MOL
REMARK 924 INTRA-LIGAND FREE ENERGY PREDICTED BY IDOCK:   -0.31 KCAL/MOL
REMARK 927      BINDING AFFINITY PREDICTED BY RF-SCORE:    0.00 PKD
ROOT
HETATM    1  O   UNL     1     -10.669  18.368  66.845  1.00  0.00    -0.370 OA 
HETATM    2  S   UNL     1      -9.739  17.836  67.813  1.00  0.00    -0.296 S  
HETATM    3  C   UNL     1     -10.548  16.614  68.813  1.00  0.00    -0.340 C  
HETATM    4  O   UNL     1      -8.951  18.710  68.658  1.00  0.00    -0.324 OA 
HETATM    5  C   UNL     1     -10.973  15.446  67.940  1.00  0.00    -0.310 C  
HETATM    6  N   UNL     1      -9.899  14.795  67.166  1.00  0.00    -0.230 NA 
HETATM    7  N   UNL     1      -8.647  16.871  66.970  1.00  0.00    -0.197 N  
HETATM    8  C   UNL     1      -9.269  15.756  66.267  1.00  0.00    -0.333 C  
HETATM    9  H   UNL     1      -7.643  17.050  66.954  1.00  0.00     0.000 HD 
ENDROOT
BRANCH   6  10
HETATM   10  C   UNL     1      -8.902  14.091  67.976  1.00  0.00    -0.181 C  
BRANCH  10  11
HETATM   11  N   UNL     1      -8.275  13.013  67.218  1.00  0.00    -0.185 NA 
HETATM   12  C   UNL     1      -6.852  12.776  67.490  1.00  0.00    -0.153 C  
HETATM   13  C   UNL     1      -6.494  12.059  68.784  1.00  0.00    -0.077 C  
HETATM   14  S   UNL     1      -7.479  10.596  69.011  1.00  0.00    -0.128 S  
HETATM   15  O   UNL     1      -7.572  10.325  70.429  1.00  0.00    -0.228 OA 
HETATM   16  N   UNL     1      -8.985  11.138  68.548  1.00  0.00    -0.164 N  
HETATM   17  O   UNL     1      -7.051   9.588  68.068  1.00  0.00    -0.078 OA 
HETATM   18  H   UNL     1      -9.811  11.027  69.136  1.00  0.00     0.000 HD 
HETATM   19  C   UNL     1      -9.036  11.776  67.255  1.00  0.00    -0.171 C  
ENDBRANCH  10  11
ENDBRANCH   6  10
TORSDOF 2
ENDMDL
MODEL      118
REMARK 921   NORMALIZED FREE ENERGY PREDICTED BY IDOCK:   -3.28 KCAL/MOL
REMARK 922        TOTAL FREE ENERGY PREDICTED BY IDOCK:   -4.07 KCAL/MOL
REMARK 923 INTER-LIGAND FREE ENERGY PREDICTED BY IDOCK:   -3.74 KCAL/MOL
REMARK 924 INTRA-LIGAND FREE ENERGY PREDICTED BY IDOCK:   -0.32 KCAL/MOL
REMARK 927      BINDING AFFINITY PREDICTED BY RF-SCORE:    0.00 PKD
ROOT
HETATM    1  O   UNL     1      -8.946   5.205  64.429  1.00  0.00    -0.103 OA 
HETATM    2  S   UNL     1      -9.544   4.371  65.445  1.00  0.00    -0.194 S  
HETATM    3  C   UNL     1      -8.490   4.317  66.872  1.00  0.00    -0.104 C  
HETATM    4  O   UNL     1     -10.017   3.037  65.141  1.00  0.00     0.020 OA 
HETATM    5  C   UNL     1      -8.377   5.708  67.470  1.00  0.00    -0.100 C  
HETATM    6  N   UNL     1      -9.649   6.357  67.841  1.00  0.00    -0.122 NA 
HETATM    7  N   UNL     1     -10.860   5.217  66.067  1.00  0.00    -0.723 N  
HETATM    8  C   UNL     1     -10.505   6.496  66.669  1.00  0.00    -0.159 C  
HETATM    9  H   UNL     1     -11.817   4.866  66.026  1.00  0.00     0.000 HD 
ENDROOT
BRANCH   6  10
HETATM   10  C   UNL     1     -10.362   5.716  68.949  1.00  0.00    -0.225 C  
BRANCH  10  11
HETATM   11  N   UNL     1      -9.860   6.184  70.236  1.00  0.00    -0.167 NA 
HETATM   12  C   UNL     1      -9.704   7.638  70.378  1.00  0.00    -0.179 C  
HETATM   13  C   UNL     1     -10.967   8.463  70.582  1.00  0.00    -0.243 C  
HETATM   14  S   UNL     1     -12.001   7.767  71.850  1.00  0.00    -0.315 S  
HETATM   15  O   UNL     1     -13.369   8.158  71.588  1.00  0.00    -0.335 OA 
HETATM   16  N   UNL     1     -11.911   6.142  71.493  1.00  0.00    -0.224 N  
HETATM   17  O   UNL     1     -11.380   7.982  73.137  1.00  0.00    -0.317 OA 
HETATM   18  H   UNL     1     -12.741   5.561  71.373  1.00  0.00     0.000 HD 
HETATM   19  C   UNL     1     -10.575   5.615  71.366  1.00  0.00    -0.253 C  
ENDBRANCH  10  11
ENDBRANCH   6  10
TORSDOF 2
ENDMDL
MODEL      119
REMARK 921   NORMALIZED FREE ENERGY PREDICTED BY IDOCK:   -3.27 KCAL/MOL
REMARK 922        TOTAL FREE ENERGY PREDICTED BY IDOCK:   -4.06 KCAL/MOL
REMARK 923 INTER-LIGAND FREE ENERGY PREDICTED BY IDOCK:   -3.57 KCAL/MOL
REMARK 924 INTRA-LIGAND FREE ENERGY PREDICTED BY IDOCK:   -0.49 KCAL/MOL
REMARK 927      BINDING AFFINITY PREDICTED BY RF-SCORE:    0.00 PKD
ROOT
HETATM    1  O   UNL     1      -8.135   5.469  73.440  1.00  0.00    -0.113 OA 
HETATM    2  S   UNL     1      -9.180   5.685  72.467  1.00  0.00    -0.141 S  
HETATM    3  C   UNL     1     -10.263   6.975  73.027  1.00  0.00    -0.233 C  
HETATM    4  O   UNL     1      -9.966   4.583  71.951  1.00  0.00    -0.177 OA 
HETATM    5  C   UNL     1      -9.489   8.278  73.122  1.00  0.00    -0.193 C  
HETATM    6  N   UNL     1      -8.818   8.722  71.885  1.00  0.00    -0.344 NA 
HETATM    7  N   UNL     1      -8.470   6.434  71.137  1.00  0.00    -0.123 N  
HETATM    8  C   UNL     1      -7.854   7.718  71.446  1.00  0.00    -0.090 C  
HETATM    9  H   UNL     1      -8.472   6.027  70.202  1.00  0.00     0.000 HD 
ENDROOT
BRANCH   6  10
HETATM   10  C   UNL     1      -9.725   9.102  70.799  1.00  0.00    -0.273 C  
BRANCH  10  11
HETATM   11  N   UNL     1      -9.002   9.252  69.541  1.00  0.00    -0.144 NA 
HETATM   12  C   UNL     1      -9.609   8.610  68.368  1.00  0.00    -0.147 C  
HETATM   13  C   UNL     1     -10.818   9.290  67.743  1.00  0.00    -0.126 C  
HETATM   14  S   UNL     1     -10.532  11.025  67.489  1.00  0.00    -0.223 S  
HETATM   15  O   UNL     1     -11.808  11.706  67.506  1.00  0.00    -0.591 OA 
HETATM   16  N   UNL     1      -9.769  11.444  68.911  1.00  0.00    -0.376 N  
HETATM   17  O   UNL     1      -9.591  11.196  66.405  1.00  0.00    -0.190 OA 
HETATM   18  H   UNL     1     -10.085  12.220  69.493  1.00  0.00     0.000 HD 
HETATM   19  C   UNL     1      -8.632  10.629  69.260  1.00  0.00    -0.085 C  
ENDBRANCH  10  11
ENDBRANCH   6  10
TORSDOF 2
ENDMDL
MODEL      120
REMARK 921   NORMALIZED FREE ENERGY PREDICTED BY IDOCK:   -3.27 KCAL/MOL
REMARK 922        TOTAL FREE ENERGY PREDICTED BY IDOCK:   -4.06 KCAL/MOL
REMARK 923 INTER-LIGAND FREE ENERGY PREDICTED BY IDOCK:   -3.74 KCAL/MOL
REMARK 924 INTRA-LIGAND FREE ENERGY PREDICTED BY IDOCK:   -0.32 KCAL/MOL
REMARK 927      BINDING AFFINITY PREDICTED BY RF-SCORE:    0.00 PKD
ROOT
HETATM    1  O   UNL     1      -9.560  11.545  67.540  1.00  0.00    -0.170 OA 
HETATM    2  S   UNL     1      -9.882  10.138  67.561  1.00  0.00    -0.185 S  
HETATM    3  C   UNL     1      -8.652   9.256  68.488  1.00  0.00    -0.128 C  
HETATM    4  O   UNL     1     -10.180   9.416  66.341  1.00  0.00    -0.268 OA 
HETATM    5  C   UNL     1      -8.677   9.723  69.933  1.00  0.00    -0.217 C  
HETATM    6  N   UNL     1      -9.973   9.606  70.628  1.00  0.00    -0.269 NA 
HETATM    7  N   UNL     1     -11.219   9.952  68.568  1.00  0.00    -0.491 N  
HETATM    8  C   UNL     1     -10.989  10.394  69.937  1.00  0.00    -0.305 C  
HETATM    9  H   UNL     1     -12.107   9.565  68.248  1.00  0.00     0.000 HD 
ENDROOT
BRANCH   6  10
HETATM   10  C   UNL     1     -10.425   8.231  70.851  1.00  0.00    -0.196 C  
BRANCH  10  11
HETATM   11  N   UNL     1      -9.385   7.435  71.494  1.00  0.00    -0.144 NA 
HETATM   12  C   UNL     1      -9.286   7.560  72.953  1.00  0.00    -0.168 C  
HETATM   13  C   UNL     1     -10.336   6.846  73.792  1.00  0.00    -0.376 C  
HETATM   14  S   UNL     1     -10.549   5.160  73.272  1.00  0.00    -0.266 S  
HETATM   15  O   UNL     1     -11.890   4.742  73.617  1.00  0.00    -0.060 OA 
HETATM   16  N   UNL     1     -10.530   5.322  71.614  1.00  0.00    -0.222 N  
HETATM   17  O   UNL     1      -9.387   4.394  73.665  1.00  0.00    -0.113 OA 
HETATM   18  H   UNL     1     -11.265   4.941  71.019  1.00  0.00     0.000 HD 
HETATM   19  C   UNL     1      -9.399   6.042  71.081  1.00  0.00    -0.160 C  
ENDBRANCH  10  11
ENDBRANCH   6  10
TORSDOF 2
ENDMDL
MODEL      121
REMARK 921   NORMALIZED FREE ENERGY PREDICTED BY IDOCK:   -3.27 KCAL/MOL
REMARK 922        TOTAL FREE ENERGY PREDICTED BY IDOCK:   -4.06 KCAL/MOL
REMARK 923 INTER-LIGAND FREE ENERGY PREDICTED BY IDOCK:   -3.85 KCAL/MOL
REMARK 924 INTRA-LIGAND FREE ENERGY PREDICTED BY IDOCK:   -0.21 KCAL/MOL
REMARK 927      BINDING AFFINITY PREDICTED BY RF-SCORE:    0.00 PKD
ROOT
HETATM    1  O   UNL     1      -6.472  15.830  70.568  1.00  0.00     0.105 OA 
HETATM    2  S   UNL     1      -6.436  15.330  69.213  1.00  0.00    -0.142 S  
HETATM    3  C   UNL     1      -7.811  14.242  68.939  1.00  0.00    -0.097 C  
HETATM    4  O   UNL     1      -5.234  14.741  68.661  1.00  0.00    -0.087 OA 
HETATM    5  C   UNL     1      -9.107  15.022  69.075  1.00  0.00    -0.205 C  
HETATM    6  N   UNL     1      -9.248  16.199  68.197  1.00  0.00    -0.191 NA 
HETATM    7  N   UNL     1      -6.851  16.612  68.203  1.00  0.00    -0.141 N  
HETATM    8  C   UNL     1      -8.178  17.156  68.460  1.00  0.00    -0.261 C  
HETATM    9  H   UNL     1      -6.231  16.973  67.479  1.00  0.00     0.000 HD 
ENDROOT
BRANCH   6  10
HETATM   10  C   UNL     1      -9.346  15.888  66.768  1.00  0.00    -0.240 C  
BRANCH  10  11
HETATM   11  N   UNL     1     -10.682  16.177  66.259  1.00  0.00    -0.261 NA 
HETATM   12  C   UNL     1     -10.951  15.756  64.878  1.00  0.00    -0.427 C  
HETATM   13  C   UNL     1     -11.188  14.273  64.630  1.00  0.00    -0.366 C  
HETATM   14  S   UNL     1     -12.362  13.599  65.782  1.00  0.00    -0.482 S  
HETATM   15  O   UNL     1     -12.095  12.185  65.931  1.00  0.00    -0.594 OA 
HETATM   16  N   UNL     1     -11.871  14.312  67.206  1.00  0.00    -0.401 N  
HETATM   17  O   UNL     1     -13.680  14.097  65.459  1.00  0.00    -0.396 OA 
HETATM   18  H   UNL     1     -11.678  13.772  68.050  1.00  0.00     0.000 HD 
HETATM   19  C   UNL     1     -11.738  15.747  67.160  1.00  0.00     0.334 C  
ENDBRANCH  10  11
ENDBRANCH   6  10
TORSDOF 2
ENDMDL
MODEL      122
REMARK 921   NORMALIZED FREE ENERGY PREDICTED BY IDOCK:   -3.26 KCAL/MOL
REMARK 922        TOTAL FREE ENERGY PREDICTED BY IDOCK:   -4.05 KCAL/MOL
REMARK 923 INTER-LIGAND FREE ENERGY PREDICTED BY IDOCK:   -3.66 KCAL/MOL
REMARK 924 INTRA-LIGAND FREE ENERGY PREDICTED BY IDOCK:   -0.38 KCAL/MOL
REMARK 927      BINDING AFFINITY PREDICTED BY RF-SCORE:    0.00 PKD
ROOT
HETATM    1  O   UNL     1      -7.814   9.238  65.653  1.00  0.00    -0.097 OA 
HETATM    2  S   UNL     1      -9.219   9.535  65.809  1.00  0.00    -0.230 S  
HETATM    3  C   UNL     1     -10.040   8.162  66.577  1.00  0.00    -0.216 C  
HETATM    4  O   UNL     1     -10.014  10.015  64.697  1.00  0.00    -0.309 OA 
HETATM    5  C   UNL     1      -9.487   7.961  67.977  1.00  0.00    -0.149 C  
HETATM    6  N   UNL     1      -9.565   9.128  68.877  1.00  0.00    -0.150 NA 
HETATM    7  N   UNL     1      -9.347  10.691  67.026  1.00  0.00    -0.155 N  
HETATM    8  C   UNL     1      -8.823  10.250  68.313  1.00  0.00    -0.126 C  
HETATM    9  H   UNL     1      -9.754  11.615  66.877  1.00  0.00     0.000 HD 
ENDROOT
BRANCH   6  10
HETATM   10  C   UNL     1     -10.925   9.522  69.250  1.00  0.00    -0.145 C  
BRANCH  10  11
HETATM   11  N   UNL     1     -11.049   9.672  70.696  1.00  0.00    -0.292 NA 
HETATM   12  C   UNL     1     -12.335   9.268  71.278  1.00  0.00    -0.328 C  
HETATM   13  C   UNL     1     -12.604   7.776  71.420  1.00  0.00    -0.317 C  
HETATM   14  S   UNL     1     -11.230   6.935  72.170  1.00  0.00    -0.268 S  
HETATM   15  O   UNL     1     -11.243   5.557  71.730  1.00  0.00    -0.206 OA 
HETATM   16  N   UNL     1      -9.942   7.653  71.393  1.00  0.00    -0.181 N  
HETATM   17  O   UNL     1     -11.166   7.287  73.570  1.00  0.00    -0.191 OA 
HETATM   18  H   UNL     1      -9.213   7.112  70.928  1.00  0.00     0.000 HD 
HETATM   19  C   UNL     1      -9.933   9.094  71.425  1.00  0.00    -0.303 C  
ENDBRANCH  10  11
ENDBRANCH   6  10
TORSDOF 2
ENDMDL
MODEL      123
REMARK 921   NORMALIZED FREE ENERGY PREDICTED BY IDOCK:   -3.24 KCAL/MOL
REMARK 922        TOTAL FREE ENERGY PREDICTED BY IDOCK:   -4.03 KCAL/MOL
REMARK 923 INTER-LIGAND FREE ENERGY PREDICTED BY IDOCK:   -3.71 KCAL/MOL
REMARK 924 INTRA-LIGAND FREE ENERGY PREDICTED BY IDOCK:   -0.32 KCAL/MOL
REMARK 927      BINDING AFFINITY PREDICTED BY RF-SCORE:    0.00 PKD
ROOT
HETATM    1  O   UNL     1      -7.131   2.887  68.029  1.00  0.00    -0.048 OA 
HETATM    2  S   UNL     1      -7.849   4.123  67.826  1.00  0.00    -0.087 S  
HETATM    3  C   UNL     1      -9.523   3.943  68.388  1.00  0.00    -0.147 C  
HETATM    4  O   UNL     1      -7.839   4.796  66.543  1.00  0.00    -0.097 OA 
HETATM    5  C   UNL     1      -9.528   3.685  69.885  1.00  0.00    -0.192 C  
HETATM    6  N   UNL     1      -8.851   4.698  70.717  1.00  0.00    -0.116 NA 
HETATM    7  N   UNL     1      -7.262   5.227  68.953  1.00  0.00    -0.061 N  
HETATM    8  C   UNL     1      -7.447   4.807  70.337  1.00  0.00    -0.051 C  
HETATM    9  H   UNL     1      -6.819   6.107  68.692  1.00  0.00     0.000 HD 
ENDROOT
BRANCH   6  10
HETATM   10  C   UNL     1      -9.503   6.010  70.734  1.00  0.00    -0.168 C  
BRANCH  10  11
HETATM   11  N   UNL     1     -10.886   5.903  71.186  1.00  0.00    -0.268 NA 
HETATM   12  C   UNL     1     -11.141   6.292  72.579  1.00  0.00    -0.272 C  
HETATM   13  C   UNL     1     -11.162   7.780  72.900  1.00  0.00    -0.376 C  
HETATM   14  S   UNL     1     -12.177   8.679  71.750  1.00  0.00    -0.368 S  
HETATM   15  O   UNL     1     -11.696  10.042  71.686  1.00  0.00    -0.345 OA 
HETATM   16  N   UNL     1     -11.745   7.970  70.306  1.00  0.00    -0.474 N  
HETATM   17  O   UNL     1     -13.566   8.373  72.006  1.00  0.00    -0.348 OA 
HETATM   18  H   UNL     1     -11.441   8.515  69.498  1.00  0.00     0.000 HD 
HETATM   19  C   UNL     1     -11.830   6.531  70.278  1.00  0.00    -0.295 C  
ENDBRANCH  10  11
ENDBRANCH   6  10
TORSDOF 2
ENDMDL
MODEL      124
REMARK 921   NORMALIZED FREE ENERGY PREDICTED BY IDOCK:   -3.24 KCAL/MOL
REMARK 922        TOTAL FREE ENERGY PREDICTED BY IDOCK:   -4.02 KCAL/MOL
REMARK 923 INTER-LIGAND FREE ENERGY PREDICTED BY IDOCK:   -3.72 KCAL/MOL
REMARK 924 INTRA-LIGAND FREE ENERGY PREDICTED BY IDOCK:   -0.31 KCAL/MOL
REMARK 927      BINDING AFFINITY PREDICTED BY RF-SCORE:    0.00 PKD
ROOT
HETATM    1  O   UNL     1     -11.149  16.432  68.197  1.00  0.00    -0.352 OA 
HETATM    2  S   UNL     1     -11.246  15.309  69.101  1.00  0.00    -0.301 S  
HETATM    3  C   UNL     1     -12.398  14.121  68.458  1.00  0.00     0.005 C  
HETATM    4  O   UNL     1     -11.488  15.502  70.516  1.00  0.00    -0.283 OA 
HETATM    5  C   UNL     1     -11.874  13.570  67.144  1.00  0.00    -0.387 C  
HETATM    6  N   UNL     1     -10.532  12.958  67.189  1.00  0.00    -0.237 NA 
HETATM    7  N   UNL     1      -9.807  14.445  68.972  1.00  0.00    -0.375 N  
HETATM    8  C   UNL     1      -9.546  13.937  67.631  1.00  0.00    -0.215 C  
HETATM    9  H   UNL     1      -9.178  14.291  69.759  1.00  0.00     0.000 HD 
ENDROOT
BRANCH   6  10
HETATM   10  C   UNL     1     -10.448  11.724  67.975  1.00  0.00    -0.199 C  
BRANCH  10  11
HETATM   11  N   UNL     1     -10.671  10.552  67.136  1.00  0.00    -0.268 NA 
HETATM   12  C   UNL     1     -10.123  10.619  65.776  1.00  0.00    -0.266 C  
HETATM   13  C   UNL     1      -8.621  10.436  65.614  1.00  0.00    -0.167 C  
HETATM   14  S   UNL     1      -8.038   9.014  66.508  1.00  0.00    -0.111 S  
HETATM   15  O   UNL     1      -6.647   9.226  66.845  1.00  0.00    -0.066 OA 
HETATM   16  N   UNL     1      -8.884   9.155  67.937  1.00  0.00    -0.128 N  
HETATM   17  O   UNL     1      -8.485   7.816  65.834  1.00  0.00    -0.129 OA 
HETATM   18  H   UNL     1      -8.425   9.136  68.848  1.00  0.00     0.000 HD 
HETATM   19  C   UNL     1     -10.310   9.307  67.793  1.00  0.00    -0.237 C  
ENDBRANCH  10  11
ENDBRANCH   6  10
TORSDOF 2
ENDMDL
MODEL      125
REMARK 921   NORMALIZED FREE ENERGY PREDICTED BY IDOCK:   -3.23 KCAL/MOL
REMARK 922        TOTAL FREE ENERGY PREDICTED BY IDOCK:   -4.02 KCAL/MOL
REMARK 923 INTER-LIGAND FREE ENERGY PREDICTED BY IDOCK:   -3.70 KCAL/MOL
REMARK 924 INTRA-LIGAND FREE ENERGY PREDICTED BY IDOCK:   -0.31 KCAL/MOL
REMARK 927      BINDING AFFINITY PREDICTED BY RF-SCORE:    0.00 PKD
ROOT
HETATM    1  O   UNL     1     -12.921   7.437  71.252  1.00  0.00    -0.351 OA 
HETATM    2  S   UNL     1     -11.700   7.956  71.822  1.00  0.00    -0.304 S  
HETATM    3  C   UNL     1     -10.313   7.428  70.849  1.00  0.00    -0.200 C  
HETATM    4  O   UNL     1     -11.397   7.790  73.229  1.00  0.00    -0.321 OA 
HETATM    5  C   UNL     1     -10.420   8.018  69.454  1.00  0.00    -0.220 C  
HETATM    6  N   UNL     1     -10.522   9.488  69.381  1.00  0.00    -0.209 NA 
HETATM    7  N   UNL     1     -11.677   9.612  71.518  1.00  0.00    -0.394 N  
HETATM    8  C   UNL     1     -11.705   9.948  70.100  1.00  0.00    -0.174 C  
HETATM    9  H   UNL     1     -11.647  10.313  72.257  1.00  0.00     0.000 HD 
ENDROOT
BRANCH   6  10
HETATM   10  C   UNL     1      -9.321  10.207  69.815  1.00  0.00    -0.150 C  
BRANCH  10  11
HETATM   11  N   UNL     1      -8.415  10.437  68.695  1.00  0.00    -0.121 NA 
HETATM   12  C   UNL     1      -8.946  11.248  67.592  1.00  0.00    -0.142 C  
HETATM   13  C   UNL     1      -9.042  12.752  67.809  1.00  0.00    -0.197 C  
HETATM   14  S   UNL     1      -7.529  13.413  68.467  1.00  0.00    -0.110 S  
HETATM   15  O   UNL     1      -7.842  14.614  69.212  1.00  0.00    -0.138 OA 
HETATM   16  N   UNL     1      -7.131  12.259  69.601  1.00  0.00    -0.325 N  
HETATM   17  O   UNL     1      -6.518  13.399  67.434  1.00  0.00    -0.239 OA 
HETATM   18  H   UNL     1      -6.923  12.495  70.572  1.00  0.00     0.000 HD 
HETATM   19  C   UNL     1      -7.103  10.903  69.113  1.00  0.00    -0.109 C  
ENDBRANCH  10  11
ENDBRANCH   6  10
TORSDOF 2
ENDMDL
MODEL      126
REMARK 921   NORMALIZED FREE ENERGY PREDICTED BY IDOCK:   -3.23 KCAL/MOL
REMARK 922        TOTAL FREE ENERGY PREDICTED BY IDOCK:   -4.02 KCAL/MOL
REMARK 923 INTER-LIGAND FREE ENERGY PREDICTED BY IDOCK:   -3.70 KCAL/MOL
REMARK 924 INTRA-LIGAND FREE ENERGY PREDICTED BY IDOCK:   -0.32 KCAL/MOL
REMARK 927      BINDING AFFINITY PREDICTED BY RF-SCORE:    0.00 PKD
ROOT
HETATM    1  O   UNL     1     -10.057  14.395  65.489  1.00  0.00    -0.331 OA 
HETATM    2  S   UNL     1     -10.879  13.708  66.458  1.00  0.00    -0.284 S  
HETATM    3  C   UNL     1     -11.745  12.374  65.669  1.00  0.00    -0.414 C  
HETATM    4  O   UNL     1     -11.788  14.432  67.321  1.00  0.00    -0.384 OA 
HETATM    5  C   UNL     1     -10.743  11.354  65.156  1.00  0.00    -0.269 C  
HETATM    6  N   UNL     1      -9.818  10.795  66.161  1.00  0.00    -0.212 NA 
HETATM    7  N   UNL     1      -9.841  12.848  67.466  1.00  0.00    -0.205 N  
HETATM    8  C   UNL     1      -9.027  11.861  66.767  1.00  0.00    -0.196 C  
HETATM    9  H   UNL     1      -9.787  13.003  68.473  1.00  0.00     0.000 HD 
ENDROOT
BRANCH   6  10
HETATM   10  C   UNL     1     -10.456   9.959  67.181  1.00  0.00    -0.242 C  
BRANCH  10  11
HETATM   11  N   UNL     1     -10.184   8.545  66.945  1.00  0.00    -0.290 NA 
HETATM   12  C   UNL     1      -8.817   8.214  66.520  1.00  0.00    -0.149 C  
HETATM   13  C   UNL     1      -7.727   8.237  67.582  1.00  0.00    -0.099 C  
HETATM   14  S   UNL     1      -8.217   7.343  69.038  1.00  0.00    -0.129 S  
HETATM   15  O   UNL     1      -7.500   7.887  70.171  1.00  0.00    -0.075 OA 
HETATM   16  N   UNL     1      -9.798   7.840  69.213  1.00  0.00    -0.170 N  
HETATM   17  O   UNL     1      -8.218   5.927  68.745  1.00  0.00    -0.102 OA 
HETATM   18  H   UNL     1     -10.158   8.221  70.088  1.00  0.00     0.000 HD 
HETATM   19  C   UNL     1     -10.621   7.693  68.037  1.00  0.00    -0.151 C  
ENDBRANCH  10  11
ENDBRANCH   6  10
TORSDOF 2
ENDMDL
MODEL      127
REMARK 921   NORMALIZED FREE ENERGY PREDICTED BY IDOCK:   -3.22 KCAL/MOL
REMARK 922        TOTAL FREE ENERGY PREDICTED BY IDOCK:   -4.00 KCAL/MOL
REMARK 923 INTER-LIGAND FREE ENERGY PREDICTED BY IDOCK:   -3.81 KCAL/MOL
REMARK 924 INTRA-LIGAND FREE ENERGY PREDICTED BY IDOCK:   -0.19 KCAL/MOL
REMARK 927      BINDING AFFINITY PREDICTED BY RF-SCORE:    0.00 PKD
ROOT
HETATM    1  O   UNL     1     -10.572   4.534  65.715  1.00  0.00    -0.285 OA 
HETATM    2  S   UNL     1      -9.814   4.844  66.905  1.00  0.00    -0.216 S  
HETATM    3  C   UNL     1      -8.349   5.743  66.465  1.00  0.00    -0.111 C  
HETATM    4  O   UNL     1      -9.482   3.819  67.873  1.00  0.00    -0.176 OA 
HETATM    5  C   UNL     1      -8.739   7.074  65.845  1.00  0.00    -0.126 C  
HETATM    6  N   UNL     1      -9.602   7.941  66.669  1.00  0.00    -0.212 NA 
HETATM    7  N   UNL     1     -10.667   6.033  67.737  1.00  0.00    -0.274 N  
HETATM    8  C   UNL     1     -10.856   7.262  66.976  1.00  0.00    -0.280 C  
HETATM    9  H   UNL     1     -11.019   5.905  68.686  1.00  0.00     0.000 HD 
ENDROOT
BRANCH   6  10
HETATM   10  C   UNL     1      -8.966   8.461  67.883  1.00  0.00    -0.137 C  
BRANCH  10  11
HETATM   11  N   UNL     1      -8.613   9.868  67.729  1.00  0.00    -0.121 NA 
HETATM   12  C   UNL     1      -9.337  10.604  66.685  1.00  0.00    -0.165 C  
HETATM   13  C   UNL     1     -10.775  11.007  66.979  1.00  0.00    -0.270 C  
HETATM   14  S   UNL     1     -10.922  11.778  68.574  1.00  0.00    -0.245 S  
HETATM   15  O   UNL     1     -12.270  11.571  69.058  1.00  0.00    -0.368 OA 
HETATM   16  N   UNL     1      -9.945  10.799  69.503  1.00  0.00    -0.431 N  
HETATM   17  O   UNL     1     -10.325  13.093  68.520  1.00  0.00    -0.247 OA 
HETATM   18  H   UNL     1     -10.265  10.375  70.374  1.00  0.00     0.000 HD 
HETATM   19  C   UNL     1      -8.614  10.594  68.988  1.00  0.00    -0.146 C  
ENDBRANCH  10  11
ENDBRANCH   6  10
TORSDOF 2
ENDMDL
MODEL      128
REMARK 921   NORMALIZED FREE ENERGY PREDICTED BY IDOCK:   -3.22 KCAL/MOL
REMARK 922        TOTAL FREE ENERGY PREDICTED BY IDOCK:   -4.00 KCAL/MOL
REMARK 923 INTER-LIGAND FREE ENERGY PREDICTED BY IDOCK:   -3.72 KCAL/MOL
REMARK 924 INTRA-LIGAND FREE ENERGY PREDICTED BY IDOCK:   -0.28 KCAL/MOL
REMARK 927      BINDING AFFINITY PREDICTED BY RF-SCORE:    0.00 PKD
ROOT
HETATM    1  O   UNL     1     -12.009  13.972  67.663  1.00  0.00    -0.368 OA 
HETATM    2  S   UNL     1     -11.326  13.803  66.402  1.00  0.00    -0.328 S  
HETATM    3  C   UNL     1      -9.579  14.016  66.635  1.00  0.00    -0.289 C  
HETATM    4  O   UNL     1     -11.748  14.519  65.216  1.00  0.00    -0.348 OA 
HETATM    5  C   UNL     1      -9.055  12.928  67.556  1.00  0.00    -0.191 C  
HETATM    6  N   UNL     1      -9.314  11.540  67.129  1.00  0.00    -0.170 NA 
HETATM    7  N   UNL     1     -11.388  12.164  66.022  1.00  0.00    -0.344 N  
HETATM    8  C   UNL     1     -10.749  11.306  67.013  1.00  0.00    -0.260 C  
HETATM    9  H   UNL     1     -11.832  11.805  65.177  1.00  0.00     0.000 HD 
ENDROOT
BRANCH   6  10
HETATM   10  C   UNL     1      -8.608  11.133  65.911  1.00  0.00    -0.135 C  
BRANCH  10  11
HETATM   11  N   UNL     1      -9.376  10.142  65.166  1.00  0.00    -0.213 NA 
HETATM   12  C   UNL     1      -9.679  10.478  63.769  1.00  0.00    -0.326 C  
HETATM   13  C   UNL     1      -8.551  10.350  62.755  1.00  0.00    -0.199 C  
HETATM   14  S   UNL     1      -7.711   8.792  62.908  1.00  0.00    -0.123 S  
HETATM   15  O   UNL     1      -6.357   8.954  62.425  1.00  0.00    -0.096 OA 
HETATM   16  N   UNL     1      -7.594   8.642  64.563  1.00  0.00    -0.107 N  
HETATM   17  O   UNL     1      -8.574   7.740  62.419  1.00  0.00    -0.064 OA 
HETATM   18  H   UNL     1      -6.708   8.453  65.034  1.00  0.00     0.000 HD 
HETATM   19  C   UNL     1      -8.833   8.799  65.283  1.00  0.00    -0.162 C  
ENDBRANCH  10  11
ENDBRANCH   6  10
TORSDOF 2
ENDMDL
MODEL      129
REMARK 921   NORMALIZED FREE ENERGY PREDICTED BY IDOCK:   -3.21 KCAL/MOL
REMARK 922        TOTAL FREE ENERGY PREDICTED BY IDOCK:   -3.99 KCAL/MOL
REMARK 923 INTER-LIGAND FREE ENERGY PREDICTED BY IDOCK:   -3.67 KCAL/MOL
REMARK 924 INTRA-LIGAND FREE ENERGY PREDICTED BY IDOCK:   -0.33 KCAL/MOL
REMARK 927      BINDING AFFINITY PREDICTED BY RF-SCORE:    0.00 PKD
ROOT
HETATM    1  O   UNL     1     -10.104  11.836  67.195  1.00  0.00    -0.201 OA 
HETATM    2  S   UNL     1     -10.900  10.995  68.057  1.00  0.00    -0.251 S  
HETATM    3  C   UNL     1     -10.786   9.307  67.519  1.00  0.00    -0.203 C  
HETATM    4  O   UNL     1     -12.280  11.316  68.356  1.00  0.00    -0.604 OA 
HETATM    5  C   UNL     1      -9.351   8.828  67.657  1.00  0.00    -0.137 C  
HETATM    6  N   UNL     1      -8.760   8.940  69.004  1.00  0.00    -0.134 NA 
HETATM    7  N   UNL     1     -10.098  10.901  69.534  1.00  0.00    -0.437 N  
HETATM    8  C   UNL     1      -8.759  10.332  69.441  1.00  0.00    -0.156 C  
HETATM    9  H   UNL     1     -10.511  11.214  70.413  1.00  0.00     0.000 HD 
ENDROOT
BRANCH   6  10
HETATM   10  C   UNL     1      -9.365   8.066  70.012  1.00  0.00    -0.156 C  
BRANCH  10  11
HETATM   11  N   UNL     1      -9.190   6.661  69.660  1.00  0.00    -0.145 NA 
HETATM   12  C   UNL     1      -8.072   5.968  70.312  1.00  0.00    -0.111 C  
HETATM   13  C   UNL     1      -8.246   5.570  71.771  1.00  0.00    -0.119 C  
HETATM   14  S   UNL     1      -9.799   4.749  72.041  1.00  0.00    -0.183 S  
HETATM   15  O   UNL     1     -10.191   4.953  73.418  1.00  0.00    -0.154 OA 
HETATM   16  N   UNL     1     -10.830   5.685  71.126  1.00  0.00    -0.245 N  
HETATM   17  O   UNL     1      -9.745   3.429  71.451  1.00  0.00    -0.161 OA 
HETATM   18  H   UNL     1     -11.689   6.084  71.505  1.00  0.00     0.000 HD 
HETATM   19  C   UNL     1     -10.420   5.893  69.759  1.00  0.00    -0.272 C  
ENDBRANCH  10  11
ENDBRANCH   6  10
TORSDOF 2
ENDMDL
MODEL      130
REMARK 921   NORMALIZED FREE ENERGY PREDICTED BY IDOCK:   -3.21 KCAL/MOL
REMARK 922        TOTAL FREE ENERGY PREDICTED BY IDOCK:   -3.99 KCAL/MOL
REMARK 923 INTER-LIGAND FREE ENERGY PREDICTED BY IDOCK:   -3.62 KCAL/MOL
REMARK 924 INTRA-LIGAND FREE ENERGY PREDICTED BY IDOCK:   -0.38 KCAL/MOL
REMARK 927      BINDING AFFINITY PREDICTED BY RF-SCORE:    0.00 PKD
ROOT
HETATM    1  O   UNL     1      -7.430   2.121  72.015  1.00  0.00    -0.038 OA 
HETATM    2  S   UNL     1      -7.927   3.258  72.754  1.00  0.00    -0.069 S  
HETATM    3  C   UNL     1      -7.065   4.724  72.246  1.00  0.00    -0.078 C  
HETATM    4  O   UNL     1      -8.028   3.230  74.198  1.00  0.00    -0.068 OA 
HETATM    5  C   UNL     1      -7.359   5.002  70.782  1.00  0.00    -0.065 C  
HETATM    6  N   UNL     1      -8.784   5.138  70.424  1.00  0.00    -0.112 NA 
HETATM    7  N   UNL     1      -9.471   3.590  72.170  1.00  0.00    -0.119 N  
HETATM    8  C   UNL     1      -9.505   3.912  70.749  1.00  0.00    -0.163 C  
HETATM    9  H   UNL     1     -10.304   3.568  72.757  1.00  0.00     0.000 HD 
ENDROOT
BRANCH   6  10
HETATM   10  C   UNL     1      -9.448   6.313  70.992  1.00  0.00    -0.175 C  
BRANCH  10  11
HETATM   11  N   UNL     1     -10.872   6.066  71.189  1.00  0.00    -0.266 NA 
HETATM   12  C   UNL     1     -11.408   6.404  72.514  1.00  0.00    -0.264 C  
HETATM   13  C   UNL     1     -11.630   7.877  72.827  1.00  0.00    -0.329 C  
HETATM   14  S   UNL     1     -12.507   8.696  71.515  1.00  0.00    -0.322 S  
HETATM   15  O   UNL     1     -12.157  10.099  71.539  1.00  0.00    -0.377 OA 
HETATM   16  N   UNL     1     -11.758   8.058  70.171  1.00  0.00    -0.464 N  
HETATM   17  O   UNL     1     -13.883   8.254  71.519  1.00  0.00    -0.358 OA 
HETATM   18  H   UNL     1     -11.370   8.644  69.431  1.00  0.00     0.000 HD 
HETATM   19  C   UNL     1     -11.697   6.618  70.127  1.00  0.00    -0.351 C  
ENDBRANCH  10  11
ENDBRANCH   6  10
TORSDOF 2
ENDMDL
MODEL      131
REMARK 921   NORMALIZED FREE ENERGY PREDICTED BY IDOCK:   -3.16 KCAL/MOL
REMARK 922        TOTAL FREE ENERGY PREDICTED BY IDOCK:   -3.93 KCAL/MOL
REMARK 923 INTER-LIGAND FREE ENERGY PREDICTED BY IDOCK:   -4.05 KCAL/MOL
REMARK 924 INTRA-LIGAND FREE ENERGY PREDICTED BY IDOCK:    0.12 KCAL/MOL
REMARK 927      BINDING AFFINITY PREDICTED BY RF-SCORE:    0.00 PKD
ROOT
HETATM    1  O   UNL     1      -8.565  11.281  66.503  1.00  0.00    -0.161 OA 
HETATM    2  S   UNL     1      -9.720  11.783  67.211  1.00  0.00    -0.179 S  
HETATM    3  C   UNL     1     -10.974  10.530  67.276  1.00  0.00    -0.260 C  
HETATM    4  O   UNL     1     -10.321  13.054  66.862  1.00  0.00    -0.242 OA 
HETATM    5  C   UNL     1     -10.463   9.345  68.077  1.00  0.00    -0.228 C  
HETATM    6  N   UNL     1     -10.011   9.639  69.449  1.00  0.00    -0.185 NA 
HETATM    7  N   UNL     1      -9.297  11.882  68.837  1.00  0.00    -0.404 N  
HETATM    8  C   UNL     1      -8.916  10.604  69.424  1.00  0.00    -0.029 C  
HETATM    9  H   UNL     1      -9.307  12.756  69.363  1.00  0.00     0.000 HD 
ENDROOT
BRANCH   6  10
HETATM   10  C   UNL     1     -11.072  10.061  70.366  1.00  0.00    -0.327 C  
BRANCH  10  11
HETATM   11  N   UNL     1     -11.142   9.182  71.528  1.00  0.00    -0.341 NA 
HETATM   12  C   UNL     1     -12.255   8.224  71.546  1.00  0.00    -0.301 C  
HETATM   13  C   UNL     1     -12.145   7.004  70.643  1.00  0.00    -0.284 C  
HETATM   14  S   UNL     1     -10.565   6.207  70.812  1.00  0.00    -0.257 S  
HETATM   15  O   UNL     1     -10.271   5.511  69.579  1.00  0.00    -0.212 OA 
HETATM   16  N   UNL     1      -9.539   7.519  70.855  1.00  0.00    -0.166 N  
HETATM   17  O   UNL     1     -10.505   5.544  72.095  1.00  0.00    -0.206 OA 
HETATM   18  H   UNL     1      -8.729   7.601  70.239  1.00  0.00     0.000 HD 
HETATM   19  C   UNL     1      -9.877   8.531  71.825  1.00  0.00    -0.269 C  
ENDBRANCH  10  11
ENDBRANCH   6  10
TORSDOF 2
ENDMDL
MODEL      132
REMARK 921   NORMALIZED FREE ENERGY PREDICTED BY IDOCK:   -3.15 KCAL/MOL
REMARK 922        TOTAL FREE ENERGY PREDICTED BY IDOCK:   -3.92 KCAL/MOL
REMARK 923 INTER-LIGAND FREE ENERGY PREDICTED BY IDOCK:   -3.49 KCAL/MOL
REMARK 924 INTRA-LIGAND FREE ENERGY PREDICTED BY IDOCK:   -0.43 KCAL/MOL
REMARK 927      BINDING AFFINITY PREDICTED BY RF-SCORE:    0.00 PKD
ROOT
HETATM    1  O   UNL     1      -9.988   4.396  64.597  1.00  0.00    -0.145 OA 
HETATM    2  S   UNL     1      -9.635   4.298  65.994  1.00  0.00    -0.209 S  
HETATM    3  C   UNL     1      -8.144   5.211  66.300  1.00  0.00    -0.108 C  
HETATM    4  O   UNL     1      -9.564   3.016  66.664  1.00  0.00    -0.075 OA 
HETATM    5  C   UNL     1      -8.386   6.684  66.021  1.00  0.00    -0.134 C  
HETATM    6  N   UNL     1      -9.492   7.310  66.771  1.00  0.00    -0.164 NA 
HETATM    7  N   UNL     1     -10.746   5.228  66.851  1.00  0.00    -0.359 N  
HETATM    8  C   UNL     1     -10.750   6.635  66.473  1.00  0.00     0.017 C  
HETATM    9  H   UNL     1     -11.360   4.841  67.569  1.00  0.00     0.000 HD 
ENDROOT
BRANCH   6  10
HETATM   10  C   UNL     1      -9.270   7.410  68.216  1.00  0.00    -0.137 C  
BRANCH  10  11
HETATM   11  N   UNL     1     -10.516   7.698  68.919  1.00  0.00    -0.212 NA 
HETATM   12  C   UNL     1     -10.871   6.776  70.005  1.00  0.00    -0.266 C  
HETATM   13  C   UNL     1     -10.112   6.911  71.318  1.00  0.00    -0.190 C  
HETATM   14  S   UNL     1     -10.046   8.602  71.861  1.00  0.00    -0.341 S  
HETATM   15  O   UNL     1      -8.868   8.771  72.684  1.00  0.00    -0.394 OA 
HETATM   16  N   UNL     1      -9.727   9.395  70.431  1.00  0.00    -0.244 N  
HETATM   17  O   UNL     1     -11.358   9.003  72.317  1.00  0.00    -0.312 OA 
HETATM   18  H   UNL     1      -8.953  10.053  70.332  1.00  0.00     0.000 HD 
HETATM   19  C   UNL     1     -10.621   9.084  69.344  1.00  0.00    -0.221 C  
ENDBRANCH  10  11
ENDBRANCH   6  10
TORSDOF 2
ENDMDL
MODEL      133
REMARK 921   NORMALIZED FREE ENERGY PREDICTED BY IDOCK:   -3.12 KCAL/MOL
REMARK 922        TOTAL FREE ENERGY PREDICTED BY IDOCK:   -3.89 KCAL/MOL
REMARK 923 INTER-LIGAND FREE ENERGY PREDICTED BY IDOCK:   -3.66 KCAL/MOL
REMARK 924 INTRA-LIGAND FREE ENERGY PREDICTED BY IDOCK:   -0.23 KCAL/MOL
REMARK 927      BINDING AFFINITY PREDICTED BY RF-SCORE:    0.00 PKD
ROOT
HETATM    1  O   UNL     1      -8.803   8.830  68.214  1.00  0.00    -0.140 OA 
HETATM    2  S   UNL     1      -9.564   9.485  67.176  1.00  0.00    -0.169 S  
HETATM    3  C   UNL     1     -10.943  10.342  67.895  1.00  0.00    -0.292 C  
HETATM    4  O   UNL     1     -10.002   8.767  65.997  1.00  0.00    -0.256 OA 
HETATM    5  C   UNL     1     -10.433  11.440  68.811  1.00  0.00    -0.204 C  
HETATM    6  N   UNL     1      -9.526  12.427  68.195  1.00  0.00    -0.210 NA 
HETATM    7  N   UNL     1      -8.643  10.785  66.633  1.00  0.00    -0.139 N  
HETATM    8  C   UNL     1      -8.338  11.763  67.670  1.00  0.00    -0.145 C  
HETATM    9  H   UNL     1      -8.327  10.879  65.668  1.00  0.00     0.000 HD 
ENDROOT
BRANCH   6  10
HETATM   10  C   UNL     1     -10.151  13.281  67.181  1.00  0.00    -0.239 C  
BRANCH  10  11
HETATM   11  N   UNL     1     -10.385  14.625  67.700  1.00  0.00    -0.233 NA 
HETATM   12  C   UNL     1      -9.512  15.053  68.799  1.00  0.00    -0.210 C  
HETATM   13  C   UNL     1      -8.084  15.449  68.449  1.00  0.00    -0.140 C  
HETATM   14  S   UNL     1      -8.039  16.573  67.073  1.00  0.00    -0.226 S  
HETATM   15  O   UNL     1      -6.764  16.428  66.406  1.00  0.00    -0.186 OA 
HETATM   16  N   UNL     1      -9.171  15.894  66.056  1.00  0.00    -0.341 N  
HETATM   17  O   UNL     1      -8.533  17.863  67.501  1.00  0.00    -0.229 OA 
HETATM   18  H   UNL     1      -8.969  15.678  65.079  1.00  0.00     0.000 HD 
HETATM   19  C   UNL     1     -10.456  15.632  66.655  1.00  0.00    -0.301 C  
ENDBRANCH  10  11
ENDBRANCH   6  10
TORSDOF 2
ENDMDL
MODEL      134
REMARK 921   NORMALIZED FREE ENERGY PREDICTED BY IDOCK:   -3.11 KCAL/MOL
REMARK 922        TOTAL FREE ENERGY PREDICTED BY IDOCK:   -3.88 KCAL/MOL
REMARK 923 INTER-LIGAND FREE ENERGY PREDICTED BY IDOCK:   -3.72 KCAL/MOL
REMARK 924 INTRA-LIGAND FREE ENERGY PREDICTED BY IDOCK:   -0.17 KCAL/MOL
REMARK 927      BINDING AFFINITY PREDICTED BY RF-SCORE:    0.00 PKD
ROOT
HETATM    1  O   UNL     1     -10.779  10.565  69.993  1.00  0.00    -0.276 OA 
HETATM    2  S   UNL     1     -10.841  10.367  68.564  1.00  0.00    -0.253 S  
HETATM    3  C   UNL     1      -9.219  10.536  67.865  1.00  0.00    -0.140 C  
HETATM    4  O   UNL     1     -11.799  11.083  67.746  1.00  0.00    -0.605 OA 
HETATM    5  C   UNL     1      -8.317   9.443  68.411  1.00  0.00    -0.119 C  
HETATM    6  N   UNL     1      -8.783   8.058  68.205  1.00  0.00    -0.130 NA 
HETATM    7  N   UNL     1     -11.119   8.727  68.304  1.00  0.00    -0.409 N  
HETATM    8  C   UNL     1     -10.079   7.862  68.846  1.00  0.00    -0.197 C  
HETATM    9  H   UNL     1     -11.940   8.372  67.813  1.00  0.00     0.000 HD 
ENDROOT
BRANCH   6  10
HETATM   10  C   UNL     1      -8.807   7.623  66.807  1.00  0.00    -0.136 C  
BRANCH  10  11
HETATM   11  N   UNL     1      -8.060   6.382  66.631  1.00  0.00    -0.108 NA 
HETATM   12  C   UNL     1      -8.558   5.219  67.376  1.00  0.00    -0.104 C  
HETATM   13  C   UNL     1      -9.807   4.528  66.848  1.00  0.00    -0.213 C  
HETATM   14  S   UNL     1      -9.689   4.213  65.103  1.00  0.00    -0.205 S  
HETATM   15  O   UNL     1     -11.027   4.162  64.556  1.00  0.00    -0.259 OA 
HETATM   16  N   UNL     1      -9.023   5.639  64.555  1.00  0.00    -0.356 N  
HETATM   17  O   UNL     1      -8.733   3.152  64.878  1.00  0.00    -0.102 OA 
HETATM   18  H   UNL     1      -9.435   6.178  63.794  1.00  0.00     0.000 HD 
HETATM   19  C   UNL     1      -7.822   6.056  65.235  1.00  0.00    -0.107 C  
ENDBRANCH  10  11
ENDBRANCH   6  10
TORSDOF 2
ENDMDL
MODEL      135
REMARK 921   NORMALIZED FREE ENERGY PREDICTED BY IDOCK:   -3.10 KCAL/MOL
REMARK 922        TOTAL FREE ENERGY PREDICTED BY IDOCK:   -3.87 KCAL/MOL
REMARK 923 INTER-LIGAND FREE ENERGY PREDICTED BY IDOCK:   -4.00 KCAL/MOL
REMARK 924 INTRA-LIGAND FREE ENERGY PREDICTED BY IDOCK:    0.13 KCAL/MOL
REMARK 927      BINDING AFFINITY PREDICTED BY RF-SCORE:    0.00 PKD
ROOT
HETATM    1  O   UNL     1     -10.817   8.463  69.360  1.00  0.00    -0.191 OA 
HETATM    2  S   UNL     1      -9.589   9.097  68.941  1.00  0.00    -0.154 S  
HETATM    3  C   UNL     1      -9.182   8.584  67.292  1.00  0.00    -0.141 C  
HETATM    4  O   UNL     1      -8.401   9.056  69.769  1.00  0.00    -0.115 OA 
HETATM    5  C   UNL     1     -10.260   9.060  66.334  1.00  0.00    -0.227 C  
HETATM    6  N   UNL     1     -10.525  10.512  66.330  1.00  0.00    -0.220 NA 
HETATM    7  N   UNL     1      -9.937  10.723  68.681  1.00  0.00    -0.174 N  
HETATM    8  C   UNL     1     -10.948  10.951  67.656  1.00  0.00    -0.293 C  
HETATM    9  H   UNL     1      -9.482  11.479  69.193  1.00  0.00     0.000 HD 
ENDROOT
BRANCH   6  10
HETATM   10  C   UNL     1      -9.423  11.333  65.823  1.00  0.00    -0.227 C  
BRANCH  10  11
HETATM   11  N   UNL     1      -9.845  12.122  64.671  1.00  0.00    -0.182 NA 
HETATM   12  C   UNL     1     -11.111  11.722  64.044  1.00  0.00    -0.390 C  
HETATM   13  C   UNL     1     -12.400  12.099  64.761  1.00  0.00    -0.230 C  
HETATM   14  S   UNL     1     -12.399  13.808  65.248  1.00  0.00    -0.482 S  
HETATM   15  O   UNL     1     -13.265  13.956  66.396  1.00  0.00     0.140 OA 
HETATM   16  N   UNL     1     -10.844  13.986  65.819  1.00  0.00    -0.286 N  
HETATM   17  O   UNL     1     -12.545  14.635  64.071  1.00  0.00    -0.819 OA 
HETATM   18  H   UNL     1     -10.641  14.372  66.741  1.00  0.00     0.000 HD 
HETATM   19  C   UNL     1      -9.805  13.554  64.917  1.00  0.00    -0.013 C  
ENDBRANCH  10  11
ENDBRANCH   6  10
TORSDOF 2
ENDMDL
MODEL      136
REMARK 921   NORMALIZED FREE ENERGY PREDICTED BY IDOCK:   -3.10 KCAL/MOL
REMARK 922        TOTAL FREE ENERGY PREDICTED BY IDOCK:   -3.87 KCAL/MOL
REMARK 923 INTER-LIGAND FREE ENERGY PREDICTED BY IDOCK:   -3.75 KCAL/MOL
REMARK 924 INTRA-LIGAND FREE ENERGY PREDICTED BY IDOCK:   -0.12 KCAL/MOL
REMARK 927      BINDING AFFINITY PREDICTED BY RF-SCORE:    0.00 PKD
ROOT
HETATM    1  O   UNL     1     -12.658  12.651  65.761  1.00  0.00    -0.575 OA 
HETATM    2  S   UNL     1     -11.733  12.915  66.838  1.00  0.00    -0.380 S  
HETATM    3  C   UNL     1     -11.428  11.421  67.746  1.00  0.00    -0.281 C  
HETATM    4  O   UNL     1     -11.948  14.009  67.763  1.00  0.00    -0.362 OA 
HETATM    5  C   UNL     1     -10.753  10.407  66.839  1.00  0.00    -0.207 C  
HETATM    6  N   UNL     1      -9.495  10.845  66.205  1.00  0.00    -0.188 NA 
HETATM    7  N   UNL     1     -10.221  13.165  66.141  1.00  0.00    -0.284 N  
HETATM    8  C   UNL     1      -9.730  12.024  65.379  1.00  0.00    -0.184 C  
HETATM    9  H   UNL     1      -9.698  14.035  66.243  1.00  0.00     0.000 HD 
ENDROOT
BRANCH   6  10
HETATM   10  C   UNL     1      -8.383  11.059  67.136  1.00  0.00    -0.132 C  
BRANCH  10  11
HETATM   11  N   UNL     1      -7.922   9.796  67.701  1.00  0.00    -0.105 NA 
HETATM   12  C   UNL     1      -6.479   9.540  67.618  1.00  0.00    -0.062 C  
HETATM   13  C   UNL     1      -5.575  10.291  68.586  1.00  0.00    -0.037 C  
HETATM   14  S   UNL     1      -6.183  10.193  70.253  1.00  0.00    -0.117 S  
HETATM   15  O   UNL     1      -5.716  11.354  70.978  1.00  0.00    -0.329 OA 
HETATM   16  N   UNL     1      -7.817  10.424  70.022  1.00  0.00    -0.345 N  
HETATM   17  O   UNL     1      -5.983   8.851  70.751  1.00  0.00    -0.032 OA 
HETATM   18  H   UNL     1      -8.349  11.128  70.534  1.00  0.00     0.000 HD 
HETATM   19  C   UNL     1      -8.427   9.557  69.043  1.00  0.00    -0.128 C  
ENDBRANCH  10  11
ENDBRANCH   6  10
TORSDOF 2
ENDMDL
MODEL      137
REMARK 921   NORMALIZED FREE ENERGY PREDICTED BY IDOCK:   -3.08 KCAL/MOL
REMARK 922        TOTAL FREE ENERGY PREDICTED BY IDOCK:   -3.84 KCAL/MOL
REMARK 923 INTER-LIGAND FREE ENERGY PREDICTED BY IDOCK:   -3.60 KCAL/MOL
REMARK 924 INTRA-LIGAND FREE ENERGY PREDICTED BY IDOCK:   -0.25 KCAL/MOL
REMARK 927      BINDING AFFINITY PREDICTED BY RF-SCORE:    0.00 PKD
ROOT
HETATM    1  O   UNL     1      -9.694   7.936  73.561  1.00  0.00    -0.290 OA 
HETATM    2  S   UNL     1      -8.741   8.256  72.525  1.00  0.00    -0.214 S  
HETATM    3  C   UNL     1      -8.647   6.916  71.364  1.00  0.00    -0.119 C  
HETATM    4  O   UNL     1      -7.405   8.712  72.847  1.00  0.00    -0.323 OA 
HETATM    5  C   UNL     1      -9.990   6.749  70.675  1.00  0.00    -0.187 C  
HETATM    6  N   UNL     1     -10.515   7.943  69.985  1.00  0.00    -0.226 NA 
HETATM    7  N   UNL     1      -9.438   9.449  71.562  1.00  0.00    -0.072 N  
HETATM    8  C   UNL     1     -10.686   9.039  70.932  1.00  0.00    -0.253 C  
HETATM    9  H   UNL     1      -9.024  10.372  71.433  1.00  0.00     0.000 HD 
ENDROOT
BRANCH   6  10
HETATM   10  C   UNL     1      -9.737   8.365  68.816  1.00  0.00    -0.164 C  
BRANCH  10  11
HETATM   11  N   UNL     1     -10.613   8.733  67.709  1.00  0.00    -0.224 NA 
HETATM   12  C   UNL     1     -10.823  10.172  67.504  1.00  0.00    -0.290 C  
HETATM   13  C   UNL     1      -9.693  10.962  66.859  1.00  0.00    -0.181 C  
HETATM   14  S   UNL     1      -9.085  10.153  65.398  1.00  0.00    -0.206 S  
HETATM   15  O   UNL     1      -7.707  10.547  65.199  1.00  0.00    -0.137 OA 
HETATM   16  N   UNL     1      -9.041   8.563  65.896  1.00  0.00    -0.230 N  
HETATM   17  O   UNL     1     -10.071  10.270  64.348  1.00  0.00    -0.324 OA 
HETATM   18  H   UNL     1      -8.206   7.984  65.805  1.00  0.00     0.000 HD 
HETATM   19  C   UNL     1     -10.268   8.065  66.466  1.00  0.00    -0.158 C  
ENDBRANCH  10  11
ENDBRANCH   6  10
TORSDOF 2
ENDMDL
MODEL      138
REMARK 921   NORMALIZED FREE ENERGY PREDICTED BY IDOCK:   -3.08 KCAL/MOL
REMARK 922        TOTAL FREE ENERGY PREDICTED BY IDOCK:   -3.84 KCAL/MOL
REMARK 923 INTER-LIGAND FREE ENERGY PREDICTED BY IDOCK:   -3.57 KCAL/MOL
REMARK 924 INTRA-LIGAND FREE ENERGY PREDICTED BY IDOCK:   -0.28 KCAL/MOL
REMARK 927      BINDING AFFINITY PREDICTED BY RF-SCORE:    0.00 PKD
ROOT
HETATM    1  O   UNL     1      -9.255   6.521  70.904  1.00  0.00    -0.153 OA 
HETATM    2  S   UNL     1      -8.899   7.909  71.086  1.00  0.00    -0.142 S  
HETATM    3  C   UNL     1      -9.507   8.868  69.722  1.00  0.00    -0.170 C  
HETATM    4  O   UNL     1      -7.538   8.302  71.387  1.00  0.00    -0.072 OA 
HETATM    5  C   UNL     1     -11.025   8.814  69.703  1.00  0.00    -0.105 C  
HETATM    6  N   UNL     1     -11.702   9.256  70.937  1.00  0.00    -0.288 NA 
HETATM    7  N   UNL     1      -9.858   8.505  72.334  1.00  0.00    -0.301 N  
HETATM    8  C   UNL     1     -11.289   8.428  72.064  1.00  0.00    -0.342 C  
HETATM    9  H   UNL     1      -9.474   8.886  73.199  1.00  0.00     0.000 HD 
ENDROOT
BRANCH   6  10
HETATM   10  C   UNL     1     -11.553  10.681  71.240  1.00  0.00     0.098 C  
BRANCH  10  11
HETATM   11  N   UNL     1     -12.702  11.442  70.760  1.00  0.00    -0.290 NA 
HETATM   12  C   UNL     1     -13.575  12.011  71.795  1.00  0.00     0.084 C  
HETATM   13  C   UNL     1     -13.078  13.247  72.532  1.00  0.00    -0.280 C  
HETATM   14  S   UNL     1     -12.475  14.480  71.403  1.00  0.00    -0.374 S  
HETATM   15  O   UNL     1     -11.495  15.290  72.093  1.00  0.00    -0.439 OA 
HETATM   16  N   UNL     1     -11.620  13.546  70.321  1.00  0.00    -0.521 N  
HETATM   17  O   UNL     1     -13.596  15.069  70.705  1.00  0.00    -0.261 OA 
HETATM   18  H   UNL     1     -10.651  13.745  70.073  1.00  0.00     0.000 HD 
HETATM   19  C   UNL     1     -12.348  12.435  69.760  1.00  0.00    -0.012 C  
ENDBRANCH  10  11
ENDBRANCH   6  10
TORSDOF 2
ENDMDL
MODEL      139
REMARK 921   NORMALIZED FREE ENERGY PREDICTED BY IDOCK:   -3.07 KCAL/MOL
REMARK 922        TOTAL FREE ENERGY PREDICTED BY IDOCK:   -3.84 KCAL/MOL
REMARK 923 INTER-LIGAND FREE ENERGY PREDICTED BY IDOCK:   -3.56 KCAL/MOL
REMARK 924 INTRA-LIGAND FREE ENERGY PREDICTED BY IDOCK:   -0.28 KCAL/MOL
REMARK 927      BINDING AFFINITY PREDICTED BY RF-SCORE:    0.00 PKD
ROOT
HETATM    1  O   UNL     1      -9.122   5.369  64.471  1.00  0.00     0.020 OA 
HETATM    2  S   UNL     1      -9.332   4.622  65.690  1.00  0.00    -0.168 S  
HETATM    3  C   UNL     1      -8.311   5.284  66.981  1.00  0.00    -0.107 C  
HETATM    4  O   UNL     1      -9.260   3.176  65.707  1.00  0.00    -0.151 OA 
HETATM    5  C   UNL     1      -8.731   6.713  67.276  1.00  0.00    -0.118 C  
HETATM    6  N   UNL     1     -10.148   6.908  67.640  1.00  0.00    -0.149 NA 
HETATM    7  N   UNL     1     -10.861   5.034  66.264  1.00  0.00    -0.553 N  
HETATM    8  C   UNL     1     -11.015   6.453  66.559  1.00  0.00     0.056 C  
HETATM    9  H   UNL     1     -11.609   4.353  66.393  1.00  0.00     0.000 HD 
ENDROOT
BRANCH   6  10
HETATM   10  C   UNL     1     -10.537   6.313  68.922  1.00  0.00    -0.268 C  
BRANCH  10  11
HETATM   11  N   UNL     1     -10.315   7.245  70.021  1.00  0.00    -0.208 NA 
HETATM   12  C   UNL     1     -11.516   7.705  70.730  1.00  0.00    -0.277 C  
HETATM   13  C   UNL     1     -12.174   6.734  71.700  1.00  0.00    -0.365 C  
HETATM   14  S   UNL     1     -10.983   6.001  72.796  1.00  0.00    -0.272 S  
HETATM   15  O   UNL     1     -11.488   4.715  73.224  1.00  0.00    -0.320 OA 
HETATM   16  N   UNL     1      -9.728   5.677  71.749  1.00  0.00    -0.156 N  
HETATM   17  O   UNL     1     -10.536   6.998  73.743  1.00  0.00    -0.364 OA 
HETATM   18  H   UNL     1      -9.300   4.754  71.678  1.00  0.00     0.000 HD 
HETATM   19  C   UNL     1      -9.291   6.795  70.950  1.00  0.00    -0.157 C  
ENDBRANCH  10  11
ENDBRANCH   6  10
TORSDOF 2
ENDMDL
MODEL      140
REMARK 921   NORMALIZED FREE ENERGY PREDICTED BY IDOCK:   -3.05 KCAL/MOL
REMARK 922        TOTAL FREE ENERGY PREDICTED BY IDOCK:   -3.82 KCAL/MOL
REMARK 923 INTER-LIGAND FREE ENERGY PREDICTED BY IDOCK:   -3.52 KCAL/MOL
REMARK 924 INTRA-LIGAND FREE ENERGY PREDICTED BY IDOCK:   -0.30 KCAL/MOL
REMARK 927      BINDING AFFINITY PREDICTED BY RF-SCORE:    0.00 PKD
ROOT
HETATM    1  O   UNL     1      -8.324   8.648  66.670  1.00  0.00    -0.105 OA 
HETATM    2  S   UNL     1      -9.138   9.769  66.259  1.00  0.00    -0.165 S  
HETATM    3  C   UNL     1     -10.241  10.221  67.573  1.00  0.00    -0.210 C  
HETATM    4  O   UNL     1      -9.859   9.754  65.003  1.00  0.00    -0.306 OA 
HETATM    5  C   UNL     1      -9.435  10.692  68.771  1.00  0.00    -0.183 C  
HETATM    6  N   UNL     1      -8.505  11.810  68.524  1.00  0.00    -0.150 NA 
HETATM    7  N   UNL     1      -8.134  11.120  66.221  1.00  0.00    -0.231 N  
HETATM    8  C   UNL     1      -7.527  11.437  67.507  1.00  0.00    -0.113 C  
HETATM    9  H   UNL     1      -7.967  11.666  65.375  1.00  0.00     0.000 HD 
ENDROOT
BRANCH   6  10
HETATM   10  C   UNL     1      -9.151  13.084  68.199  1.00  0.00    -0.204 C  
BRANCH  10  11
HETATM   11  N   UNL     1      -8.187  14.178  68.207  1.00  0.00    -0.141 NA 
HETATM   12  C   UNL     1      -8.101  14.971  66.974  1.00  0.00    -0.190 C  
HETATM   13  C   UNL     1      -9.216  15.970  66.701  1.00  0.00    -0.249 C  
HETATM   14  S   UNL     1      -9.553  16.975  68.128  1.00  0.00    -0.276 S  
HETATM   15  O   UNL     1     -10.928  17.419  68.060  1.00  0.00    -0.341 OA 
HETATM   16  N   UNL     1      -9.496  15.843  69.349  1.00  0.00    -0.257 N  
HETATM   17  O   UNL     1      -8.461  17.903  68.321  1.00  0.00    -0.262 OA 
HETATM   18  H   UNL     1     -10.249  15.731  70.028  1.00  0.00     0.000 HD 
HETATM   19  C   UNL     1      -8.304  15.031  69.378  1.00  0.00    -0.141 C  
ENDBRANCH  10  11
ENDBRANCH   6  10
TORSDOF 2
ENDMDL
MODEL      141
REMARK 921   NORMALIZED FREE ENERGY PREDICTED BY IDOCK:   -3.05 KCAL/MOL
REMARK 922        TOTAL FREE ENERGY PREDICTED BY IDOCK:   -3.82 KCAL/MOL
REMARK 923 INTER-LIGAND FREE ENERGY PREDICTED BY IDOCK:   -3.49 KCAL/MOL
REMARK 924 INTRA-LIGAND FREE ENERGY PREDICTED BY IDOCK:   -0.33 KCAL/MOL
REMARK 927      BINDING AFFINITY PREDICTED BY RF-SCORE:    0.00 PKD
ROOT
HETATM    1  O   UNL     1     -12.142   9.628  70.848  1.00  0.00    -0.293 OA 
HETATM    2  S   UNL     1     -12.471   8.648  71.857  1.00  0.00    -0.382 S  
HETATM    3  C   UNL     1     -12.847   7.095  71.085  1.00  0.00    -0.288 C  
HETATM    4  O   UNL     1     -13.451   8.928  72.886  1.00  0.00    -0.337 OA 
HETATM    5  C   UNL     1     -11.613   6.576  70.368  1.00  0.00    -0.407 C  
HETATM    6  N   UNL     1     -10.404   6.415  71.197  1.00  0.00    -0.201 NA 
HETATM    7  N   UNL     1     -11.039   8.258  72.652  1.00  0.00    -0.367 N  
HETATM    8  C   UNL     1     -10.016   7.696  71.778  1.00  0.00    -0.172 C  
HETATM    9  H   UNL     1     -10.900   8.402  73.652  1.00  0.00     0.000 HD 
ENDROOT
BRANCH   6  10
HETATM   10  C   UNL     1     -10.498   5.372  72.222  1.00  0.00    -0.219 C  
BRANCH  10  11
HETATM   11  N   UNL     1      -9.237   4.651  72.354  1.00  0.00    -0.124 NA 
HETATM   12  C   UNL     1      -9.343   3.215  72.642  1.00  0.00    -0.102 C  
HETATM   13  C   UNL     1      -9.737   2.295  71.494  1.00  0.00    -0.154 C  
HETATM   14  S   UNL     1      -8.774   2.623  70.037  1.00  0.00    -0.078 S  
HETATM   15  O   UNL     1      -9.546   2.226  68.880  1.00  0.00    -0.140 OA 
HETATM   16  N   UNL     1      -8.751   4.289  70.025  1.00  0.00    -0.072 N  
HETATM   17  O   UNL     1      -7.423   2.154  70.249  1.00  0.00    -0.039 OA 
HETATM   18  H   UNL     1      -9.022   4.834  69.207  1.00  0.00     0.000 HD 
HETATM   19  C   UNL     1      -8.320   4.905  71.256  1.00  0.00    -0.115 C  
ENDBRANCH  10  11
ENDBRANCH   6  10
TORSDOF 2
ENDMDL
MODEL      142
REMARK 921   NORMALIZED FREE ENERGY PREDICTED BY IDOCK:   -3.02 KCAL/MOL
REMARK 922        TOTAL FREE ENERGY PREDICTED BY IDOCK:   -3.79 KCAL/MOL
REMARK 923 INTER-LIGAND FREE ENERGY PREDICTED BY IDOCK:   -4.06 KCAL/MOL
REMARK 924 INTRA-LIGAND FREE ENERGY PREDICTED BY IDOCK:    0.27 KCAL/MOL
REMARK 927      BINDING AFFINITY PREDICTED BY RF-SCORE:    0.00 PKD
ROOT
HETATM    1  O   UNL     1      -5.801  12.976  69.421  1.00  0.00    -0.083 OA 
HETATM    2  S   UNL     1      -6.167  13.626  68.184  1.00  0.00    -0.132 S  
HETATM    3  C   UNL     1      -7.576  12.813  67.474  1.00  0.00    -0.162 C  
HETATM    4  O   UNL     1      -5.185  13.884  67.151  1.00  0.00    -0.152 OA 
HETATM    5  C   UNL     1      -8.767  12.961  68.405  1.00  0.00    -0.119 C  
HETATM    6  N   UNL     1      -9.142  14.343  68.760  1.00  0.00    -0.170 NA 
HETATM    7  N   UNL     1      -6.841  15.115  68.588  1.00  0.00    -0.102 N  
HETATM    8  C   UNL     1      -8.030  15.013  69.426  1.00  0.00    -0.170 C  
HETATM    9  H   UNL     1      -6.454  16.005  68.275  1.00  0.00     0.000 HD 
ENDROOT
BRANCH   6  10
HETATM   10  C   UNL     1      -9.655  15.143  67.644  1.00  0.00    -0.206 C  
BRANCH  10  11
HETATM   11  N   UNL     1     -11.082  15.401  67.797  1.00  0.00    -0.312 NA 
HETATM   12  C   UNL     1     -11.907  14.252  68.192  1.00  0.00    -0.339 C  
HETATM   13  C   UNL     1     -11.842  13.807  69.646  1.00  0.00    -0.333 C  
HETATM   14  S   UNL     1     -12.025  15.183  70.756  1.00  0.00    -0.363 S  
HETATM   15  O   UNL     1     -11.362  14.857  72.000  1.00  0.00    -0.286 OA 
HETATM   16  N   UNL     1     -11.074  16.332  70.015  1.00  0.00    -0.357 N  
HETATM   17  O   UNL     1     -13.396  15.639  70.721  1.00  0.00    -0.535 OA 
HETATM   18  H   UNL     1     -10.338  16.836  70.512  1.00  0.00     0.000 HD 
HETATM   19  C   UNL     1     -11.364  16.564  68.622  1.00  0.00    -0.237 C  
ENDBRANCH  10  11
ENDBRANCH   6  10
TORSDOF 2
ENDMDL
MODEL      143
REMARK 921   NORMALIZED FREE ENERGY PREDICTED BY IDOCK:   -3.01 KCAL/MOL
REMARK 922        TOTAL FREE ENERGY PREDICTED BY IDOCK:   -3.77 KCAL/MOL
REMARK 923 INTER-LIGAND FREE ENERGY PREDICTED BY IDOCK:   -3.47 KCAL/MOL
REMARK 924 INTRA-LIGAND FREE ENERGY PREDICTED BY IDOCK:   -0.30 KCAL/MOL
REMARK 927      BINDING AFFINITY PREDICTED BY RF-SCORE:    0.00 PKD
ROOT
HETATM    1  O   UNL     1      -9.571   7.203  74.008  1.00  0.00    -0.248 OA 
HETATM    2  S   UNL     1     -10.320   6.738  72.864  1.00  0.00    -0.240 S  
HETATM    3  C   UNL     1     -11.259   8.079  72.179  1.00  0.00    -0.319 C  
HETATM    4  O   UNL     1     -11.151   5.554  72.940  1.00  0.00    -0.261 OA 
HETATM    5  C   UNL     1     -10.311   9.149  71.665  1.00  0.00    -0.318 C  
HETATM    6  N   UNL     1      -9.315   8.706  70.671  1.00  0.00    -0.172 NA 
HETATM    7  N   UNL     1      -9.214   6.471  71.624  1.00  0.00    -0.144 N  
HETATM    8  C   UNL     1      -8.468   7.662  71.235  1.00  0.00    -0.115 C  
HETATM    9  H   UNL     1      -9.078   5.560  71.185  1.00  0.00     0.000 HD 
ENDROOT
BRANCH   6  10
HETATM   10  C   UNL     1      -9.878   8.297  69.381  1.00  0.00    -0.185 C  
BRANCH  10  11
HETATM   11  N   UNL     1      -9.829   9.390  68.417  1.00  0.00    -0.156 NA 
HETATM   12  C   UNL     1      -8.490   9.800  67.975  1.00  0.00    -0.118 C  
HETATM   13  C   UNL     1      -7.773   8.901  66.977  1.00  0.00    -0.098 C  
HETATM   14  S   UNL     1      -8.830   8.468  65.616  1.00  0.00    -0.148 S  
HETATM   15  O   UNL     1      -8.384   7.203  65.076  1.00  0.00    -0.125 OA 
HETATM   16  N   UNL     1     -10.266   8.152  66.401  1.00  0.00    -0.472 N  
HETATM   17  O   UNL     1      -9.021   9.630  64.777  1.00  0.00    -0.198 OA 
HETATM   18  H   UNL     1     -10.784   7.284  66.265  1.00  0.00     0.000 HD 
HETATM   19  C   UNL     1     -10.722   9.193  67.288  1.00  0.00    -0.154 C  
ENDBRANCH  10  11
ENDBRANCH   6  10
TORSDOF 2
ENDMDL
MODEL      144
REMARK 921   NORMALIZED FREE ENERGY PREDICTED BY IDOCK:   -3.01 KCAL/MOL
REMARK 922        TOTAL FREE ENERGY PREDICTED BY IDOCK:   -3.77 KCAL/MOL
REMARK 923 INTER-LIGAND FREE ENERGY PREDICTED BY IDOCK:   -4.06 KCAL/MOL
REMARK 924 INTRA-LIGAND FREE ENERGY PREDICTED BY IDOCK:    0.29 KCAL/MOL
REMARK 927      BINDING AFFINITY PREDICTED BY RF-SCORE:    0.00 PKD
ROOT
HETATM    1  O   UNL     1     -12.315  12.444  65.612  1.00  0.00    -0.639 OA 
HETATM    2  S   UNL     1     -10.992  12.841  66.032  1.00  0.00    -0.286 S  
HETATM    3  C   UNL     1     -10.545  11.966  67.509  1.00  0.00    -0.219 C  
HETATM    4  O   UNL     1     -10.634  14.238  66.169  1.00  0.00    -0.284 OA 
HETATM    5  C   UNL     1     -10.472  10.478  67.213  1.00  0.00    -0.250 C  
HETATM    6  N   UNL     1      -9.557  10.079  66.126  1.00  0.00    -0.195 NA 
HETATM    7  N   UNL     1      -9.904  12.171  64.935  1.00  0.00    -0.416 N  
HETATM    8  C   UNL     1      -9.952  10.716  64.875  1.00  0.00    -0.318 C  
HETATM    9  H   UNL     1      -9.270  12.732  64.367  1.00  0.00     0.000 HD 
ENDROOT
BRANCH   6  10
HETATM   10  C   UNL     1      -8.137  10.299  66.411  1.00  0.00    -0.123 C  
BRANCH  10  11
HETATM   11  N   UNL     1      -7.404   9.038  66.430  1.00  0.00    -0.087 NA 
HETATM   12  C   UNL     1      -7.421   8.301  67.700  1.00  0.00    -0.094 C  
HETATM   13  C   UNL     1      -8.697   7.554  68.062  1.00  0.00    -0.121 C  
HETATM   14  S   UNL     1      -9.282   6.570  66.703  1.00  0.00    -0.155 S  
HETATM   15  O   UNL     1     -10.713   6.407  66.840  1.00  0.00    -0.291 OA 
HETATM   16  N   UNL     1      -9.059   7.612  65.422  1.00  0.00    -0.371 N  
HETATM   17  O   UNL     1      -8.400   5.438  66.524  1.00  0.00    -0.108 OA 
HETATM   18  H   UNL     1      -9.805   7.837  64.764  1.00  0.00     0.000 HD 
HETATM   19  C   UNL     1      -7.735   8.173  65.311  1.00  0.00    -0.101 C  
ENDBRANCH  10  11
ENDBRANCH   6  10
TORSDOF 2
ENDMDL
MODEL      145
REMARK 921   NORMALIZED FREE ENERGY PREDICTED BY IDOCK:   -3.00 KCAL/MOL
REMARK 922        TOTAL FREE ENERGY PREDICTED BY IDOCK:   -3.76 KCAL/MOL
REMARK 923 INTER-LIGAND FREE ENERGY PREDICTED BY IDOCK:   -3.62 KCAL/MOL
REMARK 924 INTRA-LIGAND FREE ENERGY PREDICTED BY IDOCK:   -0.14 KCAL/MOL
REMARK 927      BINDING AFFINITY PREDICTED BY RF-SCORE:    0.00 PKD
ROOT
HETATM    1  O   UNL     1     -12.009  15.397  68.171  1.00  0.00    -0.253 OA 
HETATM    2  S   UNL     1     -10.823  15.242  67.362  1.00  0.00    -0.308 S  
HETATM    3  C   UNL     1      -9.842  13.901  67.986  1.00  0.00    -0.234 C  
HETATM    4  O   UNL     1      -9.966  16.370  67.060  1.00  0.00    -0.249 OA 
HETATM    5  C   UNL     1     -10.621  12.603  67.859  1.00  0.00    -0.220 C  
HETATM    6  N   UNL     1     -11.088  12.261  66.502  1.00  0.00    -0.283 NA 
HETATM    7  N   UNL     1     -11.313  14.603  65.883  1.00  0.00    -0.337 N  
HETATM    8  C   UNL     1     -11.970  13.306  65.993  1.00  0.00    -0.423 C  
HETATM    9  H   UNL     1     -11.164  15.079  64.994  1.00  0.00     0.000 HD 
ENDROOT
BRANCH   6  10
HETATM   10  C   UNL     1     -10.021  11.953  65.547  1.00  0.00    -0.238 C  
BRANCH  10  11
HETATM   11  N   UNL     1      -9.455  10.633  65.802  1.00  0.00    -0.190 NA 
HETATM   12  C   UNL     1      -9.344   9.743  64.639  1.00  0.00    -0.256 C  
HETATM   13  C   UNL     1      -8.223  10.021  63.647  1.00  0.00    -0.160 C  
HETATM   14  S   UNL     1      -6.666  10.251  64.471  1.00  0.00    -0.024 S  
HETATM   15  O   UNL     1      -5.828  11.087  63.639  1.00  0.00     0.124 OA 
HETATM   16  N   UNL     1      -7.117  11.198  65.767  1.00  0.00    -0.370 N  
HETATM   17  O   UNL     1      -6.207   8.978  64.980  1.00  0.00    -0.063 OA 
HETATM   18  H   UNL     1      -6.652  12.078  65.988  1.00  0.00     0.000 HD 
HETATM   19  C   UNL     1      -8.211  10.683  66.552  1.00  0.00    -0.138 C  
ENDBRANCH  10  11
ENDBRANCH   6  10
TORSDOF 2
ENDMDL
MODEL      146
REMARK 921   NORMALIZED FREE ENERGY PREDICTED BY IDOCK:   -2.99 KCAL/MOL
REMARK 922        TOTAL FREE ENERGY PREDICTED BY IDOCK:   -3.75 KCAL/MOL
REMARK 923 INTER-LIGAND FREE ENERGY PREDICTED BY IDOCK:   -3.44 KCAL/MOL
REMARK 924 INTRA-LIGAND FREE ENERGY PREDICTED BY IDOCK:   -0.31 KCAL/MOL
REMARK 927      BINDING AFFINITY PREDICTED BY RF-SCORE:    0.00 PKD
ROOT
HETATM    1  O   UNL     1     -10.382  11.410  65.512  1.00  0.00    -0.247 OA 
HETATM    2  S   UNL     1     -10.813  11.188  66.872  1.00  0.00    -0.265 S  
HETATM    3  C   UNL     1     -10.543   9.492  67.317  1.00  0.00    -0.248 C  
HETATM    4  O   UNL     1     -12.126  11.604  67.321  1.00  0.00    -0.595 OA 
HETATM    5  C   UNL     1      -9.054   9.192  67.285  1.00  0.00    -0.126 C  
HETATM    6  N   UNL     1      -8.204  10.049  68.133  1.00  0.00    -0.108 NA 
HETATM    7  N   UNL     1      -9.698  11.952  67.875  1.00  0.00    -0.186 N  
HETATM    8  C   UNL     1      -8.338  11.446  67.734  1.00  0.00    -0.127 C  
HETATM    9  H   UNL     1      -9.950  12.699  68.522  1.00  0.00     0.000 HD 
ENDROOT
BRANCH   6  10
HETATM   10  C   UNL     1      -8.415   9.885  69.574  1.00  0.00    -0.176 C  
BRANCH  10  11
HETATM   11  N   UNL     1      -8.434   8.473  69.943  1.00  0.00    -0.123 NA 
HETATM   12  C   UNL     1      -7.164   7.915  70.424  1.00  0.00    -0.053 C  
HETATM   13  C   UNL     1      -6.733   8.268  71.841  1.00  0.00    -0.076 C  
HETATM   14  S   UNL     1      -8.058   8.033  73.002  1.00  0.00    -0.178 S  
HETATM   15  O   UNL     1      -7.843   8.919  74.125  1.00  0.00    -0.381 OA 
HETATM   16  N   UNL     1      -9.350   8.663  72.160  1.00  0.00    -0.280 N  
HETATM   17  O   UNL     1      -8.283   6.616  73.181  1.00  0.00    -0.112 OA 
HETATM   18  H   UNL     1      -9.967   9.373  72.555  1.00  0.00     0.000 HD 
HETATM   19  C   UNL     1      -9.533   8.134  70.831  1.00  0.00    -0.162 C  
ENDBRANCH  10  11
ENDBRANCH   6  10
TORSDOF 2
ENDMDL
MODEL      147
REMARK 921   NORMALIZED FREE ENERGY PREDICTED BY IDOCK:   -2.99 KCAL/MOL
REMARK 922        TOTAL FREE ENERGY PREDICTED BY IDOCK:   -3.75 KCAL/MOL
REMARK 923 INTER-LIGAND FREE ENERGY PREDICTED BY IDOCK:   -3.79 KCAL/MOL
REMARK 924 INTRA-LIGAND FREE ENERGY PREDICTED BY IDOCK:    0.03 KCAL/MOL
REMARK 927      BINDING AFFINITY PREDICTED BY RF-SCORE:    0.00 PKD
ROOT
HETATM    1  O   UNL     1      -9.832  17.244  68.431  1.00  0.00    -0.278 OA 
HETATM    2  S   UNL     1      -9.770  16.685  67.100  1.00  0.00    -0.257 S  
HETATM    3  C   UNL     1      -8.333  15.655  66.949  1.00  0.00    -0.252 C  
HETATM    4  O   UNL     1      -9.891  17.524  65.926  1.00  0.00    -0.516 OA 
HETATM    5  C   UNL     1      -8.452  14.479  67.904  1.00  0.00    -0.161 C  
HETATM    6  N   UNL     1      -9.657  13.642  67.751  1.00  0.00    -0.217 NA 
HETATM    7  N   UNL     1     -10.990  15.530  66.993  1.00  0.00    -0.311 N  
HETATM    8  C   UNL     1     -10.858  14.445  67.957  1.00  0.00    -0.243 C  
HETATM    9  H   UNL     1     -11.751  15.585  66.316  1.00  0.00     0.000 HD 
ENDROOT
BRANCH   6  10
HETATM   10  C   UNL     1      -9.726  12.892  66.494  1.00  0.00    -0.257 C  
BRANCH  10  11
HETATM   11  N   UNL     1      -9.599  11.458  66.732  1.00  0.00    -0.185 NA 
HETATM   12  C   UNL     1      -8.368  10.830  66.237  1.00  0.00    -0.160 C  
HETATM   13  C   UNL     1      -7.091  11.064  67.031  1.00  0.00    -0.118 C  
HETATM   14  S   UNL     1      -7.343  10.780  68.768  1.00  0.00    -0.113 S  
HETATM   15  O   UNL     1      -6.383  11.574  69.504  1.00  0.00    -0.091 OA 
HETATM   16  N   UNL     1      -8.822  11.508  69.008  1.00  0.00    -0.379 N  
HETATM   17  O   UNL     1      -7.495   9.361  68.998  1.00  0.00    -0.071 OA 
HETATM   18  H   UNL     1      -8.977  12.204  69.738  1.00  0.00     0.000 HD 
HETATM   19  C   UNL     1      -9.868  11.085  68.110  1.00  0.00    -0.176 C  
ENDBRANCH  10  11
ENDBRANCH   6  10
TORSDOF 2
ENDMDL
MODEL      148
REMARK 921   NORMALIZED FREE ENERGY PREDICTED BY IDOCK:   -2.98 KCAL/MOL
REMARK 922        TOTAL FREE ENERGY PREDICTED BY IDOCK:   -3.74 KCAL/MOL
REMARK 923 INTER-LIGAND FREE ENERGY PREDICTED BY IDOCK:   -3.50 KCAL/MOL
REMARK 924 INTRA-LIGAND FREE ENERGY PREDICTED BY IDOCK:   -0.24 KCAL/MOL
REMARK 927      BINDING AFFINITY PREDICTED BY RF-SCORE:    0.00 PKD
ROOT
HETATM    1  O   UNL     1      -8.705  18.211  67.838  1.00  0.00    -0.252 OA 
HETATM    2  S   UNL     1      -7.592  17.428  67.355  1.00  0.00    -0.195 S  
HETATM    3  C   UNL     1      -6.989  16.380  68.654  1.00  0.00    -0.159 C  
HETATM    4  O   UNL     1      -6.474  18.049  66.675  1.00  0.00    -0.172 OA 
HETATM    5  C   UNL     1      -8.071  15.390  69.048  1.00  0.00    -0.213 C  
HETATM    6  N   UNL     1      -8.600  14.545  67.961  1.00  0.00    -0.154 NA 
HETATM    7  N   UNL     1      -8.219  16.278  66.297  1.00  0.00    -0.318 N  
HETATM    8  C   UNL     1      -9.184  15.377  66.914  1.00  0.00    -0.233 C  
HETATM    9  H   UNL     1      -7.947  16.217  65.316  1.00  0.00     0.000 HD 
ENDROOT
BRANCH   6  10
HETATM   10  C   UNL     1      -7.640  13.587  67.408  1.00  0.00    -0.128 C  
BRANCH  10  11
HETATM   11  N   UNL     1      -8.043  12.215  67.695  1.00  0.00    -0.147 NA 
HETATM   12  C   UNL     1      -9.488  11.952  67.686  1.00  0.00    -0.182 C  
HETATM   13  C   UNL     1     -10.177  11.860  66.332  1.00  0.00    -0.209 C  
HETATM   14  S   UNL     1      -9.289  10.793  65.221  1.00  0.00    -0.223 S  
HETATM   15  O   UNL     1      -9.576  11.206  63.865  1.00  0.00    -0.225 OA 
HETATM   16  N   UNL     1      -7.714  11.248  65.516  1.00  0.00    -0.316 N  
HETATM   17  O   UNL     1      -9.452   9.423  65.651  1.00  0.00    -0.231 OA 
HETATM   18  H   UNL     1      -7.073  11.519  64.770  1.00  0.00     0.000 HD 
HETATM   19  C   UNL     1      -7.320  11.233  66.904  1.00  0.00    -0.145 C  
ENDBRANCH  10  11
ENDBRANCH   6  10
TORSDOF 2
ENDMDL
MODEL      149
REMARK 921   NORMALIZED FREE ENERGY PREDICTED BY IDOCK:   -2.97 KCAL/MOL
REMARK 922        TOTAL FREE ENERGY PREDICTED BY IDOCK:   -3.73 KCAL/MOL
REMARK 923 INTER-LIGAND FREE ENERGY PREDICTED BY IDOCK:   -3.79 KCAL/MOL
REMARK 924 INTRA-LIGAND FREE ENERGY PREDICTED BY IDOCK:    0.07 KCAL/MOL
REMARK 927      BINDING AFFINITY PREDICTED BY RF-SCORE:    0.00 PKD
ROOT
HETATM    1  O   UNL     1     -13.061   7.995  71.722  1.00  0.00    -0.328 OA 
HETATM    2  S   UNL     1     -11.649   7.951  72.021  1.00  0.00    -0.330 S  
HETATM    3  C   UNL     1     -10.851   6.764  70.970  1.00  0.00    -0.242 C  
HETATM    4  O   UNL     1     -11.172   7.794  73.380  1.00  0.00    -0.315 OA 
HETATM    5  C   UNL     1     -10.970   7.209  69.523  1.00  0.00    -0.191 C  
HETATM    6  N   UNL     1     -10.440   8.551  69.215  1.00  0.00    -0.222 NA 
HETATM    7  N   UNL     1     -10.976   9.380  71.438  1.00  0.00    -0.361 N  
HETATM    8  C   UNL     1     -11.139   9.562  70.001  1.00  0.00    -0.237 C  
HETATM    9  H   UNL     1     -10.498  10.055  72.035  1.00  0.00     0.000 HD 
ENDROOT
BRANCH   6  10
HETATM   10  C   UNL     1      -8.987   8.681  69.349  1.00  0.00    -0.145 C  
BRANCH  10  11
HETATM   11  N   UNL     1      -8.360   8.917  68.054  1.00  0.00    -0.121 NA 
HETATM   12  C   UNL     1      -9.086   8.408  66.883  1.00  0.00    -0.148 C  
HETATM   13  C   UNL     1     -10.309   9.188  66.422  1.00  0.00    -0.165 C  
HETATM   14  S   UNL     1      -9.964  10.928  66.299  1.00  0.00    -0.235 S  
HETATM   15  O   UNL     1     -11.202  11.653  66.480  1.00  0.00    -0.307 OA 
HETATM   16  N   UNL     1      -9.073  11.185  67.683  1.00  0.00    -0.145 N  
HETATM   17  O   UNL     1      -9.104  11.160  65.159  1.00  0.00    -0.202 OA 
HETATM   18  H   UNL     1      -9.306  11.916  68.355  1.00  0.00     0.000 HD 
HETATM   19  C   UNL     1      -7.950  10.299  67.865  1.00  0.00    -0.102 C  
ENDBRANCH  10  11
ENDBRANCH   6  10
TORSDOF 2
ENDMDL
MODEL      150
REMARK 921   NORMALIZED FREE ENERGY PREDICTED BY IDOCK:   -2.97 KCAL/MOL
REMARK 922        TOTAL FREE ENERGY PREDICTED BY IDOCK:   -3.72 KCAL/MOL
REMARK 923 INTER-LIGAND FREE ENERGY PREDICTED BY IDOCK:   -3.29 KCAL/MOL
REMARK 924 INTRA-LIGAND FREE ENERGY PREDICTED BY IDOCK:   -0.44 KCAL/MOL
REMARK 927      BINDING AFFINITY PREDICTED BY RF-SCORE:    0.00 PKD
ROOT
HETATM    1  O   UNL     1     -10.491  10.494  68.486  1.00  0.00    -0.169 OA 
HETATM    2  S   UNL     1     -10.077   9.111  68.447  1.00  0.00    -0.203 S  
HETATM    3  C   UNL     1      -8.502   8.935  69.247  1.00  0.00    -0.121 C  
HETATM    4  O   UNL     1     -10.079   8.360  67.209  1.00  0.00    -0.205 OA 
HETATM    5  C   UNL     1      -8.637   9.301  70.715  1.00  0.00    -0.203 C  
HETATM    6  N   UNL     1      -9.647   8.546  71.479  1.00  0.00    -0.204 NA 
HETATM    7  N   UNL     1     -11.064   8.270  69.521  1.00  0.00    -0.442 N  
HETATM    8  C   UNL     1     -10.971   8.741  70.897  1.00  0.00    -0.262 C  
HETATM    9  H   UNL     1     -11.670   7.501  69.235  1.00  0.00     0.000 HD 
ENDROOT
BRANCH   6  10
HETATM   10  C   UNL     1      -9.346   7.122  71.651  1.00  0.00    -0.152 C  
BRANCH  10  11
HETATM   11  N   UNL     1     -10.565   6.350  71.862  1.00  0.00    -0.210 NA 
HETATM   12  C   UNL     1     -10.661   5.082  71.128  1.00  0.00    -0.077 C  
HETATM   13  C   UNL     1      -9.840   3.908  71.643  1.00  0.00    -0.177 C  
HETATM   14  S   UNL     1     -10.045   3.690  73.395  1.00  0.00    -0.146 S  
HETATM   15  O   UNL     1      -8.859   3.048  73.917  1.00  0.00    -0.076 OA 
HETATM   16  N   UNL     1      -9.988   5.267  73.932  1.00  0.00    -0.172 N  
HETATM   17  O   UNL     1     -11.369   3.173  73.656  1.00  0.00    -0.228 OA 
HETATM   18  H   UNL     1      -9.359   5.569  74.676  1.00  0.00     0.000 HD 
HETATM   19  C   UNL     1     -10.891   6.174  73.267  1.00  0.00    -0.244 C  
ENDBRANCH  10  11
ENDBRANCH   6  10
TORSDOF 2
ENDMDL
MODEL      151
REMARK 921   NORMALIZED FREE ENERGY PREDICTED BY IDOCK:   -2.94 KCAL/MOL
REMARK 922        TOTAL FREE ENERGY PREDICTED BY IDOCK:   -3.70 KCAL/MOL
REMARK 923 INTER-LIGAND FREE ENERGY PREDICTED BY IDOCK:   -3.42 KCAL/MOL
REMARK 924 INTRA-LIGAND FREE ENERGY PREDICTED BY IDOCK:   -0.28 KCAL/MOL
REMARK 927      BINDING AFFINITY PREDICTED BY RF-SCORE:    0.00 PKD
ROOT
HETATM    1  O   UNL     1     -12.672  14.254  73.301  1.00  0.00    -0.397 OA 
HETATM    2  S   UNL     1     -13.176  14.965  72.149  1.00  0.00    -0.400 S  
HETATM    3  C   UNL     1     -11.873  15.928  71.423  1.00  0.00    -0.463 C  
HETATM    4  O   UNL     1     -14.382  15.762  72.226  1.00  0.00    -0.494 OA 
HETATM    5  C   UNL     1     -10.784  15.001  70.913  1.00  0.00     0.068 C  
HETATM    6  N   UNL     1     -11.212  13.972  69.946  1.00  0.00    -0.138 NA 
HETATM    7  N   UNL     1     -13.429  13.825  70.936  1.00  0.00    -0.033 N  
HETATM    8  C   UNL     1     -12.223  13.106  70.545  1.00  0.00    -0.328 C  
HETATM    9  H   UNL     1     -14.342  13.654  70.515  1.00  0.00     0.000 HD 
ENDROOT
BRANCH   6  10
HETATM   10  C   UNL     1     -11.657  14.495  68.652  1.00  0.00    -0.315 C  
BRANCH  10  11
HETATM   11  N   UNL     1     -10.699  14.174  67.600  1.00  0.00    -0.256 NA 
HETATM   12  C   UNL     1     -11.169  13.247  66.562  1.00  0.00    -0.304 C  
HETATM   13  C   UNL     1     -12.124  13.796  65.511  1.00  0.00    -0.410 C  
HETATM   14  S   UNL     1     -11.535  15.329  64.832  1.00  0.00    -0.289 S  
HETATM   15  O   UNL     1     -12.673  16.088  64.363  1.00  0.00    -0.058 OA 
HETATM   16  N   UNL     1     -10.994  16.109  66.201  1.00  0.00    -0.120 N  
HETATM   17  O   UNL     1     -10.395  15.062  63.983  1.00  0.00     0.766 OA 
HETATM   18  H   UNL     1     -11.290  17.054  66.445  1.00  0.00     0.000 HD 
HETATM   19  C   UNL     1     -10.078  15.352  67.018  1.00  0.00    -0.249 C  
ENDBRANCH  10  11
ENDBRANCH   6  10
TORSDOF 2
ENDMDL
MODEL      152
REMARK 921   NORMALIZED FREE ENERGY PREDICTED BY IDOCK:   -2.94 KCAL/MOL
REMARK 922        TOTAL FREE ENERGY PREDICTED BY IDOCK:   -3.69 KCAL/MOL
REMARK 923 INTER-LIGAND FREE ENERGY PREDICTED BY IDOCK:   -3.37 KCAL/MOL
REMARK 924 INTRA-LIGAND FREE ENERGY PREDICTED BY IDOCK:   -0.32 KCAL/MOL
REMARK 927      BINDING AFFINITY PREDICTED BY RF-SCORE:    0.00 PKD
ROOT
HETATM    1  O   UNL     1     -10.836  10.564  70.106  1.00  0.00    -0.283 OA 
HETATM    2  S   UNL     1     -11.110  10.849  68.717  1.00  0.00    -0.281 S  
HETATM    3  C   UNL     1      -9.655  11.504  67.941  1.00  0.00    -0.177 C  
HETATM    4  O   UNL     1     -12.263  11.632  68.324  1.00  0.00    -0.525 OA 
HETATM    5  C   UNL     1      -8.558  10.453  67.955  1.00  0.00    -0.118 C  
HETATM    6  N   UNL     1      -8.894   9.161  67.326  1.00  0.00    -0.124 NA 
HETATM    7  N   UNL     1     -11.242   9.369  67.925  1.00  0.00    -0.467 N  
HETATM    8  C   UNL     1     -10.037   8.553  68.000  1.00  0.00    -0.200 C  
HETATM    9  H   UNL     1     -12.088   9.071  67.439  1.00  0.00     0.000 HD 
ENDROOT
BRANCH   6  10
HETATM   10  C   UNL     1      -9.100   9.221  65.877  1.00  0.00    -0.197 C  
BRANCH  10  11
HETATM   11  N   UNL     1      -7.838   9.075  65.161  1.00  0.00    -0.104 NA 
HETATM   12  C   UNL     1      -6.944   8.014  65.641  1.00  0.00    -0.063 C  
HETATM   13  C   UNL     1      -7.301   6.579  65.281  1.00  0.00    -0.077 C  
HETATM   14  S   UNL     1      -7.677   6.415  63.552  1.00  0.00    -0.106 S  
HETATM   15  O   UNL     1      -8.569   5.288  63.383  1.00  0.00    -0.120 OA 
HETATM   16  N   UNL     1      -8.601   7.776  63.286  1.00  0.00    -0.346 N  
HETATM   17  O   UNL     1      -6.456   6.541  62.789  1.00  0.00    -0.033 OA 
HETATM   18  H   UNL     1      -9.522   7.735  62.848  1.00  0.00     0.000 HD 
HETATM   19  C   UNL     1      -8.006   9.016  63.719  1.00  0.00    -0.147 C  
ENDBRANCH  10  11
ENDBRANCH   6  10
TORSDOF 2
ENDMDL
MODEL      153
REMARK 921   NORMALIZED FREE ENERGY PREDICTED BY IDOCK:   -2.93 KCAL/MOL
REMARK 922        TOTAL FREE ENERGY PREDICTED BY IDOCK:   -3.68 KCAL/MOL
REMARK 923 INTER-LIGAND FREE ENERGY PREDICTED BY IDOCK:   -3.35 KCAL/MOL
REMARK 924 INTRA-LIGAND FREE ENERGY PREDICTED BY IDOCK:   -0.33 KCAL/MOL
REMARK 927      BINDING AFFINITY PREDICTED BY RF-SCORE:    0.00 PKD
ROOT
HETATM    1  O   UNL     1      -6.148  13.002  67.180  1.00  0.00    -0.307 OA 
HETATM    2  S   UNL     1      -7.577  12.953  67.386  1.00  0.00    -0.116 S  
HETATM    3  C   UNL     1      -8.229  11.451  66.701  1.00  0.00    -0.163 C  
HETATM    4  O   UNL     1      -8.428  14.065  67.015  1.00  0.00    -0.207 OA 
HETATM    5  C   UNL     1      -7.647  10.262  67.445  1.00  0.00    -0.094 C  
HETATM    6  N   UNL     1      -7.855  10.250  68.906  1.00  0.00    -0.097 NA 
HETATM    7  N   UNL     1      -7.830  12.679  69.027  1.00  0.00    -0.326 N  
HETATM    8  C   UNL     1      -7.251  11.432  69.511  1.00  0.00     0.025 C  
HETATM    9  H   UNL     1      -8.342  13.326  69.627  1.00  0.00     0.000 HD 
ENDROOT
BRANCH   6  10
HETATM   10  C   UNL     1      -9.249  10.090  69.325  1.00  0.00    -0.203 C  
BRANCH  10  11
HETATM   11  N   UNL     1      -9.335   9.424  70.620  1.00  0.00    -0.260 NA 
HETATM   12  C   UNL     1     -10.659   9.416  71.254  1.00  0.00    -0.330 C  
HETATM   13  C   UNL     1     -11.697   8.450  70.701  1.00  0.00    -0.147 C  
HETATM   14  S   UNL     1     -11.029   6.814  70.511  1.00  0.00    -0.301 S  
HETATM   15  O   UNL     1     -11.766   6.138  69.466  1.00  0.00    -0.298 OA 
HETATM   16  N   UNL     1      -9.526   7.145  69.873  1.00  0.00    -0.154 N  
HETATM   17  O   UNL     1     -10.846   6.224  71.818  1.00  0.00    -0.231 OA 
HETATM   18  H   UNL     1      -9.185   6.705  69.018  1.00  0.00     0.000 HD 
HETATM   19  C   UNL     1      -8.740   8.098  70.617  1.00  0.00    -0.135 C  
ENDBRANCH  10  11
ENDBRANCH   6  10
TORSDOF 2
ENDMDL
MODEL      154
REMARK 921   NORMALIZED FREE ENERGY PREDICTED BY IDOCK:   -2.93 KCAL/MOL
REMARK 922        TOTAL FREE ENERGY PREDICTED BY IDOCK:   -3.68 KCAL/MOL
REMARK 923 INTER-LIGAND FREE ENERGY PREDICTED BY IDOCK:   -3.30 KCAL/MOL
REMARK 924 INTRA-LIGAND FREE ENERGY PREDICTED BY IDOCK:   -0.38 KCAL/MOL
REMARK 927      BINDING AFFINITY PREDICTED BY RF-SCORE:    0.00 PKD
ROOT
HETATM    1  O   UNL     1      -9.676  12.237  67.898  1.00  0.00    -0.190 OA 
HETATM    2  S   UNL     1     -10.568  11.518  67.018  1.00  0.00    -0.255 S  
HETATM    3  C   UNL     1      -9.634  10.417  65.987  1.00  0.00    -0.201 C  
HETATM    4  O   UNL     1     -11.555  12.213  66.217  1.00  0.00    -0.369 OA 
HETATM    5  C   UNL     1      -8.951   9.372  66.853  1.00  0.00    -0.131 C  
HETATM    6  N   UNL     1      -9.836   8.575  67.724  1.00  0.00    -0.166 NA 
HETATM    7  N   UNL     1     -11.411  10.412  67.967  1.00  0.00    -0.484 N  
HETATM    8  C   UNL     1     -10.555   9.448  68.646  1.00  0.00    -0.200 C  
HETATM    9  H   UNL     1     -12.427  10.417  68.058  1.00  0.00     0.000 HD 
ENDROOT
BRANCH   6  10
HETATM   10  C   UNL     1     -10.752   7.681  67.011  1.00  0.00    -0.270 C  
BRANCH  10  11
HETATM   11  N   UNL     1     -10.666   6.320  67.529  1.00  0.00    -0.280 NA 
HETATM   12  C   UNL     1     -10.819   5.244  66.542  1.00  0.00    -0.121 C  
HETATM   13  C   UNL     1      -9.638   4.959  65.624  1.00  0.00    -0.155 C  
HETATM   14  S   UNL     1      -8.120   4.826  66.539  1.00  0.00    -0.107 S  
HETATM   15  O   UNL     1      -7.026   5.179  65.662  1.00  0.00    -0.063 OA 
HETATM   16  N   UNL     1      -8.273   6.088  67.616  1.00  0.00    -0.109 N  
HETATM   17  O   UNL     1      -8.127   3.589  67.289  1.00  0.00    -0.082 OA 
HETATM   18  H   UNL     1      -7.549   6.798  67.732  1.00  0.00     0.000 HD 
HETATM   19  C   UNL     1      -9.501   6.106  68.371  1.00  0.00    -0.118 C  
ENDBRANCH  10  11
ENDBRANCH   6  10
TORSDOF 2
ENDMDL
MODEL      155
REMARK 921   NORMALIZED FREE ENERGY PREDICTED BY IDOCK:   -2.93 KCAL/MOL
REMARK 922        TOTAL FREE ENERGY PREDICTED BY IDOCK:   -3.68 KCAL/MOL
REMARK 923 INTER-LIGAND FREE ENERGY PREDICTED BY IDOCK:   -3.50 KCAL/MOL
REMARK 924 INTRA-LIGAND FREE ENERGY PREDICTED BY IDOCK:   -0.17 KCAL/MOL
REMARK 927      BINDING AFFINITY PREDICTED BY RF-SCORE:    0.00 PKD
ROOT
HETATM    1  O   UNL     1      -6.474  15.372  67.644  1.00  0.00    -0.148 OA 
HETATM    2  S   UNL     1      -7.026  14.760  68.830  1.00  0.00    -0.119 S  
HETATM    3  C   UNL     1      -8.759  15.125  68.942  1.00  0.00    -0.205 C  
HETATM    4  O   UNL     1      -6.408  14.941  70.127  1.00  0.00    -0.158 OA 
HETATM    5  C   UNL     1      -9.484  14.503  67.761  1.00  0.00    -0.210 C  
HETATM    6  N   UNL     1      -9.313  13.047  67.592  1.00  0.00    -0.194 NA 
HETATM    7  N   UNL     1      -7.078  13.100  68.551  1.00  0.00    -0.099 N  
HETATM    8  C   UNL     1      -7.902  12.723  67.409  1.00  0.00    -0.172 C  
HETATM    9  H   UNL     1      -6.579  12.423  69.127  1.00  0.00     0.000 HD 
ENDROOT
BRANCH   6  10
HETATM   10  C   UNL     1      -9.914  12.234  68.651  1.00  0.00    -0.118 C  
BRANCH  10  11
HETATM   11  N   UNL     1      -9.834  10.813  68.331  1.00  0.00    -0.163 NA 
HETATM   12  C   UNL     1      -8.917  10.016  69.156  1.00  0.00    -0.169 C  
HETATM   13  C   UNL     1      -9.369   9.662  70.565  1.00  0.00    -0.166 C  
HETATM   14  S   UNL     1     -11.023   9.012  70.575  1.00  0.00    -0.262 S  
HETATM   15  O   UNL     1     -11.610   9.279  71.870  1.00  0.00    -0.372 OA 
HETATM   16  N   UNL     1     -11.785  10.038  69.506  1.00  0.00    -0.467 N  
HETATM   17  O   UNL     1     -11.014   7.686  70.001  1.00  0.00    -0.255 OA 
HETATM   18  H   UNL     1     -12.648  10.530  69.740  1.00  0.00     0.000 HD 
HETATM   19  C   UNL     1     -11.138  10.180  68.225  1.00  0.00    -0.227 C  
ENDBRANCH  10  11
ENDBRANCH   6  10
TORSDOF 2
ENDMDL
MODEL      156
REMARK 921   NORMALIZED FREE ENERGY PREDICTED BY IDOCK:   -2.88 KCAL/MOL
REMARK 922        TOTAL FREE ENERGY PREDICTED BY IDOCK:   -3.62 KCAL/MOL
REMARK 923 INTER-LIGAND FREE ENERGY PREDICTED BY IDOCK:   -3.34 KCAL/MOL
REMARK 924 INTRA-LIGAND FREE ENERGY PREDICTED BY IDOCK:   -0.28 KCAL/MOL
REMARK 927      BINDING AFFINITY PREDICTED BY RF-SCORE:    0.00 PKD
ROOT
HETATM    1  O   UNL     1      -8.876   8.521  73.517  1.00  0.00    -0.279 OA 
HETATM    2  S   UNL     1      -9.875   7.934  72.655  1.00  0.00    -0.281 S  
HETATM    3  C   UNL     1     -10.322   9.088  71.383  1.00  0.00    -0.326 C  
HETATM    4  O   UNL     1     -11.071   7.322  73.197  1.00  0.00    -0.331 OA 
HETATM    5  C   UNL     1      -9.113   9.370  70.509  1.00  0.00    -0.256 C  
HETATM    6  N   UNL     1      -8.479   8.194  69.884  1.00  0.00    -0.123 NA 
HETATM    7  N   UNL     1      -9.103   6.750  71.739  1.00  0.00    -0.140 N  
HETATM    8  C   UNL     1      -8.020   7.263  70.909  1.00  0.00    -0.098 C  
HETATM    9  H   UNL     1      -9.369   5.766  71.764  1.00  0.00     0.000 HD 
ENDROOT
BRANCH   6  10
HETATM   10  C   UNL     1      -9.303   7.516  68.879  1.00  0.00    -0.142 C  
BRANCH  10  11
HETATM   11  N   UNL     1      -8.734   7.669  67.545  1.00  0.00    -0.125 NA 
HETATM   12  C   UNL     1      -7.579   6.817  67.235  1.00  0.00    -0.104 C  
HETATM   13  C   UNL     1      -7.849   5.348  66.940  1.00  0.00    -0.101 C  
HETATM   14  S   UNL     1      -9.168   5.151  65.765  1.00  0.00    -0.145 S  
HETATM   15  O   UNL     1      -9.786   3.862  65.984  1.00  0.00    -0.191 OA 
HETATM   16  N   UNL     1     -10.264   6.283  66.308  1.00  0.00    -0.421 N  
HETATM   17  O   UNL     1      -8.704   5.562  64.459  1.00  0.00    -0.101 OA 
HETATM   18  H   UNL     1     -11.239   6.053  66.498  1.00  0.00     0.000 HD 
HETATM   19  C   UNL     1      -9.734   7.612  66.492  1.00  0.00    -0.181 C  
ENDBRANCH  10  11
ENDBRANCH   6  10
TORSDOF 2
ENDMDL
MODEL      157
REMARK 921   NORMALIZED FREE ENERGY PREDICTED BY IDOCK:   -2.86 KCAL/MOL
REMARK 922        TOTAL FREE ENERGY PREDICTED BY IDOCK:   -3.61 KCAL/MOL
REMARK 923 INTER-LIGAND FREE ENERGY PREDICTED BY IDOCK:   -3.22 KCAL/MOL
REMARK 924 INTRA-LIGAND FREE ENERGY PREDICTED BY IDOCK:   -0.38 KCAL/MOL
REMARK 927      BINDING AFFINITY PREDICTED BY RF-SCORE:    0.00 PKD
ROOT
HETATM    1  O   UNL     1      -6.373  15.446  69.485  1.00  0.00    -0.128 OA 
HETATM    2  S   UNL     1      -6.646  15.211  68.086  1.00  0.00    -0.138 S  
HETATM    3  C   UNL     1      -6.385  13.497  67.705  1.00  0.00    -0.161 C  
HETATM    4  O   UNL     1      -6.048  16.033  67.055  1.00  0.00    -0.324 OA 
HETATM    5  C   UNL     1      -7.376  12.650  68.484  1.00  0.00    -0.115 C  
HETATM    6  N   UNL     1      -8.801  12.972  68.281  1.00  0.00    -0.189 NA 
HETATM    7  N   UNL     1      -8.313  15.322  67.883  1.00  0.00    -0.144 N  
HETATM    8  C   UNL     1      -9.066  14.353  68.670  1.00  0.00    -0.178 C  
HETATM    9  H   UNL     1      -8.755  16.003  67.266  1.00  0.00     0.000 HD 
ENDROOT
BRANCH   6  10
HETATM   10  C   UNL     1      -9.306  12.691  66.935  1.00  0.00    -0.228 C  
BRANCH  10  11
HETATM   11  N   UNL     1     -10.420  11.750  66.980  1.00  0.00    -0.214 NA 
HETATM   12  C   UNL     1     -10.712  11.037  65.730  1.00  0.00    -0.148 C  
HETATM   13  C   UNL     1      -9.781   9.899  65.336  1.00  0.00    -0.306 C  
HETATM   14  S   UNL     1      -9.497   8.790  66.696  1.00  0.00    -0.223 S  
HETATM   15  O   UNL     1      -8.212   8.154  66.504  1.00  0.00    -0.102 OA 
HETATM   16  N   UNL     1      -9.296   9.861  67.957  1.00  0.00    -0.131 N  
HETATM   17  O   UNL     1     -10.698   8.024  66.940  1.00  0.00    -0.322 OA 
HETATM   18  H   UNL     1      -8.487   9.829  68.578  1.00  0.00     0.000 HD 
HETATM   19  C   UNL     1     -10.348  10.836  68.107  1.00  0.00    -0.171 C  
ENDBRANCH  10  11
ENDBRANCH   6  10
TORSDOF 2
ENDMDL
MODEL      158
REMARK 921   NORMALIZED FREE ENERGY PREDICTED BY IDOCK:   -2.84 KCAL/MOL
REMARK 922        TOTAL FREE ENERGY PREDICTED BY IDOCK:   -3.58 KCAL/MOL
REMARK 923 INTER-LIGAND FREE ENERGY PREDICTED BY IDOCK:   -3.29 KCAL/MOL
REMARK 924 INTRA-LIGAND FREE ENERGY PREDICTED BY IDOCK:   -0.29 KCAL/MOL
REMARK 927      BINDING AFFINITY PREDICTED BY RF-SCORE:    0.00 PKD
ROOT
HETATM    1  O   UNL     1     -11.121   9.468  71.183  1.00  0.00    -0.322 OA 
HETATM    2  S   UNL     1     -10.017   8.537  71.236  1.00  0.00    -0.243 S  
HETATM    3  C   UNL     1     -10.633   6.893  71.500  1.00  0.00    -0.217 C  
HETATM    4  O   UNL     1      -8.877   8.772  72.098  1.00  0.00    -0.345 OA 
HETATM    5  C   UNL     1     -11.487   6.478  70.315  1.00  0.00    -0.411 C  
HETATM    6  N   UNL     1     -10.833   6.536  68.994  1.00  0.00    -0.278 NA 
HETATM    7  N   UNL     1      -9.416   8.394  69.671  1.00  0.00    -0.165 N  
HETATM    8  C   UNL     1     -10.393   7.898  68.709  1.00  0.00    -0.203 C  
HETATM    9  H   UNL     1      -8.457   8.632  69.419  1.00  0.00     0.000 HD 
ENDROOT
BRANCH   6  10
HETATM   10  C   UNL     1      -9.745   5.574  68.808  1.00  0.00    -0.143 C  
BRANCH  10  11
HETATM   11  N   UNL     1     -10.132   4.518  67.878  1.00  0.00    -0.043 NA 
HETATM   12  C   UNL     1     -10.359   4.934  66.488  1.00  0.00    -0.270 C  
HETATM   13  C   UNL     1      -9.134   5.224  65.633  1.00  0.00    -0.153 C  
HETATM   14  S   UNL     1      -7.928   3.924  65.760  1.00  0.00    -0.093 S  
HETATM   15  O   UNL     1      -6.623   4.483  65.486  1.00  0.00    -0.042 OA 
HETATM   16  N   UNL     1      -7.958   3.607  67.396  1.00  0.00    -0.082 N  
HETATM   17  O   UNL     1      -8.419   2.755  65.065  1.00  0.00    -0.091 OA 
HETATM   18  H   UNL     1      -7.112   3.594  67.966  1.00  0.00     0.000 HD 
HETATM   19  C   UNL     1      -9.266   3.354  67.948  1.00  0.00    -0.189 C  
ENDBRANCH  10  11
ENDBRANCH   6  10
TORSDOF 2
ENDMDL
MODEL      159
REMARK 921   NORMALIZED FREE ENERGY PREDICTED BY IDOCK:   -2.81 KCAL/MOL
REMARK 922        TOTAL FREE ENERGY PREDICTED BY IDOCK:   -3.55 KCAL/MOL
REMARK 923 INTER-LIGAND FREE ENERGY PREDICTED BY IDOCK:   -3.98 KCAL/MOL
REMARK 924 INTRA-LIGAND FREE ENERGY PREDICTED BY IDOCK:    0.43 KCAL/MOL
REMARK 927      BINDING AFFINITY PREDICTED BY RF-SCORE:    0.00 PKD
ROOT
HETATM    1  O   UNL     1     -11.148  16.488  67.915  1.00  0.00    -0.319 OA 
HETATM    2  S   UNL     1     -11.384  15.086  68.169  1.00  0.00    -0.341 S  
HETATM    3  C   UNL     1     -12.361  14.396  66.858  1.00  0.00    -0.130 C  
HETATM    4  O   UNL     1     -11.893  14.629  69.446  1.00  0.00    -0.296 OA 
HETATM    5  C   UNL     1     -11.583  14.471  65.556  1.00  0.00    -0.350 C  
HETATM    6  N   UNL     1     -10.258  13.822  65.556  1.00  0.00    -0.313 NA 
HETATM    7  N   UNL     1      -9.924  14.286  67.920  1.00  0.00    -0.226 N  
HETATM    8  C   UNL     1      -9.400  14.429  66.567  1.00  0.00    -0.278 C  
HETATM    9  H   UNL     1      -9.450  13.752  68.648  1.00  0.00     0.000 HD 
ENDROOT
BRANCH   6  10
HETATM   10  C   UNL     1     -10.291  12.363  65.690  1.00  0.00    -0.258 C  
BRANCH  10  11
HETATM   11  N   UNL     1      -9.607  11.933  66.904  1.00  0.00    -0.196 NA 
HETATM   12  C   UNL     1     -10.460  11.375  67.962  1.00  0.00    -0.188 C  
HETATM   13  C   UNL     1     -10.984   9.959  67.768  1.00  0.00    -0.217 C  
HETATM   14  S   UNL     1      -9.685   8.844  67.289  1.00  0.00    -0.197 S  
HETATM   15  O   UNL     1     -10.272   7.754  66.541  1.00  0.00    -0.236 OA 
HETATM   16  N   UNL     1      -8.852   9.767  66.179  1.00  0.00    -0.138 N  
HETATM   17  O   UNL     1      -8.819   8.612  68.423  1.00  0.00    -0.140 OA 
HETATM   18  H   UNL     1      -8.633   9.429  65.241  1.00  0.00     0.000 HD 
HETATM   19  C   UNL     1      -8.463  11.077  66.639  1.00  0.00    -0.153 C  
ENDBRANCH  10  11
ENDBRANCH   6  10
TORSDOF 2
ENDMDL
MODEL      160
REMARK 921   NORMALIZED FREE ENERGY PREDICTED BY IDOCK:   -2.81 KCAL/MOL
REMARK 922        TOTAL FREE ENERGY PREDICTED BY IDOCK:   -3.55 KCAL/MOL
REMARK 923 INTER-LIGAND FREE ENERGY PREDICTED BY IDOCK:   -3.27 KCAL/MOL
REMARK 924 INTRA-LIGAND FREE ENERGY PREDICTED BY IDOCK:   -0.28 KCAL/MOL
REMARK 927      BINDING AFFINITY PREDICTED BY RF-SCORE:    0.00 PKD
ROOT
HETATM    1  O   UNL     1     -11.102  10.340  67.361  1.00  0.00    -0.291 OA 
HETATM    2  S   UNL     1     -10.445   9.103  67.715  1.00  0.00    -0.231 S  
HETATM    3  C   UNL     1      -8.795   9.440  68.274  1.00  0.00    -0.128 C  
HETATM    4  O   UNL     1     -10.428   7.974  66.808  1.00  0.00    -0.330 OA 
HETATM    5  C   UNL     1      -8.852  10.274  69.543  1.00  0.00    -0.148 C  
HETATM    6  N   UNL     1      -9.626   9.699  70.659  1.00  0.00    -0.218 NA 
HETATM    7  N   UNL     1     -11.151   8.560  69.144  1.00  0.00    -0.423 N  
HETATM    8  C   UNL     1     -11.013   9.491  70.257  1.00  0.00    -0.269 C  
HETATM    9  H   UNL     1     -11.629   7.663  69.223  1.00  0.00     0.000 HD 
ENDROOT
BRANCH   6  10
HETATM   10  C   UNL     1      -9.052   8.483  71.240  1.00  0.00    -0.196 C  
BRANCH  10  11
HETATM   11  N   UNL     1      -8.283   8.789  72.442  1.00  0.00    -0.390 NA 
HETATM   12  C   UNL     1      -8.727   8.130  73.677  1.00  0.00    -0.241 C  
HETATM   13  C   UNL     1      -8.387   6.656  73.847  1.00  0.00    -0.119 C  
HETATM   14  S   UNL     1      -6.676   6.336  73.488  1.00  0.00    -0.075 S  
HETATM   15  O   UNL     1      -6.549   4.961  73.057  1.00  0.00    -0.059 OA 
HETATM   16  N   UNL     1      -6.446   7.268  72.126  1.00  0.00    -0.047 N  
HETATM   17  O   UNL     1      -5.860   6.880  74.551  1.00  0.00    -0.069 OA 
HETATM   18  H   UNL     1      -6.048   6.890  71.266  1.00  0.00     0.000 HD 
HETATM   19  C   UNL     1      -6.850   8.647  72.250  1.00  0.00    -0.037 C  
ENDBRANCH  10  11
ENDBRANCH   6  10
TORSDOF 2
ENDMDL
MODEL      161
REMARK 921   NORMALIZED FREE ENERGY PREDICTED BY IDOCK:   -2.80 KCAL/MOL
REMARK 922        TOTAL FREE ENERGY PREDICTED BY IDOCK:   -3.54 KCAL/MOL
REMARK 923 INTER-LIGAND FREE ENERGY PREDICTED BY IDOCK:   -3.72 KCAL/MOL
REMARK 924 INTRA-LIGAND FREE ENERGY PREDICTED BY IDOCK:    0.18 KCAL/MOL
REMARK 927      BINDING AFFINITY PREDICTED BY RF-SCORE:    0.00 PKD
ROOT
HETATM    1  O   UNL     1      -8.775   8.747  72.753  1.00  0.00    -0.398 OA 
HETATM    2  S   UNL     1      -9.844   7.780  72.665  1.00  0.00    -0.251 S  
HETATM    3  C   UNL     1     -11.137   8.411  71.626  1.00  0.00    -0.278 C  
HETATM    4  O   UNL     1     -10.422   7.188  73.853  1.00  0.00    -0.370 OA 
HETATM    5  C   UNL     1     -10.607   8.595  70.215  1.00  0.00    -0.223 C  
HETATM    6  N   UNL     1     -10.028   7.396  69.580  1.00  0.00    -0.179 NA 
HETATM    7  N   UNL     1      -9.281   6.507  71.718  1.00  0.00    -0.149 N  
HETATM    8  C   UNL     1      -8.903   6.902  70.367  1.00  0.00    -0.152 C  
HETATM    9  H   UNL     1      -9.212   5.548  72.058  1.00  0.00     0.000 HD 
ENDROOT
BRANCH   6  10
HETATM   10  C   UNL     1     -10.990   6.327  69.299  1.00  0.00    -0.369 C  
BRANCH  10  11
HETATM   11  N   UNL     1     -11.029   6.019  67.873  1.00  0.00    -0.294 NA 
HETATM   12  C   UNL     1     -10.944   7.168  66.963  1.00  0.00    -0.234 C  
HETATM   13  C   UNL     1      -9.579   7.815  66.775  1.00  0.00    -0.212 C  
HETATM   14  S   UNL     1      -8.322   6.601  66.451  1.00  0.00    -0.126 S  
HETATM   15  O   UNL     1      -7.050   7.132  66.891  1.00  0.00    -0.077 OA 
HETATM   16  N   UNL     1      -8.726   5.410  67.543  1.00  0.00    -0.108 N  
HETATM   17  O   UNL     1      -8.507   6.074  65.118  1.00  0.00    -0.148 OA 
HETATM   18  H   UNL     1      -8.050   5.019  68.201  1.00  0.00     0.000 HD 
HETATM   19  C   UNL     1     -10.098   4.971  67.493  1.00  0.00    -0.154 C  
ENDBRANCH  10  11
ENDBRANCH   6  10
TORSDOF 2
ENDMDL
MODEL      162
REMARK 921   NORMALIZED FREE ENERGY PREDICTED BY IDOCK:   -2.78 KCAL/MOL
REMARK 922        TOTAL FREE ENERGY PREDICTED BY IDOCK:   -3.51 KCAL/MOL
REMARK 923 INTER-LIGAND FREE ENERGY PREDICTED BY IDOCK:   -3.24 KCAL/MOL
REMARK 924 INTRA-LIGAND FREE ENERGY PREDICTED BY IDOCK:   -0.28 KCAL/MOL
REMARK 927      BINDING AFFINITY PREDICTED BY RF-SCORE:    0.00 PKD
ROOT
HETATM    1  O   UNL     1     -10.730   4.735  66.029  1.00  0.00    -0.319 OA 
HETATM    2  S   UNL     1      -9.733   5.646  66.541  1.00  0.00    -0.163 S  
HETATM    3  C   UNL     1     -10.499   6.823  67.626  1.00  0.00    -0.229 C  
HETATM    4  O   UNL     1      -8.814   6.329  65.655  1.00  0.00    -0.147 OA 
HETATM    5  C   UNL     1     -11.078   6.099  68.829  1.00  0.00    -0.319 C  
HETATM    6  N   UNL     1     -10.130   5.279  69.608  1.00  0.00    -0.234 NA 
HETATM    7  N   UNL     1      -8.792   4.782  67.638  1.00  0.00    -0.104 N  
HETATM    8  C   UNL     1      -9.547   4.243  68.762  1.00  0.00    -0.149 C  
HETATM    9  H   UNL     1      -7.787   4.649  67.526  1.00  0.00     0.000 HD 
ENDROOT
BRANCH   6  10
HETATM   10  C   UNL     1      -9.094   6.042  70.308  1.00  0.00    -0.151 C  
BRANCH  10  11
HETATM   11  N   UNL     1      -9.364   6.102  71.740  1.00  0.00    -0.151 NA 
HETATM   12  C   UNL     1      -8.286   5.634  72.620  1.00  0.00    -0.117 C  
HETATM   13  C   UNL     1      -7.091   6.556  72.818  1.00  0.00    -0.081 C  
HETATM   14  S   UNL     1      -7.604   8.214  73.201  1.00  0.00    -0.131 S  
HETATM   15  O   UNL     1      -6.564   9.124  72.772  1.00  0.00    -0.316 OA 
HETATM   16  N   UNL     1      -8.866   8.423  72.133  1.00  0.00    -0.200 N  
HETATM   17  O   UNL     1      -8.138   8.246  74.544  1.00  0.00    -0.252 OA 
HETATM   18  H   UNL     1      -8.921   9.221  71.500  1.00  0.00     0.000 HD 
HETATM   19  C   UNL     1      -9.875   7.394  72.167  1.00  0.00    -0.172 C  
ENDBRANCH  10  11
ENDBRANCH   6  10
TORSDOF 2
ENDMDL
MODEL      163
REMARK 921   NORMALIZED FREE ENERGY PREDICTED BY IDOCK:   -2.78 KCAL/MOL
REMARK 922        TOTAL FREE ENERGY PREDICTED BY IDOCK:   -3.51 KCAL/MOL
REMARK 923 INTER-LIGAND FREE ENERGY PREDICTED BY IDOCK:   -3.04 KCAL/MOL
REMARK 924 INTRA-LIGAND FREE ENERGY PREDICTED BY IDOCK:   -0.47 KCAL/MOL
REMARK 927      BINDING AFFINITY PREDICTED BY RF-SCORE:    0.00 PKD
ROOT
HETATM    1  O   UNL     1     -12.363   8.665  72.483  1.00  0.00    -0.390 OA 
HETATM    2  S   UNL     1     -11.198   7.812  72.470  1.00  0.00    -0.389 S  
HETATM    3  C   UNL     1     -11.564   6.311  71.597  1.00  0.00    -0.297 C  
HETATM    4  O   UNL     1     -10.480   7.501  73.689  1.00  0.00    -0.349 OA 
HETATM    5  C   UNL     1     -11.876   6.634  70.146  1.00  0.00    -0.284 C  
HETATM    6  N   UNL     1     -10.832   7.372  69.409  1.00  0.00    -0.210 NA 
HETATM    7  N   UNL     1     -10.083   8.514  71.422  1.00  0.00    -0.213 N  
HETATM    8  C   UNL     1     -10.570   8.654  70.055  1.00  0.00    -0.227 C  
HETATM    9  H   UNL     1      -9.154   8.814  71.716  1.00  0.00     0.000 HD 
ENDROOT
BRANCH   6  10
HETATM   10  C   UNL     1      -9.593   6.622  69.189  1.00  0.00    -0.135 C  
BRANCH  10  11
HETATM   11  N   UNL     1      -8.478   7.521  68.915  1.00  0.00    -0.129 NA 
HETATM   12  C   UNL     1      -7.225   7.230  69.623  1.00  0.00    -0.079 C  
HETATM   13  C   UNL     1      -6.391   6.059  69.122  1.00  0.00    -0.041 C  
HETATM   14  S   UNL     1      -6.171   6.124  67.359  1.00  0.00    -0.030 S  
HETATM   15  O   UNL     1      -5.957   4.778  66.876  1.00  0.00    -0.025 OA 
HETATM   16  N   UNL     1      -7.698   6.558  66.853  1.00  0.00    -0.098 N  
HETATM   17  O   UNL     1      -5.264   7.203  67.036  1.00  0.00    -0.019 OA 
HETATM   18  H   UNL     1      -8.207   6.034  66.141  1.00  0.00     0.000 HD 
HETATM   19  C   UNL     1      -8.249   7.726  67.495  1.00  0.00    -0.124 C  
ENDBRANCH  10  11
ENDBRANCH   6  10
TORSDOF 2
ENDMDL
MODEL      164
REMARK 921   NORMALIZED FREE ENERGY PREDICTED BY IDOCK:   -2.75 KCAL/MOL
REMARK 922        TOTAL FREE ENERGY PREDICTED BY IDOCK:   -3.48 KCAL/MOL
REMARK 923 INTER-LIGAND FREE ENERGY PREDICTED BY IDOCK:   -3.20 KCAL/MOL
REMARK 924 INTRA-LIGAND FREE ENERGY PREDICTED BY IDOCK:   -0.28 KCAL/MOL
REMARK 927      BINDING AFFINITY PREDICTED BY RF-SCORE:    0.00 PKD
ROOT
HETATM    1  O   UNL     1     -12.579  11.395  72.123  1.00  0.00    -0.018 OA 
HETATM    2  S   UNL     1     -12.935  10.235  71.341  1.00  0.00    -0.459 S  
HETATM    3  C   UNL     1     -12.578  10.535  69.628  1.00  0.00     0.128 C  
HETATM    4  O   UNL     1     -14.239   9.617  71.463  1.00  0.00    -0.022 OA 
HETATM    5  C   UNL     1     -11.082  10.729  69.450  1.00  0.00    -0.268 C  
HETATM    6  N   UNL     1     -10.226   9.628  69.931  1.00  0.00    -0.228 NA 
HETATM    7  N   UNL     1     -11.802   9.039  71.687  1.00  0.00    -0.335 N  
HETATM    8  C   UNL     1     -10.432   9.414  71.359  1.00  0.00    -0.288 C  
HETATM    9  H   UNL     1     -12.052   8.135  72.089  1.00  0.00     0.000 HD 
ENDROOT
BRANCH   6  10
HETATM   10  C   UNL     1     -10.359   8.377  69.180  1.00  0.00    -0.220 C  
BRANCH  10  11
HETATM   11  N   UNL     1      -9.093   7.999  68.562  1.00  0.00    -0.137 NA 
HETATM   12  C   UNL     1      -8.560   6.683  68.938  1.00  0.00    -0.126 C  
HETATM   13  C   UNL     1      -9.216   5.457  68.318  1.00  0.00    -0.111 C  
HETATM   14  S   UNL     1      -9.399   5.635  66.559  1.00  0.00    -0.153 S  
HETATM   15  O   UNL     1     -10.515   4.820  66.132  1.00  0.00    -0.289 OA 
HETATM   16  N   UNL     1      -9.913   7.216  66.441  1.00  0.00    -0.435 N  
HETATM   17  O   UNL     1      -8.099   5.534  65.936  1.00  0.00    -0.104 OA 
HETATM   18  H   UNL     1     -10.752   7.481  65.924  1.00  0.00     0.000 HD 
HETATM   19  C   UNL     1      -9.087   8.182  67.121  1.00  0.00    -0.140 C  
ENDBRANCH  10  11
ENDBRANCH   6  10
TORSDOF 2
ENDMDL
MODEL      165
REMARK 921   NORMALIZED FREE ENERGY PREDICTED BY IDOCK:   -2.72 KCAL/MOL
REMARK 922        TOTAL FREE ENERGY PREDICTED BY IDOCK:   -3.44 KCAL/MOL
REMARK 923 INTER-LIGAND FREE ENERGY PREDICTED BY IDOCK:   -3.17 KCAL/MOL
REMARK 924 INTRA-LIGAND FREE ENERGY PREDICTED BY IDOCK:   -0.28 KCAL/MOL
REMARK 927      BINDING AFFINITY PREDICTED BY RF-SCORE:    0.00 PKD
ROOT
HETATM    1  O   UNL     1     -10.682   6.941  68.065  1.00  0.00    -0.211 OA 
HETATM    2  S   UNL     1      -9.534   7.817  68.075  1.00  0.00    -0.146 S  
HETATM    3  C   UNL     1      -9.436   8.694  66.536  1.00  0.00    -0.216 C  
HETATM    4  O   UNL     1      -8.219   7.329  68.440  1.00  0.00    -0.123 OA 
HETATM    5  C   UNL     1     -10.655   9.587  66.384  1.00  0.00    -0.013 C  
HETATM    6  N   UNL     1     -10.885  10.556  67.472  1.00  0.00    -0.284 NA 
HETATM    7  N   UNL     1      -9.887   9.081  69.129  1.00  0.00    -0.171 N  
HETATM    8  C   UNL     1     -11.058   9.859  68.742  1.00  0.00    -0.135 C  
HETATM    9  H   UNL     1      -9.332   9.285  69.960  1.00  0.00     0.000 HD 
ENDROOT
BRANCH   6  10
HETATM   10  C   UNL     1      -9.873  11.610  67.576  1.00  0.00    -0.188 C  
BRANCH  10  11
HETATM   11  N   UNL     1     -10.324  12.836  66.927  1.00  0.00    -0.237 NA 
HETATM   12  C   UNL     1     -10.964  13.829  67.799  1.00  0.00    -0.256 C  
HETATM   13  C   UNL     1     -10.061  14.654  68.706  1.00  0.00    -0.235 C  
HETATM   14  S   UNL     1      -8.682  15.330  67.811  1.00  0.00    -0.169 S  
HETATM   15  O   UNL     1      -7.593  15.537  68.740  1.00  0.00    -0.132 OA 
HETATM   16  N   UNL     1      -8.238  14.033  66.863  1.00  0.00    -0.396 N  
HETATM   17  O   UNL     1      -9.154  16.385  66.942  1.00  0.00    -0.200 OA 
HETATM   18  H   UNL     1      -7.281  13.681  66.832  1.00  0.00     0.000 HD 
HETATM   19  C   UNL     1      -9.304  13.445  66.090  1.00  0.00    -0.057 C  
ENDBRANCH  10  11
ENDBRANCH   6  10
TORSDOF 2
ENDMDL
MODEL      166
REMARK 921   NORMALIZED FREE ENERGY PREDICTED BY IDOCK:   -2.71 KCAL/MOL
REMARK 922        TOTAL FREE ENERGY PREDICTED BY IDOCK:   -3.44 KCAL/MOL
REMARK 923 INTER-LIGAND FREE ENERGY PREDICTED BY IDOCK:   -3.06 KCAL/MOL
REMARK 924 INTRA-LIGAND FREE ENERGY PREDICTED BY IDOCK:   -0.38 KCAL/MOL
REMARK 927      BINDING AFFINITY PREDICTED BY RF-SCORE:    0.00 PKD
ROOT
HETATM    1  O   UNL     1      -8.199   4.545  66.649  1.00  0.00    -0.103 OA 
HETATM    2  S   UNL     1      -9.478   5.074  67.062  1.00  0.00    -0.153 S  
HETATM    3  C   UNL     1      -9.776   4.661  68.762  1.00  0.00    -0.160 C  
HETATM    4  O   UNL     1     -10.678   4.832  66.287  1.00  0.00    -0.283 OA 
HETATM    5  C   UNL     1      -8.731   5.333  69.636  1.00  0.00    -0.101 C  
HETATM    6  N   UNL     1      -8.631   6.800  69.511  1.00  0.00    -0.132 NA 
HETATM    7  N   UNL     1      -9.308   6.745  67.176  1.00  0.00    -0.132 N  
HETATM    8  C   UNL     1      -8.299   7.168  68.139  1.00  0.00    -0.124 C  
HETATM    9  H   UNL     1      -9.859   7.400  66.622  1.00  0.00     0.000 HD 
ENDROOT
BRANCH   6  10
HETATM   10  C   UNL     1      -9.803   7.536  69.993  1.00  0.00    -0.180 C  
BRANCH  10  11
HETATM   11  N   UNL     1      -9.409   8.624  70.881  1.00  0.00    -0.173 NA 
HETATM   12  C   UNL     1     -10.307   8.888  72.013  1.00  0.00    -0.307 C  
HETATM   13  C   UNL     1     -10.256   7.924  73.190  1.00  0.00    -0.291 C  
HETATM   14  S   UNL     1      -8.584   7.618  73.710  1.00  0.00    -0.252 S  
HETATM   15  O   UNL     1      -8.532   6.315  74.336  1.00  0.00    -0.122 OA 
HETATM   16  N   UNL     1      -7.808   7.455  72.244  1.00  0.00    -0.094 N  
HETATM   17  O   UNL     1      -8.069   8.800  74.364  1.00  0.00    -0.320 OA 
HETATM   18  H   UNL     1      -7.223   6.650  72.022  1.00  0.00     0.000 HD 
HETATM   19  C   UNL     1      -8.025   8.534  71.312  1.00  0.00    -0.132 C  
ENDBRANCH  10  11
ENDBRANCH   6  10
TORSDOF 2
ENDMDL
MODEL      167
REMARK 921   NORMALIZED FREE ENERGY PREDICTED BY IDOCK:   -2.65 KCAL/MOL
REMARK 922        TOTAL FREE ENERGY PREDICTED BY IDOCK:   -3.37 KCAL/MOL
REMARK 923 INTER-LIGAND FREE ENERGY PREDICTED BY IDOCK:   -3.00 KCAL/MOL
REMARK 924 INTRA-LIGAND FREE ENERGY PREDICTED BY IDOCK:   -0.37 KCAL/MOL
REMARK 927      BINDING AFFINITY PREDICTED BY RF-SCORE:    0.00 PKD
ROOT
HETATM    1  O   UNL     1      -9.271  10.983  68.394  1.00  0.00    -0.161 OA 
HETATM    2  S   UNL     1      -8.421  11.783  67.543  1.00  0.00    -0.162 S  
HETATM    3  C   UNL     1      -9.402  12.585  66.301  1.00  0.00    -0.177 C  
HETATM    4  O   UNL     1      -7.228  11.229  66.937  1.00  0.00    -0.126 OA 
HETATM    5  C   UNL     1     -10.372  13.547  66.965  1.00  0.00    -0.252 C  
HETATM    6  N   UNL     1      -9.769  14.575  67.834  1.00  0.00    -0.215 NA 
HETATM    7  N   UNL     1      -7.926  13.112  68.450  1.00  0.00    -0.149 N  
HETATM    8  C   UNL     1      -9.026  13.946  68.920  1.00  0.00     0.104 C  
HETATM    9  H   UNL     1      -6.947  13.315  68.652  1.00  0.00     0.000 HD 
ENDROOT
BRANCH   6  10
HETATM   10  C   UNL     1      -8.949  15.565  67.131  1.00  0.00    -0.214 C  
BRANCH  10  11
HETATM   11  N   UNL     1      -7.980  16.179  68.032  1.00  0.00    -0.144 NA 
HETATM   12  C   UNL     1      -6.576  16.118  67.607  1.00  0.00    -0.155 C  
HETATM   13  C   UNL     1      -6.135  17.069  66.503  1.00  0.00    -0.156 C  
HETATM   14  S   UNL     1      -6.673  18.732  66.823  1.00  0.00    -0.195 S  
HETATM   15  O   UNL     1      -6.800  19.422  65.558  1.00  0.00    -0.270 OA 
HETATM   16  N   UNL     1      -8.227  18.477  67.365  1.00  0.00    -0.250 N  
HETATM   17  O   UNL     1      -5.897  19.278  67.914  1.00  0.00    -0.199 OA 
HETATM   18  H   UNL     1      -9.032  18.960  66.966  1.00  0.00     0.000 HD 
HETATM   19  C   UNL     1      -8.354  17.523  68.439  1.00  0.00    -0.278 C  
ENDBRANCH  10  11
ENDBRANCH   6  10
TORSDOF 2
ENDMDL
MODEL      168
REMARK 921   NORMALIZED FREE ENERGY PREDICTED BY IDOCK:   -2.64 KCAL/MOL
REMARK 922        TOTAL FREE ENERGY PREDICTED BY IDOCK:   -3.36 KCAL/MOL
REMARK 923 INTER-LIGAND FREE ENERGY PREDICTED BY IDOCK:   -3.51 KCAL/MOL
REMARK 924 INTRA-LIGAND FREE ENERGY PREDICTED BY IDOCK:    0.15 KCAL/MOL
REMARK 927      BINDING AFFINITY PREDICTED BY RF-SCORE:    0.00 PKD
ROOT
HETATM    1  O   UNL     1     -11.187   9.600  68.921  1.00  0.00    -0.115 OA 
HETATM    2  S   UNL     1     -11.424  10.021  70.282  1.00  0.00    -0.306 S  
HETATM    3  C   UNL     1     -12.577   8.917  71.058  1.00  0.00    -0.101 C  
HETATM    4  O   UNL     1     -11.779  11.390  70.594  1.00  0.00    -0.298 OA 
HETATM    5  C   UNL     1     -11.970   7.527  71.138  1.00  0.00    -0.308 C  
HETATM    6  N   UNL     1     -10.673   7.428  71.834  1.00  0.00    -0.213 NA 
HETATM    7  N   UNL     1     -10.029   9.673  71.157  1.00  0.00    -0.270 N  
HETATM    8  C   UNL     1      -9.677   8.259  71.165  1.00  0.00    -0.165 C  
HETATM    9  H   UNL     1      -9.480  10.387  71.636  1.00  0.00     0.000 HD 
ENDROOT
BRANCH   6  10
HETATM   10  C   UNL     1     -10.726   7.711  73.270  1.00  0.00    -0.350 C  
BRANCH  10  11
HETATM   11  N   UNL     1     -10.402   6.522  74.051  1.00  0.00    -0.341 NA 
HETATM   12  C   UNL     1     -10.910   5.248  73.526  1.00  0.00    -0.304 C  
HETATM   13  C   UNL     1     -10.190   4.644  72.328  1.00  0.00    -0.193 C  
HETATM   14  S   UNL     1      -8.429   4.621  72.570  1.00  0.00    -0.116 S  
HETATM   15  O   UNL     1      -7.790   4.651  71.273  1.00  0.00    -0.082 OA 
HETATM   16  N   UNL     1      -8.170   6.123  73.245  1.00  0.00    -0.114 N  
HETATM   17  O   UNL     1      -8.102   3.619  73.559  1.00  0.00    -0.077 OA 
HETATM   18  H   UNL     1      -7.481   6.777  72.875  1.00  0.00     0.000 HD 
HETATM   19  C   UNL     1      -8.992   6.431  74.389  1.00  0.00    -0.159 C  
ENDBRANCH  10  11
ENDBRANCH   6  10
TORSDOF 2
ENDMDL
MODEL      169
REMARK 921   NORMALIZED FREE ENERGY PREDICTED BY IDOCK:   -2.57 KCAL/MOL
REMARK 922        TOTAL FREE ENERGY PREDICTED BY IDOCK:   -3.28 KCAL/MOL
REMARK 923 INTER-LIGAND FREE ENERGY PREDICTED BY IDOCK:   -2.97 KCAL/MOL
REMARK 924 INTRA-LIGAND FREE ENERGY PREDICTED BY IDOCK:   -0.31 KCAL/MOL
REMARK 927      BINDING AFFINITY PREDICTED BY RF-SCORE:    0.00 PKD
ROOT
HETATM    1  O   UNL     1     -10.405   4.198  62.517  1.00  0.00    -0.182 OA 
HETATM    2  S   UNL     1     -10.656   3.196  63.526  1.00  0.00    -0.247 S  
HETATM    3  C   UNL     1      -9.118   2.503  64.078  1.00  0.00    -0.106 C  
HETATM    4  O   UNL     1     -11.616   2.133  63.308  1.00  0.00    -0.302 OA 
HETATM    5  C   UNL     1      -8.287   3.585  64.745  1.00  0.00    -0.093 C  
HETATM    6  N   UNL     1      -8.927   4.286  65.875  1.00  0.00    -0.120 NA 
HETATM    7  N   UNL     1     -11.146   4.007  64.918  1.00  0.00    -0.624 N  
HETATM    8  C   UNL     1     -10.153   4.942  65.432  1.00  0.00    -0.005 C  
HETATM    9  H   UNL     1     -12.053   3.857  65.359  1.00  0.00     0.000 HD 
ENDROOT
BRANCH   6  10
HETATM   10  C   UNL     1      -9.164   3.453  67.056  1.00  0.00    -0.184 C  
BRANCH  10  11
HETATM   11  N   UNL     1      -8.212   3.765  68.117  1.00  0.00    -0.083 NA 
HETATM   12  C   UNL     1      -7.859   5.182  68.271  1.00  0.00    -0.087 C  
HETATM   13  C   UNL     1      -8.882   6.092  68.937  1.00  0.00    -0.120 C  
HETATM   14  S   UNL     1      -9.502   5.382  70.444  1.00  0.00    -0.173 S  
HETATM   15  O   UNL     1     -10.827   5.910  70.685  1.00  0.00    -0.272 OA 
HETATM   16  N   UNL     1      -9.716   3.792  69.995  1.00  0.00    -0.185 N  
HETATM   17  O   UNL     1      -8.466   5.432  71.451  1.00  0.00    -0.123 OA 
HETATM   18  H   UNL     1     -10.597   3.297  70.135  1.00  0.00     0.000 HD 
HETATM   19  C   UNL     1      -8.566   3.164  69.392  1.00  0.00    -0.067 C  
ENDBRANCH  10  11
ENDBRANCH   6  10
TORSDOF 2
ENDMDL
MODEL      170
REMARK 921   NORMALIZED FREE ENERGY PREDICTED BY IDOCK:   -2.56 KCAL/MOL
REMARK 922        TOTAL FREE ENERGY PREDICTED BY IDOCK:   -3.27 KCAL/MOL
REMARK 923 INTER-LIGAND FREE ENERGY PREDICTED BY IDOCK:   -2.84 KCAL/MOL
REMARK 924 INTRA-LIGAND FREE ENERGY PREDICTED BY IDOCK:   -0.44 KCAL/MOL
REMARK 927      BINDING AFFINITY PREDICTED BY RF-SCORE:    0.00 PKD
ROOT
HETATM    1  O   UNL     1     -11.401   5.975  68.558  1.00  0.00    -0.230 OA 
HETATM    2  S   UNL     1     -10.484   6.298  67.490  1.00  0.00    -0.276 S  
HETATM    3  C   UNL     1     -10.577   8.032  67.125  1.00  0.00    -0.297 C  
HETATM    4  O   UNL     1     -10.473   5.542  66.255  1.00  0.00    -0.219 OA 
HETATM    5  C   UNL     1     -10.122   8.829  68.336  1.00  0.00    -0.190 C  
HETATM    6  N   UNL     1      -8.772   8.519  68.843  1.00  0.00    -0.131 NA 
HETATM    7  N   UNL     1      -8.929   6.200  68.128  1.00  0.00    -0.115 N  
HETATM    8  C   UNL     1      -8.690   7.116  69.235  1.00  0.00    -0.136 C  
HETATM    9  H   UNL     1      -8.221   5.558  67.772  1.00  0.00     0.000 HD 
ENDROOT
BRANCH   6  10
HETATM   10  C   UNL     1      -7.680   8.884  67.938  1.00  0.00    -0.101 C  
BRANCH  10  11
HETATM   11  N   UNL     1      -6.711   9.747  68.606  1.00  0.00    -0.051 NA 
HETATM   12  C   UNL     1      -5.872  10.574  67.730  1.00  0.00    -0.044 C  
HETATM   13  C   UNL     1      -6.513  11.802  67.098  1.00  0.00    -0.146 C  
HETATM   14  S   UNL     1      -7.393  12.769  68.301  1.00  0.00    -0.128 S  
HETATM   15  O   UNL     1      -8.442  13.499  67.623  1.00  0.00    -0.158 OA 
HETATM   16  N   UNL     1      -8.157  11.581  69.185  1.00  0.00    -0.367 N  
HETATM   17  O   UNL     1      -6.439  13.431  69.164  1.00  0.00    -0.096 OA 
HETATM   18  H   UNL     1      -9.161  11.592  69.363  1.00  0.00     0.000 HD 
HETATM   19  C   UNL     1      -7.296  10.534  69.678  1.00  0.00    -0.149 C  
ENDBRANCH  10  11
ENDBRANCH   6  10
TORSDOF 2
ENDMDL
MODEL      171
REMARK 921   NORMALIZED FREE ENERGY PREDICTED BY IDOCK:   -2.56 KCAL/MOL
REMARK 922        TOTAL FREE ENERGY PREDICTED BY IDOCK:   -3.27 KCAL/MOL
REMARK 923 INTER-LIGAND FREE ENERGY PREDICTED BY IDOCK:   -2.99 KCAL/MOL
REMARK 924 INTRA-LIGAND FREE ENERGY PREDICTED BY IDOCK:   -0.27 KCAL/MOL
REMARK 927      BINDING AFFINITY PREDICTED BY RF-SCORE:    0.00 PKD
ROOT
HETATM    1  O   UNL     1      -6.678   3.755  67.685  1.00  0.00    -0.041 OA 
HETATM    2  S   UNL     1      -7.919   4.403  67.331  1.00  0.00    -0.100 S  
HETATM    3  C   UNL     1      -9.159   4.027  68.543  1.00  0.00    -0.137 C  
HETATM    4  O   UNL     1      -8.483   4.272  66.003  1.00  0.00    -0.112 OA 
HETATM    5  C   UNL     1      -8.743   4.602  69.887  1.00  0.00    -0.084 C  
HETATM    6  N   UNL     1      -8.474   6.052  69.913  1.00  0.00    -0.129 NA 
HETATM    7  N   UNL     1      -7.711   6.052  67.604  1.00  0.00    -0.096 N  
HETATM    8  C   UNL     1      -7.396   6.383  68.988  1.00  0.00    -0.089 C  
HETATM    9  H   UNL     1      -7.798   6.753  66.868  1.00  0.00     0.000 HD 
ENDROOT
BRANCH   6  10
HETATM   10  C   UNL     1      -9.650   6.896  69.685  1.00  0.00    -0.146 C  
BRANCH  10  11
HETATM   11  N   UNL     1      -9.952   7.702  70.863  1.00  0.00    -0.181 NA 
HETATM   12  C   UNL     1      -9.348   9.040  70.901  1.00  0.00    -0.264 C  
HETATM   13  C   UNL     1      -9.966  10.116  70.019  1.00  0.00    -0.161 C  
HETATM   14  S   UNL     1     -11.733  10.168  70.197  1.00  0.00    -0.234 S  
HETATM   15  O   UNL     1     -12.300  10.697  68.976  1.00  0.00    -0.355 OA 
HETATM   16  N   UNL     1     -12.110   8.545  70.214  1.00  0.00    -0.327 N  
HETATM   17  O   UNL     1     -12.061  10.722  71.492  1.00  0.00    -0.269 OA 
HETATM   18  H   UNL     1     -12.812   8.140  69.595  1.00  0.00     0.000 HD 
HETATM   19  C   UNL     1     -11.372   7.753  71.167  1.00  0.00    -0.269 C  
ENDBRANCH  10  11
ENDBRANCH   6  10
TORSDOF 2
ENDMDL
MODEL      172
REMARK 921   NORMALIZED FREE ENERGY PREDICTED BY IDOCK:   -2.52 KCAL/MOL
REMARK 922        TOTAL FREE ENERGY PREDICTED BY IDOCK:   -3.23 KCAL/MOL
REMARK 923 INTER-LIGAND FREE ENERGY PREDICTED BY IDOCK:   -2.83 KCAL/MOL
REMARK 924 INTRA-LIGAND FREE ENERGY PREDICTED BY IDOCK:   -0.40 KCAL/MOL
REMARK 927      BINDING AFFINITY PREDICTED BY RF-SCORE:    0.00 PKD
ROOT
HETATM    1  O   UNL     1      -8.066   4.101  68.322  1.00  0.00    -0.080 OA 
HETATM    2  S   UNL     1      -9.066   4.835  67.582  1.00  0.00    -0.120 S  
HETATM    3  C   UNL     1     -10.165   5.652  68.711  1.00  0.00    -0.204 C  
HETATM    4  O   UNL     1      -9.834   4.205  66.528  1.00  0.00    -0.213 OA 
HETATM    5  C   UNL     1      -9.390   6.679  69.517  1.00  0.00    -0.145 C  
HETATM    6  N   UNL     1      -8.662   7.698  68.737  1.00  0.00    -0.129 NA 
HETATM    7  N   UNL     1      -8.295   6.161  66.889  1.00  0.00    -0.106 N  
HETATM    8  C   UNL     1      -7.686   7.060  67.860  1.00  0.00    -0.113 C  
HETATM    9  H   UNL     1      -8.257   6.319  65.882  1.00  0.00     0.000 HD 
ENDROOT
BRANCH   6  10
HETATM   10  C   UNL     1      -9.519   8.627  67.995  1.00  0.00    -0.140 C  
BRANCH  10  11
HETATM   11  N   UNL     1      -8.721   9.545  67.190  1.00  0.00    -0.131 NA 
HETATM   12  C   UNL     1      -9.031   9.580  65.755  1.00  0.00    -0.179 C  
HETATM   13  C   UNL     1     -10.293  10.315  65.326  1.00  0.00    -0.148 C  
HETATM   14  S   UNL     1     -10.397  11.922  66.078  1.00  0.00    -0.242 S  
HETATM   15  O   UNL     1     -11.792  12.295  66.166  1.00  0.00    -0.507 OA 
HETATM   16  N   UNL     1      -9.911  11.588  67.636  1.00  0.00    -0.182 N  
HETATM   17  O   UNL     1      -9.413  12.792  65.474  1.00  0.00    -0.065 OA 
HETATM   18  H   UNL     1     -10.461  11.861  68.451  1.00  0.00     0.000 HD 
HETATM   19  C   UNL     1      -8.658  10.884  67.751  1.00  0.00    -0.128 C  
ENDBRANCH  10  11
ENDBRANCH   6  10
TORSDOF 2
ENDMDL
MODEL      173
REMARK 921   NORMALIZED FREE ENERGY PREDICTED BY IDOCK:   -2.52 KCAL/MOL
REMARK 922        TOTAL FREE ENERGY PREDICTED BY IDOCK:   -3.23 KCAL/MOL
REMARK 923 INTER-LIGAND FREE ENERGY PREDICTED BY IDOCK:   -2.92 KCAL/MOL
REMARK 924 INTRA-LIGAND FREE ENERGY PREDICTED BY IDOCK:   -0.31 KCAL/MOL
REMARK 927      BINDING AFFINITY PREDICTED BY RF-SCORE:    0.00 PKD
ROOT
HETATM    1  O   UNL     1      -8.151   4.229  65.954  1.00  0.00    -0.098 OA 
HETATM    2  S   UNL     1      -7.235   5.192  66.519  1.00  0.00    -0.078 S  
HETATM    3  C   UNL     1      -7.471   6.770  65.742  1.00  0.00    -0.085 C  
HETATM    4  O   UNL     1      -5.818   4.911  66.625  1.00  0.00    -0.021 OA 
HETATM    5  C   UNL     1      -8.870   7.279  66.045  1.00  0.00    -0.136 C  
HETATM    6  N   UNL     1      -9.220   7.393  67.474  1.00  0.00    -0.130 NA 
HETATM    7  N   UNL     1      -7.775   5.532  68.077  1.00  0.00    -0.091 N  
HETATM    8  C   UNL     1      -9.121   6.091  68.124  1.00  0.00    -0.118 C  
HETATM    9  H   UNL     1      -7.213   5.363  68.911  1.00  0.00     0.000 HD 
ENDROOT
BRANCH   6  10
HETATM   10  C   UNL     1      -8.469   8.414  68.208  1.00  0.00    -0.135 C  
BRANCH  10  11
HETATM   11  N   UNL     1      -9.365   9.280  68.967  1.00  0.00    -0.149 NA 
HETATM   12  C   UNL     1      -9.036  10.711  68.962  1.00  0.00    -0.157 C  
HETATM   13  C   UNL     1      -9.356  11.502  67.702  1.00  0.00    -0.171 C  
HETATM   14  S   UNL     1     -11.013  11.188  67.140  1.00  0.00    -0.282 S  
HETATM   15  O   UNL     1     -11.063  11.417  65.713  1.00  0.00    -0.252 OA 
HETATM   16  N   UNL     1     -11.123   9.538  67.345  1.00  0.00    -0.362 N  
HETATM   17  O   UNL     1     -11.947  11.819  68.046  1.00  0.00    -0.553 OA 
HETATM   18  H   UNL     1     -11.420   8.912  66.596  1.00  0.00     0.000 HD 
HETATM   19  C   UNL     1     -10.767   9.057  68.657  1.00  0.00    -0.097 C  
ENDBRANCH  10  11
ENDBRANCH   6  10
TORSDOF 2
ENDMDL
MODEL      174
REMARK 921   NORMALIZED FREE ENERGY PREDICTED BY IDOCK:   -2.52 KCAL/MOL
REMARK 922        TOTAL FREE ENERGY PREDICTED BY IDOCK:   -3.22 KCAL/MOL
REMARK 923 INTER-LIGAND FREE ENERGY PREDICTED BY IDOCK:   -2.74 KCAL/MOL
REMARK 924 INTRA-LIGAND FREE ENERGY PREDICTED BY IDOCK:   -0.48 KCAL/MOL
REMARK 927      BINDING AFFINITY PREDICTED BY RF-SCORE:    0.00 PKD
ROOT
HETATM    1  O   UNL     1     -10.977   9.620  67.863  1.00  0.00    -0.243 OA 
HETATM    2  S   UNL     1     -10.137   8.571  67.335  1.00  0.00    -0.258 S  
HETATM    3  C   UNL     1      -8.765   8.297  68.427  1.00  0.00    -0.133 C  
HETATM    4  O   UNL     1      -9.667   8.602  65.965  1.00  0.00    -0.241 OA 
HETATM    5  C   UNL     1      -9.278   7.802  69.768  1.00  0.00    -0.150 C  
HETATM    6  N   UNL     1     -10.110   6.584  69.732  1.00  0.00    -0.175 NA 
HETATM    7  N   UNL     1     -10.975   7.124  67.524  1.00  0.00    -0.530 N  
HETATM    8  C   UNL     1     -11.295   6.807  68.910  1.00  0.00    -0.050 C  
HETATM    9  H   UNL     1     -11.236   6.525  66.740  1.00  0.00     0.000 HD 
ENDROOT
BRANCH   6  10
HETATM   10  C   UNL     1      -9.399   5.369  69.324  1.00  0.00    -0.120 C  
BRANCH  10  11
HETATM   11  N   UNL     1      -9.840   4.218  70.104  1.00  0.00    -0.219 NA 
HETATM   12  C   UNL     1      -9.046   2.992  69.948  1.00  0.00    -0.126 C  
HETATM   13  C   UNL     1      -7.696   2.936  70.648  1.00  0.00    -0.043 C  
HETATM   14  S   UNL     1      -7.819   3.449  72.345  1.00  0.00    -0.064 S  
HETATM   15  O   UNL     1      -6.534   3.968  72.759  1.00  0.00    -0.025 OA 
HETATM   16  N   UNL     1      -8.829   4.768  72.217  1.00  0.00    -0.123 N  
HETATM   17  O   UNL     1      -8.507   2.425  73.099  1.00  0.00    -0.068 OA 
HETATM   18  H   UNL     1      -8.592   5.678  72.612  1.00  0.00     0.000 HD 
HETATM   19  C   UNL     1     -10.061   4.532  71.505  1.00  0.00    -0.169 C  
ENDBRANCH  10  11
ENDBRANCH   6  10
TORSDOF 2
ENDMDL
MODEL      175
REMARK 921   NORMALIZED FREE ENERGY PREDICTED BY IDOCK:   -2.50 KCAL/MOL
REMARK 922        TOTAL FREE ENERGY PREDICTED BY IDOCK:   -3.20 KCAL/MOL
REMARK 923 INTER-LIGAND FREE ENERGY PREDICTED BY IDOCK:   -3.32 KCAL/MOL
REMARK 924 INTRA-LIGAND FREE ENERGY PREDICTED BY IDOCK:    0.12 KCAL/MOL
REMARK 927      BINDING AFFINITY PREDICTED BY RF-SCORE:    0.00 PKD
ROOT
HETATM    1  O   UNL     1      -9.161   8.263  73.077  1.00  0.00    -0.260 OA 
HETATM    2  S   UNL     1     -10.366   8.115  72.294  1.00  0.00    -0.319 S  
HETATM    3  C   UNL     1     -10.495   9.452  71.134  1.00  0.00    -0.322 C  
HETATM    4  O   UNL     1     -11.650   7.894  72.925  1.00  0.00    -0.383 OA 
HETATM    5  C   UNL     1      -9.336   9.386  70.155  1.00  0.00    -0.241 C  
HETATM    6  N   UNL     1      -9.191   8.121  69.410  1.00  0.00    -0.155 NA 
HETATM    7  N   UNL     1     -10.117   6.821  71.245  1.00  0.00    -0.187 N  
HETATM    8  C   UNL     1      -8.994   7.010  70.335  1.00  0.00    -0.155 C  
HETATM    9  H   UNL     1     -10.698   5.983  71.248  1.00  0.00     0.000 HD 
ENDROOT
BRANCH   6  10
HETATM   10  C   UNL     1     -10.273   7.841  68.463  1.00  0.00    -0.204 C  
BRANCH  10  11
HETATM   11  N   UNL     1      -9.825   8.021  67.087  1.00  0.00    -0.188 NA 
HETATM   12  C   UNL     1     -10.468   9.107  66.336  1.00  0.00    -0.071 C  
HETATM   13  C   UNL     1     -10.034  10.532  66.652  1.00  0.00    -0.211 C  
HETATM   14  S   UNL     1      -8.264  10.683  66.677  1.00  0.00    -0.139 S  
HETATM   15  O   UNL     1      -7.912  11.785  67.546  1.00  0.00    -0.132 OA 
HETATM   16  N   UNL     1      -7.826   9.297  67.492  1.00  0.00    -0.096 N  
HETATM   17  O   UNL     1      -7.762  10.589  65.324  1.00  0.00    -0.145 OA 
HETATM   18  H   UNL     1      -7.212   9.312  68.306  1.00  0.00     0.000 HD 
HETATM   19  C   UNL     1      -8.378   8.074  66.963  1.00  0.00    -0.116 C  
ENDBRANCH  10  11
ENDBRANCH   6  10
TORSDOF 2
ENDMDL
MODEL      176
REMARK 921   NORMALIZED FREE ENERGY PREDICTED BY IDOCK:   -2.49 KCAL/MOL
REMARK 922        TOTAL FREE ENERGY PREDICTED BY IDOCK:   -3.19 KCAL/MOL
REMARK 923 INTER-LIGAND FREE ENERGY PREDICTED BY IDOCK:   -2.89 KCAL/MOL
REMARK 924 INTRA-LIGAND FREE ENERGY PREDICTED BY IDOCK:   -0.30 KCAL/MOL
REMARK 927      BINDING AFFINITY PREDICTED BY RF-SCORE:    0.00 PKD
ROOT
HETATM    1  O   UNL     1      -8.315   9.426  71.352  1.00  0.00    -0.295 OA 
HETATM    2  S   UNL     1      -9.537   8.833  70.861  1.00  0.00    -0.243 S  
HETATM    3  C   UNL     1      -9.694   9.140  69.120  1.00  0.00    -0.163 C  
HETATM    4  O   UNL     1     -10.807   9.078  71.513  1.00  0.00    -0.292 OA 
HETATM    5  C   UNL     1      -8.557   8.454  68.381  1.00  0.00    -0.139 C  
HETATM    6  N   UNL     1      -8.428   7.001  68.600  1.00  0.00    -0.121 NA 
HETATM    7  N   UNL     1      -9.311   7.165  70.861  1.00  0.00    -0.160 N  
HETATM    8  C   UNL     1      -8.210   6.721  70.015  1.00  0.00    -0.134 C  
HETATM    9  H   UNL     1      -9.891   6.524  71.402  1.00  0.00     0.000 HD 
ENDROOT
BRANCH   6  10
HETATM   10  C   UNL     1      -9.531   6.201  68.063  1.00  0.00    -0.113 C  
BRANCH  10  11
HETATM   11  N   UNL     1      -9.344   5.939  66.640  1.00  0.00    -0.141 NA 
HETATM   12  C   UNL     1      -7.984   5.574  66.225  1.00  0.00    -0.105 C  
HETATM   13  C   UNL     1      -7.510   4.161  66.537  1.00  0.00    -0.084 C  
HETATM   14  S   UNL     1      -8.713   2.947  66.050  1.00  0.00    -0.134 S  
HETATM   15  O   UNL     1      -8.542   1.775  66.880  1.00  0.00    -0.092 OA 
HETATM   16  N   UNL     1     -10.129   3.666  66.557  1.00  0.00    -0.303 N  
HETATM   17  O   UNL     1      -8.741   2.863  64.607  1.00  0.00    -0.098 OA 
HETATM   18  H   UNL     1     -10.805   3.184  67.150  1.00  0.00     0.000 HD 
HETATM   19  C   UNL     1     -10.329   5.018  66.098  1.00  0.00    -0.268 C  
ENDBRANCH  10  11
ENDBRANCH   6  10
TORSDOF 2
ENDMDL
MODEL      177
REMARK 921   NORMALIZED FREE ENERGY PREDICTED BY IDOCK:   -2.46 KCAL/MOL
REMARK 922        TOTAL FREE ENERGY PREDICTED BY IDOCK:   -3.15 KCAL/MOL
REMARK 923 INTER-LIGAND FREE ENERGY PREDICTED BY IDOCK:   -3.01 KCAL/MOL
REMARK 924 INTRA-LIGAND FREE ENERGY PREDICTED BY IDOCK:   -0.14 KCAL/MOL
REMARK 927      BINDING AFFINITY PREDICTED BY RF-SCORE:    0.00 PKD
ROOT
HETATM    1  O   UNL     1     -10.438   7.546  73.175  1.00  0.00    -0.299 OA 
HETATM    2  S   UNL     1      -9.573   7.936  72.086  1.00  0.00    -0.217 S  
HETATM    3  C   UNL     1     -10.143   7.201  70.575  1.00  0.00    -0.195 C  
HETATM    4  O   UNL     1      -8.135   7.795  72.181  1.00  0.00    -0.099 OA 
HETATM    5  C   UNL     1     -11.523   7.740  70.240  1.00  0.00    -0.104 C  
HETATM    6  N   UNL     1     -11.635   9.207  70.130  1.00  0.00    -0.098 NA 
HETATM    7  N   UNL     1      -9.877   9.562  71.773  1.00  0.00     0.181 N  
HETATM    8  C   UNL     1     -11.256   9.838  71.389  1.00  0.00    -0.298 C  
HETATM    9  H   UNL     1      -9.162  10.286  71.844  1.00  0.00     0.000 HD 
ENDROOT
BRANCH   6  10
HETATM   10  C   UNL     1     -10.908   9.792  69.000  1.00  0.00    -0.199 C  
BRANCH  10  11
HETATM   11  N   UNL     1     -11.696  10.838  68.356  1.00  0.00    -0.465 NA 
HETATM   12  C   UNL     1     -11.609  12.174  68.959  1.00  0.00    -0.319 C  
HETATM   13  C   UNL     1     -10.345  12.981  68.701  1.00  0.00    -0.191 C  
HETATM   14  S   UNL     1      -9.920  12.991  66.975  1.00  0.00    -0.247 S  
HETATM   15  O   UNL     1      -8.492  13.189  66.858  1.00  0.00    -0.170 OA 
HETATM   16  N   UNL     1     -10.198  11.401  66.559  1.00  0.00    -0.214 N  
HETATM   17  O   UNL     1     -10.866  13.818  66.260  1.00  0.00    -0.282 OA 
HETATM   18  H   UNL     1      -9.499  10.829  66.085  1.00  0.00     0.000 HD 
HETATM   19  C   UNL     1     -11.499  10.892  66.917  1.00  0.00     0.208 C  
ENDBRANCH  10  11
ENDBRANCH   6  10
TORSDOF 2
ENDMDL
MODEL      178
REMARK 921   NORMALIZED FREE ENERGY PREDICTED BY IDOCK:   -2.44 KCAL/MOL
REMARK 922        TOTAL FREE ENERGY PREDICTED BY IDOCK:   -3.13 KCAL/MOL
REMARK 923 INTER-LIGAND FREE ENERGY PREDICTED BY IDOCK:   -2.84 KCAL/MOL
REMARK 924 INTRA-LIGAND FREE ENERGY PREDICTED BY IDOCK:   -0.29 KCAL/MOL
REMARK 927      BINDING AFFINITY PREDICTED BY RF-SCORE:    0.00 PKD
ROOT
HETATM    1  O   UNL     1      -7.928   8.936  65.850  1.00  0.00    -0.102 OA 
HETATM    2  S   UNL     1      -8.024  10.291  65.360  1.00  0.00    -0.147 S  
HETATM    3  C   UNL     1      -9.086  11.237  66.421  1.00  0.00    -0.192 C  
HETATM    4  O   UNL     1      -8.349  10.570  63.976  1.00  0.00    -0.161 OA 
HETATM    5  C   UNL     1      -8.469  11.324  67.807  1.00  0.00    -0.126 C  
HETATM    6  N   UNL     1      -7.106  11.885  67.873  1.00  0.00    -0.086 NA 
HETATM    7  N   UNL     1      -6.544  11.033  65.665  1.00  0.00    -0.363 N  
HETATM    8  C   UNL     1      -6.188  11.076  67.078  1.00  0.00    -0.084 C  
HETATM    9  H   UNL     1      -5.951  11.417  64.929  1.00  0.00     0.000 HD 
ENDROOT
BRANCH   6  10
HETATM   10  C   UNL     1      -7.011  13.303  67.518  1.00  0.00    -0.144 C  
BRANCH  10  11
HETATM   11  N   UNL     1      -6.121  14.013  68.431  1.00  0.00    -0.091 NA 
HETATM   12  C   UNL     1      -5.313  15.087  67.839  1.00  0.00    -0.096 C  
HETATM   13  C   UNL     1      -6.015  16.399  67.519  1.00  0.00    -0.156 C  
HETATM   14  S   UNL     1      -6.991  16.967  68.891  1.00  0.00    -0.227 S  
HETATM   15  O   UNL     1      -8.065  17.789  68.378  1.00  0.00    -0.278 OA 
HETATM   16  N   UNL     1      -7.701  15.548  69.399  1.00  0.00    -0.224 N  
HETATM   17  O   UNL     1      -6.109  17.432  69.938  1.00  0.00    -0.247 OA 
HETATM   18  H   UNL     1      -8.708  15.456  69.529  1.00  0.00     0.000 HD 
HETATM   19  C   UNL     1      -6.788  14.458  69.643  1.00  0.00    -0.118 C  
ENDBRANCH  10  11
ENDBRANCH   6  10
TORSDOF 2
ENDMDL
MODEL      179
REMARK 921   NORMALIZED FREE ENERGY PREDICTED BY IDOCK:   -2.42 KCAL/MOL
REMARK 922        TOTAL FREE ENERGY PREDICTED BY IDOCK:   -3.11 KCAL/MOL
REMARK 923 INTER-LIGAND FREE ENERGY PREDICTED BY IDOCK:   -3.14 KCAL/MOL
REMARK 924 INTRA-LIGAND FREE ENERGY PREDICTED BY IDOCK:    0.03 KCAL/MOL
REMARK 927      BINDING AFFINITY PREDICTED BY RF-SCORE:    0.00 PKD
ROOT
HETATM    1  O   UNL     1     -11.788  11.731  69.315  1.00  0.00    -0.296 OA 
HETATM    2  S   UNL     1     -10.907  10.604  69.113  1.00  0.00    -0.255 S  
HETATM    3  C   UNL     1     -10.977  10.085  67.417  1.00  0.00    -0.191 C  
HETATM    4  O   UNL     1     -10.960   9.444  69.978  1.00  0.00    -0.230 OA 
HETATM    5  C   UNL     1     -10.459  11.200  66.525  1.00  0.00    -0.255 C  
HETATM    6  N   UNL     1      -9.097  11.683  66.820  1.00  0.00    -0.180 NA 
HETATM    7  N   UNL     1      -9.330  11.190  69.191  1.00  0.00    -0.404 N  
HETATM    8  C   UNL     1      -9.028  12.199  68.183  1.00  0.00    -0.195 C  
HETATM    9  H   UNL     1      -8.650  10.868  69.879  1.00  0.00     0.000 HD 
ENDROOT
BRANCH   6  10
HETATM   10  C   UNL     1      -8.033  10.708  66.565  1.00  0.00    -0.138 C  
BRANCH  10  11
HETATM   11  N   UNL     1      -7.547  10.809  65.194  1.00  0.00     0.036 NA 
HETATM   12  C   UNL     1      -6.224  10.227  64.934  1.00  0.00    -0.125 C  
HETATM   13  C   UNL     1      -6.130   8.710  64.844  1.00  0.00    -0.060 C  
HETATM   14  S   UNL     1      -7.384   8.042  63.776  1.00  0.00    -0.109 S  
HETATM   15  O   UNL     1      -7.660   6.684  64.191  1.00  0.00    -0.090 OA 
HETATM   16  N   UNL     1      -8.713   8.940  64.228  1.00  0.00    -0.392 N  
HETATM   17  O   UNL     1      -7.061   8.370  62.406  1.00  0.00    -0.097 OA 
HETATM   18  H   UNL     1      -9.598   8.510  64.497  1.00  0.00     0.000 HD 
HETATM   19  C   UNL     1      -8.522  10.369  64.211  1.00  0.00    -0.158 C  
ENDBRANCH  10  11
ENDBRANCH   6  10
TORSDOF 2
ENDMDL
MODEL      180
REMARK 921   NORMALIZED FREE ENERGY PREDICTED BY IDOCK:   -2.41 KCAL/MOL
REMARK 922        TOTAL FREE ENERGY PREDICTED BY IDOCK:   -3.11 KCAL/MOL
REMARK 923 INTER-LIGAND FREE ENERGY PREDICTED BY IDOCK:   -2.62 KCAL/MOL
REMARK 924 INTRA-LIGAND FREE ENERGY PREDICTED BY IDOCK:   -0.49 KCAL/MOL
REMARK 927      BINDING AFFINITY PREDICTED BY RF-SCORE:    0.00 PKD
ROOT
HETATM    1  O   UNL     1      -7.866   9.585  71.116  1.00  0.00    -0.326 OA 
HETATM    2  S   UNL     1      -9.100   8.947  70.722  1.00  0.00    -0.233 S  
HETATM    3  C   UNL     1      -9.269   9.009  68.956  1.00  0.00    -0.140 C  
HETATM    4  O   UNL     1     -10.360   9.300  71.342  1.00  0.00    -0.321 OA 
HETATM    5  C   UNL     1      -8.149   8.210  68.313  1.00  0.00    -0.128 C  
HETATM    6  N   UNL     1      -8.037   6.800  68.733  1.00  0.00    -0.119 NA 
HETATM    7  N   UNL     1      -8.896   7.292  70.954  1.00  0.00    -0.148 N  
HETATM    8  C   UNL     1      -7.809   6.718  70.172  1.00  0.00    -0.107 C  
HETATM    9  H   UNL     1      -9.480   6.743  71.585  1.00  0.00     0.000 HD 
ENDROOT
BRANCH   6  10
HETATM   10  C   UNL     1      -9.156   5.949  68.321  1.00  0.00    -0.118 C  
BRANCH  10  11
HETATM   11  N   UNL     1      -8.684   4.644  67.870  1.00  0.00    -0.103 NA 
HETATM   12  C   UNL     1      -9.620   3.870  67.045  1.00  0.00    -0.196 C  
HETATM   13  C   UNL     1      -9.797   4.297  65.594  1.00  0.00    -0.218 C  
HETATM   14  S   UNL     1      -8.230   4.538  64.791  1.00  0.00    -0.113 S  
HETATM   15  O   UNL     1      -8.410   5.490  63.717  1.00  0.00    -0.123 OA 
HETATM   16  N   UNL     1      -7.373   5.339  65.976  1.00  0.00    -0.080 N  
HETATM   17  O   UNL     1      -7.606   3.252  64.574  1.00  0.00    -0.074 OA 
HETATM   18  H   UNL     1      -6.891   6.221  65.800  1.00  0.00     0.000 HD 
HETATM   19  C   UNL     1      -7.363   4.696  67.266  1.00  0.00    -0.074 C  
ENDBRANCH  10  11
ENDBRANCH   6  10
TORSDOF 2
ENDMDL
MODEL      181
REMARK 921   NORMALIZED FREE ENERGY PREDICTED BY IDOCK:   -2.41 KCAL/MOL
REMARK 922        TOTAL FREE ENERGY PREDICTED BY IDOCK:   -3.10 KCAL/MOL
REMARK 923 INTER-LIGAND FREE ENERGY PREDICTED BY IDOCK:   -2.82 KCAL/MOL
REMARK 924 INTRA-LIGAND FREE ENERGY PREDICTED BY IDOCK:   -0.28 KCAL/MOL
REMARK 927      BINDING AFFINITY PREDICTED BY RF-SCORE:    0.00 PKD
ROOT
HETATM    1  O   UNL     1     -11.180   5.755  70.047  1.00  0.00    -0.335 OA 
HETATM    2  S   UNL     1     -10.689   6.965  69.430  1.00  0.00    -0.250 S  
HETATM    3  C   UNL     1      -8.920   6.896  69.301  1.00  0.00    -0.137 C  
HETATM    4  O   UNL     1     -11.089   8.270  69.912  1.00  0.00    -0.210 OA 
HETATM    5  C   UNL     1      -8.525   5.754  68.381  1.00  0.00    -0.110 C  
HETATM    6  N   UNL     1      -9.101   5.789  67.023  1.00  0.00    -0.114 NA 
HETATM    7  N   UNL     1     -11.119   6.900  67.803  1.00  0.00    -0.541 N  
HETATM    8  C   UNL     1     -10.558   5.758  67.092  1.00  0.00    -0.291 C  
HETATM    9  H   UNL     1     -11.717   7.596  67.358  1.00  0.00     0.000 HD 
ENDROOT
BRANCH   6  10
HETATM   10  C   UNL     1      -8.630   6.896  66.187  1.00  0.00    -0.143 C  
BRANCH  10  11
HETATM   11  N   UNL     1      -7.471   6.500  65.395  1.00  0.00    -0.077 NA 
HETATM   12  C   UNL     1      -7.714   6.275  63.965  1.00  0.00    -0.104 C  
HETATM   13  C   UNL     1      -7.885   7.502  63.080  1.00  0.00    -0.133 C  
HETATM   14  S   UNL     1      -6.601   8.697  63.368  1.00  0.00    -0.089 S  
HETATM   15  O   UNL     1      -7.111  10.006  63.027  1.00  0.00    -0.122 OA 
HETATM   16  N   UNL     1      -6.489   8.666  65.030  1.00  0.00    -0.061 N  
HETATM   17  O   UNL     1      -5.359   8.196  62.822  1.00  0.00    -0.061 OA 
HETATM   18  H   UNL     1      -6.540   9.512  65.598  1.00  0.00     0.000 HD 
HETATM   19  C   UNL     1      -6.317   7.356  65.609  1.00  0.00    -0.041 C  
ENDBRANCH  10  11
ENDBRANCH   6  10
TORSDOF 2
ENDMDL
MODEL      182
REMARK 921   NORMALIZED FREE ENERGY PREDICTED BY IDOCK:   -2.41 KCAL/MOL
REMARK 922        TOTAL FREE ENERGY PREDICTED BY IDOCK:   -3.10 KCAL/MOL
REMARK 923 INTER-LIGAND FREE ENERGY PREDICTED BY IDOCK:   -2.89 KCAL/MOL
REMARK 924 INTRA-LIGAND FREE ENERGY PREDICTED BY IDOCK:   -0.20 KCAL/MOL
REMARK 927      BINDING AFFINITY PREDICTED BY RF-SCORE:    0.00 PKD
ROOT
HETATM    1  O   UNL     1     -12.270  11.369  68.344  1.00  0.00    -0.571 OA 
HETATM    2  S   UNL     1     -11.509  11.501  69.565  1.00  0.00    -0.318 S  
HETATM    3  C   UNL     1     -11.696  10.035  70.548  1.00  0.00    -0.318 C  
HETATM    4  O   UNL     1     -11.639  12.671  70.409  1.00  0.00    -0.120 OA 
HETATM    5  C   UNL     1     -11.109   8.849  69.803  1.00  0.00    -0.089 C  
HETATM    6  N   UNL     1      -9.696   8.976  69.398  1.00  0.00    -0.166 NA 
HETATM    7  N   UNL     1      -9.882  11.388  69.148  1.00  0.00    -0.415 N  
HETATM    8  C   UNL     1      -9.525  10.124  68.515  1.00  0.00    -0.158 C  
HETATM    9  H   UNL     1      -9.209  12.134  69.322  1.00  0.00     0.000 HD 
ENDROOT
BRANCH   6  10
HETATM   10  C   UNL     1      -8.741   9.011  70.509  1.00  0.00    -0.207 C  
BRANCH  10  11
HETATM   11  N   UNL     1      -7.433   8.517  70.093  1.00  0.00    -0.058 NA 
HETATM   12  C   UNL     1      -6.639   7.844  71.128  1.00  0.00    -0.038 C  
HETATM   13  C   UNL     1      -7.040   6.427  71.512  1.00  0.00    -0.078 C  
HETATM   14  S   UNL     1      -7.281   5.407  70.076  1.00  0.00    -0.065 S  
HETATM   15  O   UNL     1      -8.213   4.354  70.415  1.00  0.00    -0.068 OA 
HETATM   16  N   UNL     1      -8.107   6.446  69.069  1.00  0.00    -0.110 N  
HETATM   17  O   UNL     1      -5.996   5.123  69.477  1.00  0.00    -0.019 OA 
HETATM   18  H   UNL     1      -8.990   6.191  68.625  1.00  0.00     0.000 HD 
HETATM   19  C   UNL     1      -7.485   7.732  68.871  1.00  0.00    -0.095 C  
ENDBRANCH  10  11
ENDBRANCH   6  10
TORSDOF 2
ENDMDL
MODEL      183
REMARK 921   NORMALIZED FREE ENERGY PREDICTED BY IDOCK:   -2.41 KCAL/MOL
REMARK 922        TOTAL FREE ENERGY PREDICTED BY IDOCK:   -3.10 KCAL/MOL
REMARK 923 INTER-LIGAND FREE ENERGY PREDICTED BY IDOCK:   -2.90 KCAL/MOL
REMARK 924 INTRA-LIGAND FREE ENERGY PREDICTED BY IDOCK:   -0.20 KCAL/MOL
REMARK 927      BINDING AFFINITY PREDICTED BY RF-SCORE:    0.00 PKD
ROOT
HETATM    1  O   UNL     1     -10.077  10.947  65.597  1.00  0.00    -0.239 OA 
HETATM    2  S   UNL     1      -9.271   9.749  65.609  1.00  0.00    -0.218 S  
HETATM    3  C   UNL     1      -8.073   9.845  66.915  1.00  0.00    -0.113 C  
HETATM    4  O   UNL     1      -8.635   9.258  64.403  1.00  0.00    -0.182 OA 
HETATM    5  C   UNL     1      -8.789   9.894  68.254  1.00  0.00    -0.119 C  
HETATM    6  N   UNL     1      -9.712   8.778  68.534  1.00  0.00    -0.159 NA 
HETATM    7  N   UNL     1     -10.248   8.502  66.178  1.00  0.00    -0.393 N  
HETATM    8  C   UNL     1     -10.762   8.726  67.523  1.00  0.00    -0.143 C  
HETATM    9  H   UNL     1     -10.460   7.667  65.632  1.00  0.00     0.000 HD 
ENDROOT
BRANCH   6  10
HETATM   10  C   UNL     1      -9.064   7.474  68.697  1.00  0.00    -0.134 C  
BRANCH  10  11
HETATM   11  N   UNL     1      -9.250   6.962  70.050  1.00  0.00    -0.155 NA 
HETATM   12  C   UNL     1      -8.124   6.208  70.615  1.00  0.00    -0.116 C  
HETATM   13  C   UNL     1      -6.917   7.002  71.094  1.00  0.00    -0.062 C  
HETATM   14  S   UNL     1      -7.402   8.366  72.125  1.00  0.00    -0.074 S  
HETATM   15  O   UNL     1      -6.386   9.392  72.033  1.00  0.00    -0.284 OA 
HETATM   16  N   UNL     1      -8.723   8.951  71.297  1.00  0.00    -0.213 N  
HETATM   17  O   UNL     1      -7.857   7.856  73.400  1.00  0.00    -0.135 OA 
HETATM   18  H   UNL     1      -8.813   9.932  71.033  1.00  0.00     0.000 HD 
HETATM   19  C   UNL     1      -9.732   7.971  70.979  1.00  0.00    -0.160 C  
ENDBRANCH  10  11
ENDBRANCH   6  10
TORSDOF 2
ENDMDL
MODEL      184
REMARK 921   NORMALIZED FREE ENERGY PREDICTED BY IDOCK:   -2.39 KCAL/MOL
REMARK 922        TOTAL FREE ENERGY PREDICTED BY IDOCK:   -3.08 KCAL/MOL
REMARK 923 INTER-LIGAND FREE ENERGY PREDICTED BY IDOCK:   -2.82 KCAL/MOL
REMARK 924 INTRA-LIGAND FREE ENERGY PREDICTED BY IDOCK:   -0.26 KCAL/MOL
REMARK 927      BINDING AFFINITY PREDICTED BY RF-SCORE:    0.00 PKD
ROOT
HETATM    1  O   UNL     1     -11.376   9.093  70.712  1.00  0.00    -0.258 OA 
HETATM    2  S   UNL     1     -10.019   8.824  70.299  1.00  0.00    -0.195 S  
HETATM    3  C   UNL     1     -10.026   7.878  68.797  1.00  0.00    -0.187 C  
HETATM    4  O   UNL     1      -9.049   8.265  71.219  1.00  0.00    -0.140 OA 
HETATM    5  C   UNL     1     -10.658   8.698  67.686  1.00  0.00    -0.203 C  
HETATM    6  N   UNL     1     -10.039  10.011  67.420  1.00  0.00    -0.196 NA 
HETATM    7  N   UNL     1      -9.373  10.277  69.744  1.00  0.00    -0.401 N  
HETATM    8  C   UNL     1     -10.096  10.847  68.614  1.00  0.00    -0.191 C  
HETATM    9  H   UNL     1      -8.553  10.717  70.161  1.00  0.00     0.000 HD 
ENDROOT
BRANCH   6  10
HETATM   10  C   UNL     1      -8.679   9.947  66.878  1.00  0.00    -0.128 C  
BRANCH  10  11
HETATM   11  N   UNL     1      -8.576   8.927  65.841  1.00  0.00    -0.148 NA 
HETATM   12  C   UNL     1      -8.997   9.332  64.494  1.00  0.00    -0.136 C  
HETATM   13  C   UNL     1      -8.051  10.221  63.699  1.00  0.00    -0.149 C  
HETATM   14  S   UNL     1      -6.389   9.591  63.726  1.00  0.00    -0.104 S  
HETATM   15  O   UNL     1      -5.478  10.698  63.538  1.00  0.00    -0.160 OA 
HETATM   16  N   UNL     1      -6.236   9.135  65.322  1.00  0.00    -0.063 N  
HETATM   17  O   UNL     1      -6.322   8.400  62.908  1.00  0.00    -0.085 OA 
HETATM   18  H   UNL     1      -5.460   9.446  65.907  1.00  0.00     0.000 HD 
HETATM   19  C   UNL     1      -7.279   8.271  65.816  1.00  0.00    -0.072 C  
ENDBRANCH  10  11
ENDBRANCH   6  10
TORSDOF 2
ENDMDL
MODEL      185
REMARK 921   NORMALIZED FREE ENERGY PREDICTED BY IDOCK:   -2.37 KCAL/MOL
REMARK 922        TOTAL FREE ENERGY PREDICTED BY IDOCK:   -3.05 KCAL/MOL
REMARK 923 INTER-LIGAND FREE ENERGY PREDICTED BY IDOCK:   -3.62 KCAL/MOL
REMARK 924 INTRA-LIGAND FREE ENERGY PREDICTED BY IDOCK:    0.57 KCAL/MOL
REMARK 927      BINDING AFFINITY PREDICTED BY RF-SCORE:    0.00 PKD
ROOT
HETATM    1  O   UNL     1     -10.929   5.513  72.380  1.00  0.00    -0.236 OA 
HETATM    2  S   UNL     1     -10.392   5.912  71.099  1.00  0.00    -0.230 S  
HETATM    3  C   UNL     1     -11.572   6.926  70.245  1.00  0.00    -0.311 C  
HETATM    4  O   UNL     1      -9.835   4.939  70.182  1.00  0.00    -0.197 OA 
HETATM    5  C   UNL     1     -11.801   8.205  71.031  1.00  0.00    -0.260 C  
HETATM    6  N   UNL     1     -10.600   9.011  71.319  1.00  0.00    -0.280 NA 
HETATM    7  N   UNL     1      -9.178   7.039  71.401  1.00  0.00    -0.151 N  
HETATM    8  C   UNL     1      -9.644   8.231  72.098  1.00  0.00    -0.268 C  
HETATM    9  H   UNL     1      -8.207   6.899  71.121  1.00  0.00     0.000 HD 
ENDROOT
BRANCH   6  10
HETATM   10  C   UNL     1      -9.966   9.607  70.140  1.00  0.00    -0.261 C  
BRANCH  10  11
HETATM   11  N   UNL     1     -10.628   9.175  68.914  1.00  0.00    -0.215 NA 
HETATM   12  C   UNL     1     -11.402  10.201  68.204  1.00  0.00    -0.099 C  
HETATM   13  C   UNL     1     -10.626  11.240  67.407  1.00  0.00    -0.224 C  
HETATM   14  S   UNL     1      -9.399  10.481  66.369  1.00  0.00    -0.173 S  
HETATM   15  O   UNL     1      -8.337  11.437  66.144  1.00  0.00    -0.155 OA 
HETATM   16  N   UNL     1      -8.770   9.327  67.393  1.00  0.00    -0.118 N  
HETATM   17  O   UNL     1     -10.059   9.803  65.276  1.00  0.00    -0.286 OA 
HETATM   18  H   UNL     1      -7.769   9.241  67.571  1.00  0.00     0.000 HD 
HETATM   19  C   UNL     1      -9.743   8.460  68.012  1.00  0.00    -0.158 C  
ENDBRANCH  10  11
ENDBRANCH   6  10
TORSDOF 2
ENDMDL
MODEL      186
REMARK 921   NORMALIZED FREE ENERGY PREDICTED BY IDOCK:   -2.35 KCAL/MOL
REMARK 922        TOTAL FREE ENERGY PREDICTED BY IDOCK:   -3.03 KCAL/MOL
REMARK 923 INTER-LIGAND FREE ENERGY PREDICTED BY IDOCK:   -2.60 KCAL/MOL
REMARK 924 INTRA-LIGAND FREE ENERGY PREDICTED BY IDOCK:   -0.43 KCAL/MOL
REMARK 927      BINDING AFFINITY PREDICTED BY RF-SCORE:    0.00 PKD
ROOT
HETATM    1  O   UNL     1      -9.688   4.396  63.053  1.00  0.00    -0.124 OA 
HETATM    2  S   UNL     1     -10.326   3.572  64.052  1.00  0.00    -0.235 S  
HETATM    3  C   UNL     1      -9.094   2.719  65.003  1.00  0.00    -0.140 C  
HETATM    4  O   UNL     1     -11.389   2.652  63.701  1.00  0.00    -0.235 OA 
HETATM    5  C   UNL     1      -8.248   3.731  65.757  1.00  0.00    -0.105 C  
HETATM    6  N   UNL     1      -8.983   4.652  66.645  1.00  0.00    -0.111 NA 
HETATM    7  N   UNL     1     -10.954   4.609  65.221  1.00  0.00    -0.858 N  
HETATM    8  C   UNL     1      -9.946   5.433  65.877  1.00  0.00    -0.020 C  
HETATM    9  H   UNL     1     -11.947   4.655  65.448  1.00  0.00     0.000 HD 
ENDROOT
BRANCH   6  10
HETATM   10  C   UNL     1      -9.616   4.013  67.801  1.00  0.00    -0.150 C  
BRANCH  10  11
HETATM   11  N   UNL     1      -9.557   4.877  68.975  1.00  0.00    -0.145 NA 
HETATM   12  C   UNL     1     -10.124   4.324  70.212  1.00  0.00    -0.026 C  
HETATM   13  C   UNL     1      -9.304   3.278  70.954  1.00  0.00    -0.150 C  
HETATM   14  S   UNL     1      -7.616   3.798  71.158  1.00  0.00    -0.044 S  
HETATM   15  O   UNL     1      -6.785   2.619  71.268  1.00  0.00    -0.029 OA 
HETATM   16  N   UNL     1      -7.291   4.452  69.660  1.00  0.00    -0.050 N  
HETATM   17  O   UNL     1      -7.565   4.862  72.136  1.00  0.00    -0.085 OA 
HETATM   18  H   UNL     1      -6.480   4.173  69.106  1.00  0.00     0.000 HD 
HETATM   19  C   UNL     1      -8.237   5.439  69.202  1.00  0.00    -0.093 C  
ENDBRANCH  10  11
ENDBRANCH   6  10
TORSDOF 2
ENDMDL
MODEL      187
REMARK 921   NORMALIZED FREE ENERGY PREDICTED BY IDOCK:   -2.32 KCAL/MOL
REMARK 922        TOTAL FREE ENERGY PREDICTED BY IDOCK:   -3.00 KCAL/MOL
REMARK 923 INTER-LIGAND FREE ENERGY PREDICTED BY IDOCK:   -2.64 KCAL/MOL
REMARK 924 INTRA-LIGAND FREE ENERGY PREDICTED BY IDOCK:   -0.36 KCAL/MOL
REMARK 927      BINDING AFFINITY PREDICTED BY RF-SCORE:    0.00 PKD
ROOT
HETATM    1  O   UNL     1      -8.460   9.053  71.839  1.00  0.00    -0.363 OA 
HETATM    2  S   UNL     1      -7.868   8.730  70.562  1.00  0.00    -0.118 S  
HETATM    3  C   UNL     1      -8.896   7.565  69.703  1.00  0.00    -0.141 C  
HETATM    4  O   UNL     1      -6.483   8.323  70.457  1.00  0.00    -0.035 OA 
HETATM    5  C   UNL     1     -10.242   8.203  69.403  1.00  0.00    -0.211 C  
HETATM    6  N   UNL     1     -10.203   9.463  68.636  1.00  0.00    -0.194 NA 
HETATM    7  N   UNL     1      -8.048  10.084  69.577  1.00  0.00    -0.146 N  
HETATM    8  C   UNL     1      -9.436  10.471  69.359  1.00  0.00    -0.136 C  
HETATM    9  H   UNL     1      -7.258  10.586  69.172  1.00  0.00     0.000 HD 
ENDROOT
BRANCH   6  10
HETATM   10  C   UNL     1      -9.731   9.323  67.255  1.00  0.00    -0.167 C  
BRANCH  10  11
HETATM   11  N   UNL     1      -9.712  10.613  66.575  1.00  0.00    -0.187 NA 
HETATM   12  C   UNL     1      -8.415  11.037  66.033  1.00  0.00    -0.158 C  
HETATM   13  C   UNL     1      -7.935  10.367  64.753  1.00  0.00    -0.103 C  
HETATM   14  S   UNL     1      -9.209  10.342  63.514  1.00  0.00    -0.305 S  
HETATM   15  O   UNL     1      -8.966   9.222  62.632  1.00  0.00    -0.235 OA 
HETATM   16  N   UNL     1     -10.544   9.931  64.423  1.00  0.00     0.258 N  
HETATM   17  O   UNL     1      -9.402  11.683  63.008  1.00  0.00    -0.329 OA 
HETATM   18  H   UNL     1     -11.157   9.155  64.174  1.00  0.00     0.000 HD 
HETATM   19  C   UNL     1     -10.769  10.750  65.588  1.00  0.00    -0.072 C  
ENDBRANCH  10  11
ENDBRANCH   6  10
TORSDOF 2
ENDMDL
MODEL      188
REMARK 921   NORMALIZED FREE ENERGY PREDICTED BY IDOCK:   -2.32 KCAL/MOL
REMARK 922        TOTAL FREE ENERGY PREDICTED BY IDOCK:   -3.00 KCAL/MOL
REMARK 923 INTER-LIGAND FREE ENERGY PREDICTED BY IDOCK:   -2.65 KCAL/MOL
REMARK 924 INTRA-LIGAND FREE ENERGY PREDICTED BY IDOCK:   -0.34 KCAL/MOL
REMARK 927      BINDING AFFINITY PREDICTED BY RF-SCORE:    0.00 PKD
ROOT
HETATM    1  O   UNL     1     -10.562   8.457  72.273  1.00  0.00    -0.297 OA 
HETATM    2  S   UNL     1      -9.445   7.860  71.579  1.00  0.00    -0.153 S  
HETATM    3  C   UNL     1     -10.019   7.043  70.112  1.00  0.00    -0.182 C  
HETATM    4  O   UNL     1      -8.499   7.008  72.270  1.00  0.00    -0.111 OA 
HETATM    5  C   UNL     1     -10.615   8.069  69.163  1.00  0.00    -0.169 C  
HETATM    6  N   UNL     1      -9.728   9.181  68.774  1.00  0.00    -0.159 NA 
HETATM    7  N   UNL     1      -8.554   9.118  70.903  1.00  0.00    -0.210 N  
HETATM    8  C   UNL     1      -9.307   9.928  69.954  1.00  0.00    -0.216 C  
HETATM    9  H   UNL     1      -7.577   9.296  71.136  1.00  0.00     0.000 HD 
ENDROOT
BRANCH   6  10
HETATM   10  C   UNL     1      -8.578   8.789  67.954  1.00  0.00    -0.130 C  
BRANCH  10  11
HETATM   11  N   UNL     1      -7.523   9.794  68.015  1.00  0.00    -0.082 NA 
HETATM   12  C   UNL     1      -6.153   9.303  67.823  1.00  0.00    -0.053 C  
HETATM   13  C   UNL     1      -5.724   8.955  66.405  1.00  0.00    -0.053 C  
HETATM   14  S   UNL     1      -6.144  10.248  65.261  1.00  0.00    -0.131 S  
HETATM   15  O   UNL     1      -6.306   9.662  63.948  1.00  0.00    -0.099 OA 
HETATM   16  N   UNL     1      -7.676  10.656  65.774  1.00  0.00    -0.208 N  
HETATM   17  O   UNL     1      -5.275  11.381  65.488  1.00  0.00    -0.274 OA 
HETATM   18  H   UNL     1      -8.474  10.693  65.140  1.00  0.00     0.000 HD 
HETATM   19  C   UNL     1      -7.793  10.953  67.181  1.00  0.00    -0.127 C  
ENDBRANCH  10  11
ENDBRANCH   6  10
TORSDOF 2
ENDMDL
MODEL      189
REMARK 921   NORMALIZED FREE ENERGY PREDICTED BY IDOCK:   -2.31 KCAL/MOL
REMARK 922        TOTAL FREE ENERGY PREDICTED BY IDOCK:   -2.99 KCAL/MOL
REMARK 923 INTER-LIGAND FREE ENERGY PREDICTED BY IDOCK:   -2.50 KCAL/MOL
REMARK 924 INTRA-LIGAND FREE ENERGY PREDICTED BY IDOCK:   -0.49 KCAL/MOL
REMARK 927      BINDING AFFINITY PREDICTED BY RF-SCORE:    0.00 PKD
ROOT
HETATM    1  O   UNL     1      -9.049  10.699  69.373  1.00  0.00    -0.152 OA 
HETATM    2  S   UNL     1      -8.625   9.401  69.842  1.00  0.00    -0.210 S  
HETATM    3  C   UNL     1      -9.718   8.151  69.213  1.00  0.00    -0.170 C  
HETATM    4  O   UNL     1      -8.366   9.156  71.246  1.00  0.00    -0.288 OA 
HETATM    5  C   UNL     1      -9.622   8.112  67.698  1.00  0.00    -0.152 C  
HETATM    6  N   UNL     1      -8.274   7.892  67.141  1.00  0.00    -0.116 NA 
HETATM    7  N   UNL     1      -7.209   9.016  69.017  1.00  0.00    -0.071 N  
HETATM    8  C   UNL     1      -7.370   8.954  67.570  1.00  0.00    -0.081 C  
HETATM    9  H   UNL     1      -6.321   8.841  69.487  1.00  0.00     0.000 HD 
ENDROOT
BRANCH   6  10
HETATM   10  C   UNL     1      -7.708   6.568  67.415  1.00  0.00    -0.101 C  
BRANCH  10  11
HETATM   11  N   UNL     1      -7.105   5.997  66.215  1.00  0.00    -0.066 NA 
HETATM   12  C   UNL     1      -6.972   4.535  66.194  1.00  0.00    -0.063 C  
HETATM   13  C   UNL     1      -8.231   3.719  65.937  1.00  0.00    -0.101 C  
HETATM   14  S   UNL     1      -9.132   4.336  64.535  1.00  0.00    -0.153 S  
HETATM   15  O   UNL     1     -10.527   3.989  64.700  1.00  0.00    -0.243 OA 
HETATM   16  N   UNL     1      -9.036   5.981  64.780  1.00  0.00    -0.344 N  
HETATM   17  O   UNL     1      -8.405   4.015  63.327  1.00  0.00    -0.088 OA 
HETATM   18  H   UNL     1      -9.859   6.583  64.783  1.00  0.00     0.000 HD 
HETATM   19  C   UNL     1      -7.704   6.493  64.988  1.00  0.00    -0.103 C  
ENDBRANCH  10  11
ENDBRANCH   6  10
TORSDOF 2
ENDMDL
MODEL      190
REMARK 921   NORMALIZED FREE ENERGY PREDICTED BY IDOCK:   -2.29 KCAL/MOL
REMARK 922        TOTAL FREE ENERGY PREDICTED BY IDOCK:   -2.97 KCAL/MOL
REMARK 923 INTER-LIGAND FREE ENERGY PREDICTED BY IDOCK:   -2.69 KCAL/MOL
REMARK 924 INTRA-LIGAND FREE ENERGY PREDICTED BY IDOCK:   -0.28 KCAL/MOL
REMARK 927      BINDING AFFINITY PREDICTED BY RF-SCORE:    0.00 PKD
ROOT
HETATM    1  O   UNL     1      -6.749  12.581  69.206  1.00  0.00    -0.103 OA 
HETATM    2  S   UNL     1      -7.625  11.925  68.264  1.00  0.00    -0.123 S  
HETATM    3  C   UNL     1      -6.721  10.692  67.363  1.00  0.00    -0.075 C  
HETATM    4  O   UNL     1      -8.451  12.685  67.349  1.00  0.00    -0.168 OA 
HETATM    5  C   UNL     1      -6.238   9.617  68.323  1.00  0.00    -0.055 C  
HETATM    6  N   UNL     1      -7.282   8.952  69.125  1.00  0.00    -0.066 NA 
HETATM    7  N   UNL     1      -8.668  10.950  69.157  1.00  0.00    -0.348 N  
HETATM    8  C   UNL     1      -7.989   9.930  69.945  1.00  0.00    -0.182 C  
HETATM    9  H   UNL     1      -9.682  11.064  69.147  1.00  0.00     0.000 HD 
ENDROOT
BRANCH   6  10
HETATM   10  C   UNL     1      -8.217   8.130  68.352  1.00  0.00    -0.129 C  
BRANCH  10  11
HETATM   11  N   UNL     1      -8.043   6.713  68.654  1.00  0.00    -0.118 NA 
HETATM   12  C   UNL     1      -7.824   6.377  70.066  1.00  0.00    -0.111 C  
HETATM   13  C   UNL     1      -9.032   6.415  70.992  1.00  0.00    -0.146 C  
HETATM   14  S   UNL     1     -10.414   5.541  70.296  1.00  0.00    -0.287 S  
HETATM   15  O   UNL     1     -11.631   6.101  70.843  1.00  0.00    -0.310 OA 
HETATM   16  N   UNL     1     -10.352   6.040  68.707  1.00  0.00    -0.191 N  
HETATM   17  O   UNL     1     -10.144   4.121  70.335  1.00  0.00    -0.163 OA 
HETATM   18  H   UNL     1     -11.161   6.433  68.225  1.00  0.00     0.000 HD 
HETATM   19  C   UNL     1      -9.073   5.876  68.062  1.00  0.00    -0.117 C  
ENDBRANCH  10  11
ENDBRANCH   6  10
TORSDOF 2
ENDMDL
MODEL      191
REMARK 921   NORMALIZED FREE ENERGY PREDICTED BY IDOCK:   -2.29 KCAL/MOL
REMARK 922        TOTAL FREE ENERGY PREDICTED BY IDOCK:   -2.96 KCAL/MOL
REMARK 923 INTER-LIGAND FREE ENERGY PREDICTED BY IDOCK:   -3.03 KCAL/MOL
REMARK 924 INTRA-LIGAND FREE ENERGY PREDICTED BY IDOCK:    0.06 KCAL/MOL
REMARK 927      BINDING AFFINITY PREDICTED BY RF-SCORE:    0.00 PKD
ROOT
HETATM    1  O   UNL     1     -11.403   5.957  70.734  1.00  0.00    -0.267 OA 
HETATM    2  S   UNL     1     -10.874   7.149  70.112  1.00  0.00    -0.264 S  
HETATM    3  C   UNL     1      -9.106   7.169  70.265  1.00  0.00    -0.156 C  
HETATM    4  O   UNL     1     -11.403   8.460  70.428  1.00  0.00    -0.250 OA 
HETATM    5  C   UNL     1      -8.520   5.992  69.505  1.00  0.00    -0.119 C  
HETATM    6  N   UNL     1      -8.874   5.905  68.075  1.00  0.00    -0.110 NA 
HETATM    7  N   UNL     1     -11.037   6.953  68.448  1.00  0.00    -0.496 N  
HETATM    8  C   UNL     1     -10.321   5.799  67.920  1.00  0.00    -0.214 C  
HETATM    9  H   UNL     1     -11.587   7.583  67.865  1.00  0.00     0.000 HD 
ENDROOT
BRANCH   6  10
HETATM   10  C   UNL     1      -8.326   6.979  67.243  1.00  0.00    -0.122 C  
BRANCH  10  11
HETATM   11  N   UNL     1      -7.391   6.451  66.256  1.00  0.00    -0.079 NA 
HETATM   12  C   UNL     1      -6.788   5.150  66.570  1.00  0.00    -0.062 C  
HETATM   13  C   UNL     1      -7.656   3.912  66.393  1.00  0.00    -0.088 C  
HETATM   14  S   UNL     1      -8.478   3.913  64.817  1.00  0.00    -0.107 S  
HETATM   15  O   UNL     1      -9.691   3.134  64.935  1.00  0.00    -0.149 OA 
HETATM   16  N   UNL     1      -8.961   5.503  64.699  1.00  0.00    -0.363 N  
HETATM   17  O   UNL     1      -7.506   3.657  63.777  1.00  0.00    -0.057 OA 
HETATM   18  H   UNL     1      -9.926   5.768  64.498  1.00  0.00     0.000 HD 
HETATM   19  C   UNL     1      -7.918   6.478  64.902  1.00  0.00    -0.124 C  
ENDBRANCH  10  11
ENDBRANCH   6  10
TORSDOF 2
ENDMDL
MODEL      192
REMARK 921   NORMALIZED FREE ENERGY PREDICTED BY IDOCK:   -2.27 KCAL/MOL
REMARK 922        TOTAL FREE ENERGY PREDICTED BY IDOCK:   -2.94 KCAL/MOL
REMARK 923 INTER-LIGAND FREE ENERGY PREDICTED BY IDOCK:   -2.72 KCAL/MOL
REMARK 924 INTRA-LIGAND FREE ENERGY PREDICTED BY IDOCK:   -0.22 KCAL/MOL
REMARK 927      BINDING AFFINITY PREDICTED BY RF-SCORE:    0.00 PKD
ROOT
HETATM    1  O   UNL     1      -7.980   7.818  68.506  1.00  0.00    -0.118 OA 
HETATM    2  S   UNL     1      -8.991   8.848  68.454  1.00  0.00    -0.133 S  
HETATM    3  C   UNL     1      -8.426  10.286  69.327  1.00  0.00    -0.166 C  
HETATM    4  O   UNL     1     -10.366   8.571  68.816  1.00  0.00    -0.214 OA 
HETATM    5  C   UNL     1      -7.201  10.852  68.629  1.00  0.00    -0.088 C  
HETATM    6  N   UNL     1      -7.370  11.195  67.204  1.00  0.00    -0.114 NA 
HETATM    7  N   UNL     1      -9.018   9.436  66.877  1.00  0.00    -0.130 N  
HETATM    8  C   UNL     1      -7.751  10.010  66.442  1.00  0.00    -0.103 C  
HETATM    9  H   UNL     1      -9.845   9.394  66.281  1.00  0.00     0.000 HD 
ENDROOT
BRANCH   6  10
HETATM   10  C   UNL     1      -8.284  12.310  66.948  1.00  0.00    -0.112 C  
BRANCH  10  11
HETATM   11  N   UNL     1      -8.105  13.372  67.931  1.00  0.00    -0.147 NA 
HETATM   12  C   UNL     1      -7.342  14.545  67.483  1.00  0.00    -0.189 C  
HETATM   13  C   UNL     1      -8.048  15.531  66.562  1.00  0.00    -0.064 C  
HETATM   14  S   UNL     1      -9.655  15.967  67.184  1.00  0.00    -0.221 S  
HETATM   15  O   UNL     1     -10.488  16.352  66.066  1.00  0.00    -0.329 OA 
HETATM   16  N   UNL     1     -10.224  14.486  67.693  1.00  0.00    -0.225 N  
HETATM   17  O   UNL     1      -9.498  16.814  68.346  1.00  0.00    -0.226 OA 
HETATM   18  H   UNL     1     -11.128  14.117  67.399  1.00  0.00     0.000 HD 
HETATM   19  C   UNL     1      -9.345  13.762  68.579  1.00  0.00    -0.144 C  
ENDBRANCH  10  11
ENDBRANCH   6  10
TORSDOF 2
ENDMDL
MODEL      193
REMARK 921   NORMALIZED FREE ENERGY PREDICTED BY IDOCK:   -2.24 KCAL/MOL
REMARK 922        TOTAL FREE ENERGY PREDICTED BY IDOCK:   -2.91 KCAL/MOL
REMARK 923 INTER-LIGAND FREE ENERGY PREDICTED BY IDOCK:   -2.62 KCAL/MOL
REMARK 924 INTRA-LIGAND FREE ENERGY PREDICTED BY IDOCK:   -0.29 KCAL/MOL
REMARK 927      BINDING AFFINITY PREDICTED BY RF-SCORE:    0.00 PKD
ROOT
HETATM    1  O   UNL     1     -10.156   4.987  71.665  1.00  0.00    -0.182 OA 
HETATM    2  S   UNL     1     -10.540   6.124  70.861  1.00  0.00    -0.255 S  
HETATM    3  C   UNL     1      -9.178   7.254  70.733  1.00  0.00    -0.156 C  
HETATM    4  O   UNL     1     -11.757   6.860  71.131  1.00  0.00    -0.298 OA 
HETATM    5  C   UNL     1      -8.028   6.581  70.004  1.00  0.00    -0.116 C  
HETATM    6  N   UNL     1      -8.336   6.051  68.662  1.00  0.00    -0.113 NA 
HETATM    7  N   UNL     1     -10.646   5.588  69.268  1.00  0.00    -0.273 N  
HETATM    8  C   UNL     1      -9.396   5.052  68.744  1.00  0.00    -0.130 C  
HETATM    9  H   UNL     1     -11.505   5.635  68.721  1.00  0.00     0.000 HD 
ENDROOT
BRANCH   6  10
HETATM   10  C   UNL     1      -8.644   7.073  67.657  1.00  0.00    -0.122 C  
BRANCH  10  11
HETATM   11  N   UNL     1      -7.426   7.700  67.158  1.00  0.00    -0.094 NA 
HETATM   12  C   UNL     1      -7.057   7.381  65.773  1.00  0.00    -0.065 C  
HETATM   13  C   UNL     1      -7.849   8.057  64.662  1.00  0.00    -0.140 C  
HETATM   14  S   UNL     1      -7.992   9.807  64.936  1.00  0.00    -0.140 S  
HETATM   15  O   UNL     1      -9.193  10.275  64.279  1.00  0.00    -0.211 OA 
HETATM   16  N   UNL     1      -8.312   9.858  66.570  1.00  0.00    -0.124 N  
HETATM   17  O   UNL     1      -6.706  10.428  64.708  1.00  0.00    -0.115 OA 
HETATM   18  H   UNL     1      -9.108  10.367  66.956  1.00  0.00     0.000 HD 
HETATM   19  C   UNL     1      -7.384   9.132  67.401  1.00  0.00    -0.084 C  
ENDBRANCH  10  11
ENDBRANCH   6  10
TORSDOF 2
ENDMDL
MODEL      194
REMARK 921   NORMALIZED FREE ENERGY PREDICTED BY IDOCK:   -2.24 KCAL/MOL
REMARK 922        TOTAL FREE ENERGY PREDICTED BY IDOCK:   -2.91 KCAL/MOL
REMARK 923 INTER-LIGAND FREE ENERGY PREDICTED BY IDOCK:   -2.76 KCAL/MOL
REMARK 924 INTRA-LIGAND FREE ENERGY PREDICTED BY IDOCK:   -0.15 KCAL/MOL
REMARK 927      BINDING AFFINITY PREDICTED BY RF-SCORE:    0.00 PKD
ROOT
HETATM    1  O   UNL     1     -10.218   9.606  66.555  1.00  0.00    -0.239 OA 
HETATM    2  S   UNL     1      -9.195   9.764  67.562  1.00  0.00    -0.130 S  
HETATM    3  C   UNL     1      -9.919  10.382  69.060  1.00  0.00    -0.214 C  
HETATM    4  O   UNL     1      -7.970  10.485  67.283  1.00  0.00    -0.112 OA 
HETATM    5  C   UNL     1     -10.903   9.361  69.605  1.00  0.00    -0.228 C  
HETATM    6  N   UNL     1     -10.360   8.013  69.858  1.00  0.00    -0.216 NA 
HETATM    7  N   UNL     1      -8.742   8.219  68.054  1.00  0.00    -0.135 N  
HETATM    8  C   UNL     1      -9.834   7.440  68.623  1.00  0.00    -0.163 C  
HETATM    9  H   UNL     1      -7.791   7.862  67.961  1.00  0.00     0.000 HD 
ENDROOT
BRANCH   6  10
HETATM   10  C   UNL     1      -9.374   7.943  70.940  1.00  0.00    -0.153 C  
BRANCH  10  11
HETATM   11  N   UNL     1      -9.995   7.513  72.188  1.00  0.00    -0.173 NA 
HETATM   12  C   UNL     1     -11.286   6.825  72.062  1.00  0.00    -0.272 C  
HETATM   13  C   UNL     1     -11.268   5.379  71.585  1.00  0.00     0.021 C  
HETATM   14  S   UNL     1     -10.072   4.414  72.477  1.00  0.00    -0.182 S  
HETATM   15  O   UNL     1      -9.651   3.316  71.634  1.00  0.00    -0.139 OA 
HETATM   16  N   UNL     1      -8.781   5.466  72.541  1.00  0.00    -0.124 N  
HETATM   17  O   UNL     1     -10.548   4.201  73.825  1.00  0.00    -0.175 OA 
HETATM   18  H   UNL     1      -7.844   5.200  72.240  1.00  0.00     0.000 HD 
HETATM   19  C   UNL     1      -9.085   6.780  73.051  1.00  0.00    -0.127 C  
ENDBRANCH  10  11
ENDBRANCH   6  10
TORSDOF 2
ENDMDL
MODEL      195
REMARK 921   NORMALIZED FREE ENERGY PREDICTED BY IDOCK:   -2.22 KCAL/MOL
REMARK 922        TOTAL FREE ENERGY PREDICTED BY IDOCK:   -2.89 KCAL/MOL
REMARK 923 INTER-LIGAND FREE ENERGY PREDICTED BY IDOCK:   -2.67 KCAL/MOL
REMARK 924 INTRA-LIGAND FREE ENERGY PREDICTED BY IDOCK:   -0.22 KCAL/MOL
REMARK 927      BINDING AFFINITY PREDICTED BY RF-SCORE:    0.00 PKD
ROOT
HETATM    1  O   UNL     1     -10.932   4.563  65.351  1.00  0.00    -0.256 OA 
HETATM    2  S   UNL     1      -9.854   4.423  66.303  1.00  0.00    -0.234 S  
HETATM    3  C   UNL     1      -8.326   4.931  65.557  1.00  0.00    -0.123 C  
HETATM    4  O   UNL     1      -9.651   3.188  67.032  1.00  0.00    -0.147 OA 
HETATM    5  C   UNL     1      -8.401   6.407  65.207  1.00  0.00    -0.131 C  
HETATM    6  N   UNL     1      -8.713   7.320  66.322  1.00  0.00    -0.144 NA 
HETATM    7  N   UNL     1     -10.052   5.635  67.455  1.00  0.00    -0.156 N  
HETATM    8  C   UNL     1     -10.009   6.983  66.903  1.00  0.00    -0.217 C  
HETATM    9  H   UNL     1     -10.190   5.442  68.447  1.00  0.00     0.000 HD 
ENDROOT
BRANCH   6  10
HETATM   10  C   UNL     1      -7.675   7.407  67.352  1.00  0.00    -0.114 C  
BRANCH  10  11
HETATM   11  N   UNL     1      -7.199   8.778  67.502  1.00  0.00    -0.080 NA 
HETATM   12  C   UNL     1      -8.214   9.777  67.857  1.00  0.00    -0.113 C  
HETATM   13  C   UNL     1      -8.703   9.800  69.299  1.00  0.00    -0.164 C  
HETATM   14  S   UNL     1      -7.347   9.777  70.447  1.00  0.00    -0.110 S  
HETATM   15  O   UNL     1      -7.807   9.188  71.685  1.00  0.00    -0.340 OA 
HETATM   16  N   UNL     1      -6.341   8.648  69.746  1.00  0.00    -0.035 N  
HETATM   17  O   UNL     1      -6.679  11.059  70.415  1.00  0.00    -0.263 OA 
HETATM   18  H   UNL     1      -5.974   7.849  70.262  1.00  0.00     0.000 HD 
HETATM   19  C   UNL     1      -6.029   8.882  68.358  1.00  0.00    -0.045 C  
ENDBRANCH  10  11
ENDBRANCH   6  10
TORSDOF 2
ENDMDL
MODEL      196
REMARK 921   NORMALIZED FREE ENERGY PREDICTED BY IDOCK:   -2.22 KCAL/MOL
REMARK 922        TOTAL FREE ENERGY PREDICTED BY IDOCK:   -2.89 KCAL/MOL
REMARK 923 INTER-LIGAND FREE ENERGY PREDICTED BY IDOCK:   -2.67 KCAL/MOL
REMARK 924 INTRA-LIGAND FREE ENERGY PREDICTED BY IDOCK:   -0.21 KCAL/MOL
REMARK 927      BINDING AFFINITY PREDICTED BY RF-SCORE:    0.00 PKD
ROOT
HETATM    1  O   UNL     1     -11.011   9.887  68.769  1.00  0.00    -0.223 OA 
HETATM    2  S   UNL     1     -10.527   8.538  68.593  1.00  0.00    -0.125 S  
HETATM    3  C   UNL     1      -8.985   8.338  69.448  1.00  0.00    -0.147 C  
HETATM    4  O   UNL     1     -10.432   7.939  67.277  1.00  0.00    -0.275 OA 
HETATM    5  C   UNL     1      -9.207   8.522  70.940  1.00  0.00    -0.175 C  
HETATM    6  N   UNL     1     -10.213   7.638  71.557  1.00  0.00    -0.185 NA 
HETATM    7  N   UNL     1     -11.520   7.533  69.508  1.00  0.00    -0.427 N  
HETATM    8  C   UNL     1     -11.516   7.842  70.932  1.00  0.00    -0.281 C  
HETATM    9  H   UNL     1     -12.073   6.777  69.103  1.00  0.00     0.000 HD 
ENDROOT
BRANCH   6  10
HETATM   10  C   UNL     1      -9.849   6.219  71.579  1.00  0.00    -0.173 C  
BRANCH  10  11
HETATM   11  N   UNL     1      -9.399   5.814  72.906  1.00  0.00    -0.144 NA 
HETATM   12  C   UNL     1      -9.766   4.455  73.325  1.00  0.00    -0.129 C  
HETATM   13  C   UNL     1      -8.984   3.298  72.718  1.00  0.00    -0.088 C  
HETATM   14  S   UNL     1      -7.231   3.582  72.803  1.00  0.00    -0.047 S  
HETATM   15  O   UNL     1      -6.597   2.847  71.730  1.00  0.00    -0.018 OA 
HETATM   16  N   UNL     1      -7.137   5.190  72.377  1.00  0.00    -0.086 N  
HETATM   17  O   UNL     1      -6.797   3.452  74.176  1.00  0.00    -0.041 OA 
HETATM   18  H   UNL     1      -6.522   5.524  71.634  1.00  0.00     0.000 HD 
HETATM   19  C   UNL     1      -7.988   6.076  73.132  1.00  0.00    -0.108 C  
ENDBRANCH  10  11
ENDBRANCH   6  10
TORSDOF 2
ENDMDL
MODEL      197
REMARK 921   NORMALIZED FREE ENERGY PREDICTED BY IDOCK:   -2.21 KCAL/MOL
REMARK 922        TOTAL FREE ENERGY PREDICTED BY IDOCK:   -2.88 KCAL/MOL
REMARK 923 INTER-LIGAND FREE ENERGY PREDICTED BY IDOCK:   -2.98 KCAL/MOL
REMARK 924 INTRA-LIGAND FREE ENERGY PREDICTED BY IDOCK:    0.10 KCAL/MOL
REMARK 927      BINDING AFFINITY PREDICTED BY RF-SCORE:    0.00 PKD
ROOT
HETATM    1  O   UNL     1     -12.947  10.894  72.197  1.00  0.00    -0.419 OA 
HETATM    2  S   UNL     1     -13.079   9.947  71.115  1.00  0.00    -0.334 S  
HETATM    3  C   UNL     1     -12.517  10.685  69.602  1.00  0.00    -0.052 C  
HETATM    4  O   UNL     1     -14.323   9.244  70.878  1.00  0.00     0.025 OA 
HETATM    5  C   UNL     1     -11.036  11.003  69.714  1.00  0.00    -0.235 C  
HETATM    6  N   UNL     1     -10.155   9.869  70.049  1.00  0.00    -0.254 NA 
HETATM    7  N   UNL     1     -11.897   8.770  71.342  1.00  0.00    -0.292 N  
HETATM    8  C   UNL     1     -10.537   9.294  71.334  1.00  0.00    -0.347 C  
HETATM    9  H   UNL     1     -12.114   7.782  71.472  1.00  0.00     0.000 HD 
ENDROOT
BRANCH   6  10
HETATM   10  C   UNL     1     -10.063   8.839  69.010  1.00  0.00    -0.198 C  
BRANCH  10  11
HETATM   11  N   UNL     1      -8.748   8.847  68.379  1.00  0.00    -0.134 NA 
HETATM   12  C   UNL     1      -7.998  10.106  68.468  1.00  0.00    -0.104 C  
HETATM   13  C   UNL     1      -7.347  10.443  69.803  1.00  0.00    -0.154 C  
HETATM   14  S   UNL     1      -6.431   9.063  70.447  1.00  0.00    -0.053 S  
HETATM   15  O   UNL     1      -6.379   9.181  71.887  1.00  0.00    -0.191 OA 
HETATM   16  N   UNL     1      -7.470   7.800  70.127  1.00  0.00    -0.081 N  
HETATM   17  O   UNL     1      -5.236   8.877  69.653  1.00  0.00    -0.030 OA 
HETATM   18  H   UNL     1      -7.762   7.137  70.845  1.00  0.00     0.000 HD 
HETATM   19  C   UNL     1      -7.927   7.712  68.762  1.00  0.00    -0.126 C  
ENDBRANCH  10  11
ENDBRANCH   6  10
TORSDOF 2
ENDMDL
MODEL      198
REMARK 921   NORMALIZED FREE ENERGY PREDICTED BY IDOCK:   -2.21 KCAL/MOL
REMARK 922        TOTAL FREE ENERGY PREDICTED BY IDOCK:   -2.88 KCAL/MOL
REMARK 923 INTER-LIGAND FREE ENERGY PREDICTED BY IDOCK:   -4.18 KCAL/MOL
REMARK 924 INTRA-LIGAND FREE ENERGY PREDICTED BY IDOCK:    1.30 KCAL/MOL
REMARK 927      BINDING AFFINITY PREDICTED BY RF-SCORE:    0.00 PKD
ROOT
HETATM    1  O   UNL     1      -9.637  18.380  68.531  1.00  0.00    -0.316 OA 
HETATM    2  S   UNL     1     -10.287  17.097  68.664  1.00  0.00    -0.371 S  
HETATM    3  C   UNL     1     -10.947  16.594  67.096  1.00  0.00    -0.023 C  
HETATM    4  O   UNL     1     -11.267  16.855  69.703  1.00  0.00    -0.049 OA 
HETATM    5  C   UNL     1      -9.809  16.398  66.108  1.00  0.00    -0.338 C  
HETATM    6  N   UNL     1      -8.760  15.443  66.513  1.00  0.00    -0.299 NA 
HETATM    7  N   UNL     1      -9.074  15.948  68.871  1.00  0.00    -0.218 N  
HETATM    8  C   UNL     1      -8.136  15.877  67.758  1.00  0.00    -0.143 C  
HETATM    9  H   UNL     1      -9.003  15.356  69.699  1.00  0.00     0.000 HD 
ENDROOT
BRANCH   6  10
HETATM   10  C   UNL     1      -9.201  14.049  66.594  1.00  0.00    -0.244 C  
BRANCH  10  11
HETATM   11  N   UNL     1     -10.338  13.910  67.498  1.00  0.00    -0.244 NA 
HETATM   12  C   UNL     1     -11.616  13.544  66.875  1.00  0.00    -0.363 C  
HETATM   13  C   UNL     1     -11.797  12.096  66.442  1.00  0.00    -0.246 C  
HETATM   14  S   UNL     1     -11.327  10.967  67.732  1.00  0.00    -0.257 S  
HETATM   15  O   UNL     1     -10.921   9.720  67.121  1.00  0.00    -0.202 OA 
HETATM   16  N   UNL     1      -9.930  11.678  68.298  1.00  0.00    -0.195 N  
HETATM   17  O   UNL     1     -12.317  11.014  68.785  1.00  0.00    -0.533 OA 
HETATM   18  H   UNL     1      -9.053  11.165  68.389  1.00  0.00     0.000 HD 
HETATM   19  C   UNL     1     -10.050  13.072  68.649  1.00  0.00    -0.136 C  
ENDBRANCH  10  11
ENDBRANCH   6  10
TORSDOF 2
ENDMDL
MODEL      199
REMARK 921   NORMALIZED FREE ENERGY PREDICTED BY IDOCK:   -2.20 KCAL/MOL
REMARK 922        TOTAL FREE ENERGY PREDICTED BY IDOCK:   -2.86 KCAL/MOL
REMARK 923 INTER-LIGAND FREE ENERGY PREDICTED BY IDOCK:   -2.58 KCAL/MOL
REMARK 924 INTRA-LIGAND FREE ENERGY PREDICTED BY IDOCK:   -0.28 KCAL/MOL
REMARK 927      BINDING AFFINITY PREDICTED BY RF-SCORE:    0.00 PKD
ROOT
HETATM    1  O   UNL     1     -10.736   4.692  66.047  1.00  0.00    -0.295 OA 
HETATM    2  S   UNL     1      -9.756   4.374  67.059  1.00  0.00    -0.193 S  
HETATM    3  C   UNL     1      -8.464   5.591  67.044  1.00  0.00    -0.110 C  
HETATM    4  O   UNL     1      -9.175   3.051  67.154  1.00  0.00    -0.172 OA 
HETATM    5  C   UNL     1      -9.041   6.946  67.416  1.00  0.00    -0.122 C  
HETATM    6  N   UNL     1      -9.746   7.014  68.710  1.00  0.00    -0.143 NA 
HETATM    7  N   UNL     1     -10.465   4.696  68.552  1.00  0.00     0.194 N  
HETATM    8  C   UNL     1     -10.871   6.086  68.722  1.00  0.00    -0.322 C  
HETATM    9  H   UNL     1     -10.598   3.985  69.270  1.00  0.00     0.000 HD 
ENDROOT
BRANCH   6  10
HETATM   10  C   UNL     1      -8.890   6.829  69.884  1.00  0.00    -0.141 C  
BRANCH  10  11
HETATM   11  N   UNL     1      -8.565   8.109  70.504  1.00  0.00    -0.127 NA 
HETATM   12  C   UNL     1      -9.617   8.707  71.336  1.00  0.00    -0.243 C  
HETATM   13  C   UNL     1      -9.846   8.109  72.717  1.00  0.00    -0.283 C  
HETATM   14  S   UNL     1      -8.318   7.908  73.601  1.00  0.00    -0.250 S  
HETATM   15  O   UNL     1      -8.479   6.831  74.553  1.00  0.00    -0.144 OA 
HETATM   16  N   UNL     1      -7.320   7.317  72.404  1.00  0.00    -0.074 N  
HETATM   17  O   UNL     1      -7.827   9.209  73.997  1.00  0.00    -0.090 OA 
HETATM   18  H   UNL     1      -6.773   6.464  72.519  1.00  0.00     0.000 HD 
HETATM   19  C   UNL     1      -7.286   8.099  71.193  1.00  0.00    -0.065 C  
ENDBRANCH  10  11
ENDBRANCH   6  10
TORSDOF 2
ENDMDL
MODEL      200
REMARK 921   NORMALIZED FREE ENERGY PREDICTED BY IDOCK:   -2.15 KCAL/MOL
REMARK 922        TOTAL FREE ENERGY PREDICTED BY IDOCK:   -2.81 KCAL/MOL
REMARK 923 INTER-LIGAND FREE ENERGY PREDICTED BY IDOCK:   -2.54 KCAL/MOL
REMARK 924 INTRA-LIGAND FREE ENERGY PREDICTED BY IDOCK:   -0.28 KCAL/MOL
REMARK 927      BINDING AFFINITY PREDICTED BY RF-SCORE:    0.00 PKD
ROOT
HETATM    1  O   UNL     1      -9.724  12.360  64.830  1.00  0.00    -0.139 OA 
HETATM    2  S   UNL     1      -9.449  10.942  64.844  1.00  0.00    -0.250 S  
HETATM    3  C   UNL     1      -7.927  10.636  65.705  1.00  0.00    -0.152 C  
HETATM    4  O   UNL     1      -9.484  10.158  63.627  1.00  0.00    -0.282 OA 
HETATM    5  C   UNL     1      -8.074  11.058  67.157  1.00  0.00    -0.134 C  
HETATM    6  N   UNL     1      -9.180  10.430  67.904  1.00  0.00    -0.138 NA 
HETATM    7  N   UNL     1     -10.550  10.236  65.903  1.00  0.00    -0.084 N  
HETATM    8  C   UNL     1     -10.457  10.738  67.268  1.00  0.00    -0.237 C  
HETATM    9  H   UNL     1     -11.220   9.523  65.616  1.00  0.00     0.000 HD 
ENDROOT
BRANCH   6  10
HETATM   10  C   UNL     1      -9.029   8.990  68.125  1.00  0.00    -0.133 C  
BRANCH  10  11
HETATM   11  N   UNL     1      -8.848   8.694  69.542  1.00  0.00    -0.142 NA 
HETATM   12  C   UNL     1      -9.925   7.929  70.184  1.00  0.00    -0.190 C  
HETATM   13  C   UNL     1      -9.996   6.437  69.892  1.00  0.00    -0.168 C  
HETATM   14  S   UNL     1      -8.410   5.659  70.082  1.00  0.00    -0.120 S  
HETATM   15  O   UNL     1      -8.372   4.485  69.239  1.00  0.00    -0.077 OA 
HETATM   16  N   UNL     1      -7.407   6.776  69.359  1.00  0.00    -0.089 N  
HETATM   17  O   UNL     1      -8.079   5.599  71.489  1.00  0.00    -0.114 OA 
HETATM   18  H   UNL     1      -6.744   6.523  68.626  1.00  0.00     0.000 HD 
HETATM   19  C   UNL     1      -7.544   8.128  69.843  1.00  0.00    -0.089 C  
ENDBRANCH  10  11
ENDBRANCH   6  10
TORSDOF 2
ENDMDL
MODEL      201
REMARK 921   NORMALIZED FREE ENERGY PREDICTED BY IDOCK:   -2.15 KCAL/MOL
REMARK 922        TOTAL FREE ENERGY PREDICTED BY IDOCK:   -2.80 KCAL/MOL
REMARK 923 INTER-LIGAND FREE ENERGY PREDICTED BY IDOCK:   -3.04 KCAL/MOL
REMARK 924 INTRA-LIGAND FREE ENERGY PREDICTED BY IDOCK:    0.23 KCAL/MOL
REMARK 927      BINDING AFFINITY PREDICTED BY RF-SCORE:    0.00 PKD
ROOT
HETATM    1  O   UNL     1      -9.416  11.664  67.819  1.00  0.00    -0.170 OA 
HETATM    2  S   UNL     1      -9.466  10.233  67.625  1.00  0.00    -0.152 S  
HETATM    3  C   UNL     1      -8.887   9.410  69.086  1.00  0.00    -0.143 C  
HETATM    4  O   UNL     1      -8.882   9.612  66.455  1.00  0.00    -0.144 OA 
HETATM    5  C   UNL     1      -9.819   9.719  70.245  1.00  0.00    -0.240 C  
HETATM    6  N   UNL     1     -11.240   9.380  70.038  1.00  0.00    -0.223 NA 
HETATM    7  N   UNL     1     -11.090   9.790  67.645  1.00  0.00    -0.455 N  
HETATM    8  C   UNL     1     -11.772  10.111  68.892  1.00  0.00     0.105 C  
HETATM    9  H   UNL     1     -11.554   9.338  66.857  1.00  0.00     0.000 HD 
ENDROOT
BRANCH   6  10
HETATM   10  C   UNL     1     -11.518   7.946  69.930  1.00  0.00     0.144 C  
BRANCH  10  11
HETATM   11  N   UNL     1     -12.039   7.417  71.186  1.00  0.00    -0.321 NA 
HETATM   12  C   UNL     1     -11.889   5.971  71.388  1.00  0.00     0.028 C  
HETATM   13  C   UNL     1     -10.506   5.453  71.757  1.00  0.00    -0.226 C  
HETATM   14  S   UNL     1      -9.788   6.398  73.080  1.00  0.00    -0.170 S  
HETATM   15  O   UNL     1      -8.348   6.313  72.972  1.00  0.00    -0.117 OA 
HETATM   16  N   UNL     1     -10.191   7.951  72.631  1.00  0.00    -0.270 N  
HETATM   17  O   UNL     1     -10.480   6.090  74.311  1.00  0.00    -0.280 OA 
HETATM   18  H   UNL     1      -9.499   8.698  72.560  1.00  0.00     0.000 HD 
HETATM   19  C   UNL     1     -11.589   8.165  72.348  1.00  0.00    -0.399 C  
ENDBRANCH  10  11
ENDBRANCH   6  10
TORSDOF 2
ENDMDL
MODEL      202
REMARK 921   NORMALIZED FREE ENERGY PREDICTED BY IDOCK:   -2.12 KCAL/MOL
REMARK 922        TOTAL FREE ENERGY PREDICTED BY IDOCK:   -2.78 KCAL/MOL
REMARK 923 INTER-LIGAND FREE ENERGY PREDICTED BY IDOCK:   -2.41 KCAL/MOL
REMARK 924 INTRA-LIGAND FREE ENERGY PREDICTED BY IDOCK:   -0.37 KCAL/MOL
REMARK 927      BINDING AFFINITY PREDICTED BY RF-SCORE:    0.00 PKD
ROOT
HETATM    1  O   UNL     1      -8.820   5.099  64.646  1.00  0.00    -0.147 OA 
HETATM    2  S   UNL     1      -7.862   5.981  65.271  1.00  0.00    -0.113 S  
HETATM    3  C   UNL     1      -8.711   7.168  66.280  1.00  0.00    -0.146 C  
HETATM    4  O   UNL     1      -6.838   6.649  64.495  1.00  0.00    -0.044 OA 
HETATM    5  C   UNL     1      -9.432   6.449  67.408  1.00  0.00    -0.116 C  
HETATM    6  N   UNL     1      -8.591   5.600  68.274  1.00  0.00    -0.108 NA 
HETATM    7  N   UNL     1      -7.064   5.086  66.452  1.00  0.00    -0.071 N  
HETATM    8  C   UNL     1      -7.946   4.557  67.484  1.00  0.00    -0.100 C  
HETATM    9  H   UNL     1      -6.056   4.930  66.446  1.00  0.00     0.000 HD 
ENDROOT
BRANCH   6  10
HETATM   10  C   UNL     1      -7.617   6.332  69.088  1.00  0.00    -0.099 C  
BRANCH  10  11
HETATM   11  N   UNL     1      -7.838   6.093  70.510  1.00  0.00    -0.104 NA 
HETATM   12  C   UNL     1      -7.234   7.066  71.429  1.00  0.00    -0.078 C  
HETATM   13  C   UNL     1      -7.913   8.422  71.562  1.00  0.00    -0.130 C  
HETATM   14  S   UNL     1      -9.664   8.251  71.815  1.00  0.00    -0.237 S  
HETATM   15  O   UNL     1     -10.315   9.446  71.323  1.00  0.00    -0.317 OA 
HETATM   16  N   UNL     1     -10.037   7.044  70.728  1.00  0.00    -0.194 N  
HETATM   17  O   UNL     1      -9.902   7.747  73.149  1.00  0.00    -0.252 OA 
HETATM   18  H   UNL     1     -10.780   7.142  70.036  1.00  0.00     0.000 HD 
HETATM   19  C   UNL     1      -9.234   5.852  70.836  1.00  0.00    -0.153 C  
ENDBRANCH  10  11
ENDBRANCH   6  10
TORSDOF 2
ENDMDL
MODEL      203
REMARK 921   NORMALIZED FREE ENERGY PREDICTED BY IDOCK:   -2.09 KCAL/MOL
REMARK 922        TOTAL FREE ENERGY PREDICTED BY IDOCK:   -2.74 KCAL/MOL
REMARK 923 INTER-LIGAND FREE ENERGY PREDICTED BY IDOCK:   -2.67 KCAL/MOL
REMARK 924 INTRA-LIGAND FREE ENERGY PREDICTED BY IDOCK:   -0.07 KCAL/MOL
REMARK 927      BINDING AFFINITY PREDICTED BY RF-SCORE:    0.00 PKD
ROOT
HETATM    1  O   UNL     1     -10.637   4.137  72.840  1.00  0.00    -0.171 OA 
HETATM    2  S   UNL     1      -9.985   5.426  72.836  1.00  0.00    -0.173 S  
HETATM    3  C   UNL     1      -8.822   5.505  71.499  1.00  0.00    -0.136 C  
HETATM    4  O   UNL     1      -9.381   5.967  74.036  1.00  0.00    -0.127 OA 
HETATM    5  C   UNL     1      -9.563   5.395  70.177  1.00  0.00    -0.177 C  
HETATM    6  N   UNL     1     -10.624   6.393  69.946  1.00  0.00    -0.220 NA 
HETATM    7  N   UNL     1     -11.124   6.554  72.321  1.00  0.00    -0.251 N  
HETATM    8  C   UNL     1     -11.644   6.295  70.984  1.00  0.00    -0.272 C  
HETATM    9  H   UNL     1     -11.422   7.345  72.892  1.00  0.00     0.000 HD 
ENDROOT
BRANCH   6  10
HETATM   10  C   UNL     1     -10.146   7.770  69.797  1.00  0.00    -0.194 C  
BRANCH  10  11
HETATM   11  N   UNL     1     -10.068   8.149  68.391  1.00  0.00    -0.195 NA 
HETATM   12  C   UNL     1      -9.950   9.586  68.115  1.00  0.00    -0.165 C  
HETATM   13  C   UNL     1      -8.596  10.239  68.356  1.00  0.00    -0.125 C  
HETATM   14  S   UNL     1      -7.280   9.300  67.617  1.00  0.00    -0.083 S  
HETATM   15  O   UNL     1      -6.063   9.563  68.353  1.00  0.00    -0.044 OA 
HETATM   16  N   UNL     1      -7.727   7.743  68.008  1.00  0.00    -0.123 N  
HETATM   17  O   UNL     1      -7.348   9.442  66.180  1.00  0.00    -0.093 OA 
HETATM   18  H   UNL     1      -7.092   7.091  68.468  1.00  0.00     0.000 HD 
HETATM   19  C   UNL     1      -9.078   7.384  67.651  1.00  0.00    -0.125 C  
ENDBRANCH  10  11
ENDBRANCH   6  10
TORSDOF 2
ENDMDL
MODEL      204
REMARK 921   NORMALIZED FREE ENERGY PREDICTED BY IDOCK:   -2.07 KCAL/MOL
REMARK 922        TOTAL FREE ENERGY PREDICTED BY IDOCK:   -2.72 KCAL/MOL
REMARK 923 INTER-LIGAND FREE ENERGY PREDICTED BY IDOCK:   -2.74 KCAL/MOL
REMARK 924 INTRA-LIGAND FREE ENERGY PREDICTED BY IDOCK:    0.02 KCAL/MOL
REMARK 927      BINDING AFFINITY PREDICTED BY RF-SCORE:    0.00 PKD
ROOT
HETATM    1  O   UNL     1     -10.704   4.208  72.811  1.00  0.00    -0.174 OA 
HETATM    2  S   UNL     1      -9.865   5.373  72.651  1.00  0.00    -0.161 S  
HETATM    3  C   UNL     1      -8.544   5.009  71.524  1.00  0.00    -0.124 C  
HETATM    4  O   UNL     1      -9.341   6.086  73.798  1.00  0.00    -0.127 OA 
HETATM    5  C   UNL     1      -9.120   4.703  70.152  1.00  0.00    -0.098 C  
HETATM    6  N   UNL     1      -9.976   5.750  69.562  1.00  0.00    -0.176 NA 
HETATM    7  N   UNL     1     -10.741   6.492  71.748  1.00  0.00    -0.223 N  
HETATM    8  C   UNL     1     -11.122   6.011  70.426  1.00  0.00    -0.329 C  
HETATM    9  H   UNL     1     -10.982   7.420  72.095  1.00  0.00     0.000 HD 
ENDROOT
BRANCH   6  10
HETATM   10  C   UNL     1      -9.275   6.989  69.217  1.00  0.00    -0.139 C  
BRANCH  10  11
HETATM   11  N   UNL     1      -9.320   7.234  67.779  1.00  0.00    -0.128 NA 
HETATM   12  C   UNL     1      -8.060   7.033  67.052  1.00  0.00    -0.117 C  
HETATM   13  C   UNL     1      -7.625   5.599  66.784  1.00  0.00    -0.092 C  
HETATM   14  S   UNL     1      -8.955   4.630  66.113  1.00  0.00    -0.126 S  
HETATM   15  O   UNL     1      -8.726   3.243  66.454  1.00  0.00    -0.116 OA 
HETATM   16  N   UNL     1     -10.235   5.130  67.055  1.00  0.00    -0.216 N  
HETATM   17  O   UNL     1      -9.205   5.048  64.752  1.00  0.00    -0.111 OA 
HETATM   18  H   UNL     1     -10.840   4.474  67.549  1.00  0.00     0.000 HD 
HETATM   19  C   UNL     1     -10.426   6.558  67.123  1.00  0.00    -0.287 C  
ENDBRANCH  10  11
ENDBRANCH   6  10
TORSDOF 2
ENDMDL
MODEL      205
REMARK 921   NORMALIZED FREE ENERGY PREDICTED BY IDOCK:   -2.06 KCAL/MOL
REMARK 922        TOTAL FREE ENERGY PREDICTED BY IDOCK:   -2.71 KCAL/MOL
REMARK 923 INTER-LIGAND FREE ENERGY PREDICTED BY IDOCK:   -2.38 KCAL/MOL
REMARK 924 INTRA-LIGAND FREE ENERGY PREDICTED BY IDOCK:   -0.33 KCAL/MOL
REMARK 927      BINDING AFFINITY PREDICTED BY RF-SCORE:    0.00 PKD
ROOT
HETATM    1  O   UNL     1     -10.535  10.564  65.981  1.00  0.00    -0.225 OA 
HETATM    2  S   UNL     1      -9.192  10.167  66.331  1.00  0.00    -0.163 S  
HETATM    3  C   UNL     1      -8.934  10.394  68.072  1.00  0.00    -0.129 C  
HETATM    4  O   UNL     1      -8.045  10.669  65.602  1.00  0.00    -0.160 OA 
HETATM    5  C   UNL     1      -9.867   9.478  68.845  1.00  0.00    -0.174 C  
HETATM    6  N   UNL     1      -9.767   8.040  68.531  1.00  0.00    -0.155 NA 
HETATM    7  N   UNL     1      -9.130   8.488  66.227  1.00  0.00    -0.173 N  
HETATM    8  C   UNL     1     -10.060   7.809  67.121  1.00  0.00    -0.258 C  
HETATM    9  H   UNL     1      -8.500   7.991  65.597  1.00  0.00     0.000 HD 
ENDROOT
BRANCH   6  10
HETATM   10  C   UNL     1      -8.500   7.416  68.921  1.00  0.00    -0.129 C  
BRANCH  10  11
HETATM   11  N   UNL     1      -8.635   6.701  70.186  1.00  0.00    -0.139 NA 
HETATM   12  C   UNL     1      -9.756   5.758  70.276  1.00  0.00    -0.175 C  
HETATM   13  C   UNL     1      -9.614   4.427  69.551  1.00  0.00    -0.201 C  
HETATM   14  S   UNL     1      -8.052   3.656  69.905  1.00  0.00    -0.052 S  
HETATM   15  O   UNL     1      -7.704   2.799  68.793  1.00  0.00    -0.047 OA 
HETATM   16  N   UNL     1      -7.016   4.959  69.823  1.00  0.00    -0.052 N  
HETATM   17  O   UNL     1      -8.061   3.171  71.267  1.00  0.00    -0.060 OA 
HETATM   18  H   UNL     1      -6.177   4.955  69.243  1.00  0.00     0.000 HD 
HETATM   19  C   UNL     1      -7.392   6.093  70.630  1.00  0.00    -0.086 C  
ENDBRANCH  10  11
ENDBRANCH   6  10
TORSDOF 2
ENDMDL
MODEL      206
REMARK 921   NORMALIZED FREE ENERGY PREDICTED BY IDOCK:   -2.00 KCAL/MOL
REMARK 922        TOTAL FREE ENERGY PREDICTED BY IDOCK:   -2.64 KCAL/MOL
REMARK 923 INTER-LIGAND FREE ENERGY PREDICTED BY IDOCK:   -2.16 KCAL/MOL
REMARK 924 INTRA-LIGAND FREE ENERGY PREDICTED BY IDOCK:   -0.48 KCAL/MOL
REMARK 927      BINDING AFFINITY PREDICTED BY RF-SCORE:    0.00 PKD
ROOT
HETATM    1  O   UNL     1     -10.388   4.085  72.236  1.00  0.00    -0.175 OA 
HETATM    2  S   UNL     1     -10.176   5.356  71.585  1.00  0.00    -0.215 S  
HETATM    3  C   UNL     1      -8.436   5.686  71.469  1.00  0.00    -0.128 C  
HETATM    4  O   UNL     1     -10.867   6.551  72.024  1.00  0.00    -0.221 OA 
HETATM    5  C   UNL     1      -7.780   4.637  70.587  1.00  0.00    -0.054 C  
HETATM    6  N   UNL     1      -8.333   4.501  69.225  1.00  0.00    -0.078 NA 
HETATM    7  N   UNL     1     -10.559   5.148  69.959  1.00  0.00    -0.241 N  
HETATM    8  C   UNL     1      -9.745   4.143  69.287  1.00  0.00    -0.149 C  
HETATM    9  H   UNL     1     -11.294   5.677  69.488  1.00  0.00     0.000 HD 
ENDROOT
BRANCH   6  10
HETATM   10  C   UNL     1      -8.114   5.662  68.358  1.00  0.00    -0.103 C  
BRANCH  10  11
HETATM   11  N   UNL     1      -8.808   5.503  67.085  1.00  0.00    -0.107 NA 
HETATM   12  C   UNL     1      -9.510   6.690  66.581  1.00  0.00    -0.164 C  
HETATM   13  C   UNL     1      -8.665   7.799  65.970  1.00  0.00    -0.161 C  
HETATM   14  S   UNL     1      -7.497   7.155  64.795  1.00  0.00    -0.104 S  
HETATM   15  O   UNL     1      -6.371   8.061  64.728  1.00  0.00    -0.048 OA 
HETATM   16  N   UNL     1      -6.948   5.797  65.588  1.00  0.00    -0.066 N  
HETATM   17  O   UNL     1      -8.206   6.731  63.608  1.00  0.00    -0.041 OA 
HETATM   18  H   UNL     1      -5.956   5.611  65.732  1.00  0.00     0.000 HD 
HETATM   19  C   UNL     1      -7.977   4.902  66.056  1.00  0.00    -0.107 C  
ENDBRANCH  10  11
ENDBRANCH   6  10
TORSDOF 2
ENDMDL
MODEL      207
REMARK 921   NORMALIZED FREE ENERGY PREDICTED BY IDOCK:   -1.94 KCAL/MOL
REMARK 922        TOTAL FREE ENERGY PREDICTED BY IDOCK:   -2.58 KCAL/MOL
REMARK 923 INTER-LIGAND FREE ENERGY PREDICTED BY IDOCK:   -2.65 KCAL/MOL
REMARK 924 INTRA-LIGAND FREE ENERGY PREDICTED BY IDOCK:    0.08 KCAL/MOL
REMARK 927      BINDING AFFINITY PREDICTED BY RF-SCORE:    0.00 PKD
ROOT
HETATM    1  O   UNL     1     -11.051   9.242  69.398  1.00  0.00    -0.170 OA 
HETATM    2  S   UNL     1     -11.040   8.769  70.762  1.00  0.00    -0.269 S  
HETATM    3  C   UNL     1     -11.923   7.234  70.871  1.00  0.00    -0.305 C  
HETATM    4  O   UNL     1     -11.428   9.630  71.860  1.00  0.00    -0.300 OA 
HETATM    5  C   UNL     1     -11.207   6.179  70.045  1.00  0.00    -0.401 C  
HETATM    6  N   UNL     1      -9.792   5.941  70.388  1.00  0.00    -0.176 NA 
HETATM    7  N   UNL     1      -9.473   8.247  71.091  1.00  0.00    -0.156 N  
HETATM    8  C   UNL     1      -9.020   7.167  70.224  1.00  0.00    -0.152 C  
HETATM    9  H   UNL     1      -8.896   8.650  71.830  1.00  0.00     0.000 HD 
ENDROOT
BRANCH   6  10
HETATM   10  C   UNL     1      -9.575   5.347  71.710  1.00  0.00    -0.149 C  
BRANCH  10  11
HETATM   11  N   UNL     1      -9.026   4.000  71.596  1.00  0.00    -0.114 NA 
HETATM   12  C   UNL     1      -9.384   3.258  70.380  1.00  0.00    -0.167 C  
HETATM   13  C   UNL     1      -8.678   3.645  69.088  1.00  0.00    -0.091 C  
HETATM   14  S   UNL     1      -6.919   3.758  69.316  1.00  0.00    -0.046 S  
HETATM   15  O   UNL     1      -6.391   4.682  68.335  1.00  0.00    -0.034 OA 
HETATM   16  N   UNL     1      -6.828   4.544  70.783  1.00  0.00    -0.035 N  
HETATM   17  O   UNL     1      -6.377   2.428  69.481  1.00  0.00    -0.028 OA 
HETATM   18  H   UNL     1      -6.269   5.387  70.918  1.00  0.00     0.000 HD 
HETATM   19  C   UNL     1      -7.596   3.947  71.847  1.00  0.00    -0.061 C  
ENDBRANCH  10  11
ENDBRANCH   6  10
TORSDOF 2
ENDMDL
MODEL      208
REMARK 921   NORMALIZED FREE ENERGY PREDICTED BY IDOCK:   -1.90 KCAL/MOL
REMARK 922        TOTAL FREE ENERGY PREDICTED BY IDOCK:   -2.54 KCAL/MOL
REMARK 923 INTER-LIGAND FREE ENERGY PREDICTED BY IDOCK:   -2.26 KCAL/MOL
REMARK 924 INTRA-LIGAND FREE ENERGY PREDICTED BY IDOCK:   -0.27 KCAL/MOL
REMARK 927      BINDING AFFINITY PREDICTED BY RF-SCORE:    0.00 PKD
ROOT
HETATM    1  O   UNL     1     -12.433  10.442  71.954  1.00  0.00    -0.356 OA 
HETATM    2  S   UNL     1     -12.414   9.286  71.088  1.00  0.00    -0.234 S  
HETATM    3  C   UNL     1     -11.898   9.767  69.460  1.00  0.00     0.264 C  
HETATM    4  O   UNL     1     -13.554   8.398  70.993  1.00  0.00    -0.055 OA 
HETATM    5  C   UNL     1     -10.472  10.287  69.514  1.00  0.00    -0.244 C  
HETATM    6  N   UNL     1      -9.469   9.365  70.079  1.00  0.00    -0.211 NA 
HETATM    7  N   UNL     1     -11.104   8.338  71.559  1.00  0.00    -0.248 N  
HETATM    8  C   UNL     1      -9.819   9.018  71.452  1.00  0.00    -0.311 C  
HETATM    9  H   UNL     1     -11.202   7.378  71.887  1.00  0.00     0.000 HD 
ENDROOT
BRANCH   6  10
HETATM   10  C   UNL     1      -9.218   8.166  69.274  1.00  0.00    -0.151 C  
BRANCH  10  11
HETATM   11  N   UNL     1      -9.044   8.507  67.866  1.00  0.00    -0.140 NA 
HETATM   12  C   UNL     1      -7.726   9.032  67.489  1.00  0.00    -0.096 C  
HETATM   13  C   UNL     1      -6.579   8.038  67.379  1.00  0.00    -0.058 C  
HETATM   14  S   UNL     1      -7.040   6.615  66.418  1.00  0.00    -0.069 S  
HETATM   15  O   UNL     1      -6.231   5.495  66.844  1.00  0.00    -0.032 OA 
HETATM   16  N   UNL     1      -8.576   6.316  66.990  1.00  0.00    -0.105 N  
HETATM   17  O   UNL     1      -7.142   6.997  65.027  1.00  0.00    -0.059 OA 
HETATM   18  H   UNL     1      -8.864   5.399  67.331  1.00  0.00     0.000 HD 
HETATM   19  C   UNL     1      -9.470   7.448  66.968  1.00  0.00    -0.158 C  
ENDBRANCH  10  11
ENDBRANCH   6  10
TORSDOF 2
ENDMDL
MODEL      209
REMARK 921   NORMALIZED FREE ENERGY PREDICTED BY IDOCK:   -1.89 KCAL/MOL
REMARK 922        TOTAL FREE ENERGY PREDICTED BY IDOCK:   -2.52 KCAL/MOL
REMARK 923 INTER-LIGAND FREE ENERGY PREDICTED BY IDOCK:   -2.71 KCAL/MOL
REMARK 924 INTRA-LIGAND FREE ENERGY PREDICTED BY IDOCK:    0.18 KCAL/MOL
REMARK 927      BINDING AFFINITY PREDICTED BY RF-SCORE:    0.00 PKD
ROOT
HETATM    1  O   UNL     1     -10.305   7.100  67.033  1.00  0.00    -0.242 OA 
HETATM    2  S   UNL     1      -9.478   6.224  67.830  1.00  0.00    -0.118 S  
HETATM    3  C   UNL     1      -8.549   7.179  69.003  1.00  0.00    -0.129 C  
HETATM    4  O   UNL     1      -8.613   5.240  67.213  1.00  0.00    -0.107 OA 
HETATM    5  C   UNL     1      -9.504   7.862  69.967  1.00  0.00    -0.157 C  
HETATM    6  N   UNL     1     -10.428   6.975  70.699  1.00  0.00    -0.208 NA 
HETATM    7  N   UNL     1     -10.505   5.380  68.863  1.00  0.00    -0.198 N  
HETATM    8  C   UNL     1     -11.268   6.238  69.761  1.00  0.00    -0.430 C  
HETATM    9  H   UNL     1     -10.585   4.364  68.861  1.00  0.00     0.000 HD 
ENDROOT
BRANCH   6  10
HETATM   10  C   UNL     1      -9.781   6.074  71.656  1.00  0.00    -0.158 C  
BRANCH  10  11
HETATM   11  N   UNL     1     -10.524   4.825  71.786  1.00  0.00    -0.157 NA 
HETATM   12  C   UNL     1      -9.907   3.642  71.173  1.00  0.00    -0.130 C  
HETATM   13  C   UNL     1      -8.731   3.006  71.902  1.00  0.00    -0.077 C  
HETATM   14  S   UNL     1      -9.088   2.766  73.627  1.00  0.00    -0.081 S  
HETATM   15  O   UNL     1      -7.838   2.772  74.356  1.00  0.00    -0.057 OA 
HETATM   16  N   UNL     1      -9.849   4.199  74.008  1.00  0.00    -0.116 N  
HETATM   17  O   UNL     1     -10.047   1.694  73.767  1.00  0.00    -0.079 OA 
HETATM   18  H   UNL     1      -9.556   4.782  74.793  1.00  0.00     0.000 HD 
HETATM   19  C   UNL     1     -10.950   4.556  73.148  1.00  0.00    -0.264 C  
ENDBRANCH  10  11
ENDBRANCH   6  10
TORSDOF 2
ENDMDL
MODEL      210
REMARK 921   NORMALIZED FREE ENERGY PREDICTED BY IDOCK:   -1.86 KCAL/MOL
REMARK 922        TOTAL FREE ENERGY PREDICTED BY IDOCK:   -2.49 KCAL/MOL
REMARK 923 INTER-LIGAND FREE ENERGY PREDICTED BY IDOCK:   -2.54 KCAL/MOL
REMARK 924 INTRA-LIGAND FREE ENERGY PREDICTED BY IDOCK:    0.05 KCAL/MOL
REMARK 927      BINDING AFFINITY PREDICTED BY RF-SCORE:    0.00 PKD
ROOT
HETATM    1  O   UNL     1      -9.696   9.447  71.269  1.00  0.00    -0.262 OA 
HETATM    2  S   UNL     1      -9.017   8.294  71.812  1.00  0.00    -0.202 S  
HETATM    3  C   UNL     1      -9.857   6.813  71.313  1.00  0.00    -0.176 C  
HETATM    4  O   UNL     1      -8.684   8.211  73.219  1.00  0.00    -0.215 OA 
HETATM    5  C   UNL     1      -9.789   6.678  69.802  1.00  0.00    -0.162 C  
HETATM    6  N   UNL     1      -8.436   6.681  69.213  1.00  0.00    -0.124 NA 
HETATM    7  N   UNL     1      -7.571   8.128  70.966  1.00  0.00    -0.077 N  
HETATM    8  C   UNL     1      -7.749   7.927  69.533  1.00  0.00    -0.104 C  
HETATM    9  H   UNL     1      -6.656   8.165  71.414  1.00  0.00     0.000 HD 
ENDROOT
BRANCH   6  10
HETATM   10  C   UNL     1      -7.617   5.516  69.558  1.00  0.00    -0.071 C  
BRANCH  10  11
HETATM   11  N   UNL     1      -7.248   4.762  68.365  1.00  0.00    -0.061 NA 
HETATM   12  C   UNL     1      -7.953   3.490  68.163  1.00  0.00    -0.071 C  
HETATM   13  C   UNL     1      -9.391   3.555  67.665  1.00  0.00    -0.204 C  
HETATM   14  S   UNL     1      -9.547   4.644  66.269  1.00  0.00    -0.205 S  
HETATM   15  O   UNL     1     -10.902   5.150  66.235  1.00  0.00    -0.296 OA 
HETATM   16  N   UNL     1      -8.590   5.924  66.741  1.00  0.00    -0.112 N  
HETATM   17  O   UNL     1      -8.936   4.024  65.115  1.00  0.00    -0.122 OA 
HETATM   18  H   UNL     1      -8.924   6.888  66.735  1.00  0.00     0.000 HD 
HETATM   19  C   UNL     1      -7.255   5.571  67.158  1.00  0.00    -0.075 C  
ENDBRANCH  10  11
ENDBRANCH   6  10
TORSDOF 2
ENDMDL
MODEL      211
REMARK 921   NORMALIZED FREE ENERGY PREDICTED BY IDOCK:   -1.83 KCAL/MOL
REMARK 922        TOTAL FREE ENERGY PREDICTED BY IDOCK:   -2.46 KCAL/MOL
REMARK 923 INTER-LIGAND FREE ENERGY PREDICTED BY IDOCK:   -2.14 KCAL/MOL
REMARK 924 INTRA-LIGAND FREE ENERGY PREDICTED BY IDOCK:   -0.32 KCAL/MOL
REMARK 927      BINDING AFFINITY PREDICTED BY RF-SCORE:    0.00 PKD
ROOT
HETATM    1  O   UNL     1      -7.227   9.566  71.618  1.00  0.00    -0.307 OA 
HETATM    2  S   UNL     1      -6.494   8.978  70.520  1.00  0.00    -0.058 S  
HETATM    3  C   UNL     1      -7.536   7.837  69.648  1.00  0.00    -0.090 C  
HETATM    4  O   UNL     1      -5.187   8.386  70.720  1.00  0.00    -0.025 OA 
HETATM    5  C   UNL     1      -8.703   8.588  69.031  1.00  0.00    -0.134 C  
HETATM    6  N   UNL     1      -8.350   9.700  68.127  1.00  0.00    -0.117 NA 
HETATM    7  N   UNL     1      -6.305  10.178  69.354  1.00  0.00    -0.045 N  
HETATM    8  C   UNL     1      -7.565  10.701  68.841  1.00  0.00    -0.113 C  
HETATM    9  H   UNL     1      -5.394  10.507  69.036  1.00  0.00     0.000 HD 
ENDROOT
BRANCH   6  10
HETATM   10  C   UNL     1      -7.691   9.292  66.884  1.00  0.00    -0.094 C  
BRANCH  10  11
HETATM   11  N   UNL     1      -8.656   8.757  65.930  1.00  0.00    -0.144 NA 
HETATM   12  C   UNL     1      -9.827   9.599  65.656  1.00  0.00    -0.299 C  
HETATM   13  C   UNL     1      -9.626  10.811  64.756  1.00  0.00    -0.262 C  
HETATM   14  S   UNL     1      -8.740  10.383  63.276  1.00  0.00    -0.220 S  
HETATM   15  O   UNL     1      -8.051  11.563  62.799  1.00  0.00     0.151 OA 
HETATM   16  N   UNL     1      -7.559   9.374  63.879  1.00  0.00    -0.113 N  
HETATM   17  O   UNL     1      -9.604   9.605  62.417  1.00  0.00    -0.119 OA 
HETATM   18  H   UNL     1      -6.568   9.513  63.683  1.00  0.00     0.000 HD 
HETATM   19  C   UNL     1      -8.039   8.290  64.700  1.00  0.00    -0.150 C  
ENDBRANCH  10  11
ENDBRANCH   6  10
TORSDOF 2
ENDMDL
MODEL      212
REMARK 921   NORMALIZED FREE ENERGY PREDICTED BY IDOCK:   -1.82 KCAL/MOL
REMARK 922        TOTAL FREE ENERGY PREDICTED BY IDOCK:   -2.44 KCAL/MOL
REMARK 923 INTER-LIGAND FREE ENERGY PREDICTED BY IDOCK:   -3.75 KCAL/MOL
REMARK 924 INTRA-LIGAND FREE ENERGY PREDICTED BY IDOCK:    1.31 KCAL/MOL
REMARK 927      BINDING AFFINITY PREDICTED BY RF-SCORE:    0.00 PKD
ROOT
HETATM    1  O   UNL     1      -9.165   7.536  67.856  1.00  0.00    -0.136 OA 
HETATM    2  S   UNL     1      -9.751   8.791  68.263  1.00  0.00    -0.163 S  
HETATM    3  C   UNL     1      -8.492  10.040  68.347  1.00  0.00    -0.112 C  
HETATM    4  O   UNL     1     -10.601   8.881  69.432  1.00  0.00    -0.227 OA 
HETATM    5  C   UNL     1      -7.911  10.266  66.962  1.00  0.00    -0.111 C  
HETATM    6  N   UNL     1      -8.877  10.632  65.909  1.00  0.00    -0.168 NA 
HETATM    7  N   UNL     1     -10.660   9.357  66.964  1.00  0.00    -0.233 N  
HETATM    8  C   UNL     1      -9.878   9.582  65.754  1.00  0.00    -0.293 C  
HETATM    9  H   UNL     1     -11.664   9.527  67.018  1.00  0.00     0.000 HD 
ENDROOT
BRANCH   6  10
HETATM   10  C   UNL     1      -9.505  11.945  66.083  1.00  0.00    -0.231 C  
BRANCH  10  11
HETATM   11  N   UNL     1     -10.112  12.064  67.404  1.00  0.00    -0.193 NA 
HETATM   12  C   UNL     1      -9.412  12.931  68.360  1.00  0.00    -0.162 C  
HETATM   13  C   UNL     1      -9.548  14.436  68.174  1.00  0.00    -0.218 C  
HETATM   14  S   UNL     1     -11.245  14.913  67.946  1.00  0.00    -0.326 S  
HETATM   15  O   UNL     1     -11.275  16.143  67.185  1.00  0.00    -0.131 OA 
HETATM   16  N   UNL     1     -11.786  13.721  66.915  1.00  0.00    -0.389 N  
HETATM   17  O   UNL     1     -11.947  14.776  69.203  1.00  0.00    -0.303 OA 
HETATM   18  H   UNL     1     -12.263  13.931  66.038  1.00  0.00     0.000 HD 
HETATM   19  C   UNL     1     -11.531  12.370  67.351  1.00  0.00    -0.352 C  
ENDBRANCH  10  11
ENDBRANCH   6  10
TORSDOF 2
ENDMDL
MODEL      213
REMARK 921   NORMALIZED FREE ENERGY PREDICTED BY IDOCK:   -1.81 KCAL/MOL
REMARK 922        TOTAL FREE ENERGY PREDICTED BY IDOCK:   -2.43 KCAL/MOL
REMARK 923 INTER-LIGAND FREE ENERGY PREDICTED BY IDOCK:   -2.14 KCAL/MOL
REMARK 924 INTRA-LIGAND FREE ENERGY PREDICTED BY IDOCK:   -0.29 KCAL/MOL
REMARK 927      BINDING AFFINITY PREDICTED BY RF-SCORE:    0.00 PKD
ROOT
HETATM    1  O   UNL     1      -6.565  12.356  67.654  1.00  0.00    -0.099 OA 
HETATM    2  S   UNL     1      -7.636  11.683  66.956  1.00  0.00    -0.141 S  
HETATM    3  C   UNL     1      -6.959  10.554  65.767  1.00  0.00    -0.125 C  
HETATM    4  O   UNL     1      -8.725  12.425  66.356  1.00  0.00    -0.119 OA 
HETATM    5  C   UNL     1      -6.171   9.474  66.487  1.00  0.00    -0.065 C  
HETATM    6  N   UNL     1      -6.910   8.706  67.507  1.00  0.00    -0.070 NA 
HETATM    7  N   UNL     1      -8.333  10.604  68.045  1.00  0.00    -0.116 N  
HETATM    8  C   UNL     1      -7.406   9.598  68.549  1.00  0.00    -0.078 C  
HETATM    9  H   UNL     1      -9.312  10.650  68.325  1.00  0.00     0.000 HD 
ENDROOT
BRANCH   6  10
HETATM   10  C   UNL     1      -7.980   7.858  66.977  1.00  0.00    -0.112 C  
BRANCH  10  11
HETATM   11  N   UNL     1      -7.457   6.571  66.530  1.00  0.00    -0.084 NA 
HETATM   12  C   UNL     1      -7.724   5.426  67.409  1.00  0.00    -0.096 C  
HETATM   13  C   UNL     1      -9.131   4.845  67.400  1.00  0.00    -0.117 C  
HETATM   14  S   UNL     1      -9.712   4.574  65.742  1.00  0.00    -0.219 S  
HETATM   15  O   UNL     1     -11.157   4.637  65.749  1.00  0.00    -0.138 OA 
HETATM   16  N   UNL     1      -9.194   5.962  64.980  1.00  0.00    -0.330 N  
HETATM   17  O   UNL     1      -9.000   3.453  65.170  1.00  0.00    -0.126 OA 
HETATM   18  H   UNL     1      -9.821   6.553  64.434  1.00  0.00     0.000 HD 
HETATM   19  C   UNL     1      -7.795   6.270  65.149  1.00  0.00    -0.109 C  
ENDBRANCH  10  11
ENDBRANCH   6  10
TORSDOF 2
ENDMDL
MODEL      214
REMARK 921   NORMALIZED FREE ENERGY PREDICTED BY IDOCK:   -1.68 KCAL/MOL
REMARK 922        TOTAL FREE ENERGY PREDICTED BY IDOCK:   -2.29 KCAL/MOL
REMARK 923 INTER-LIGAND FREE ENERGY PREDICTED BY IDOCK:   -1.84 KCAL/MOL
REMARK 924 INTRA-LIGAND FREE ENERGY PREDICTED BY IDOCK:   -0.45 KCAL/MOL
REMARK 927      BINDING AFFINITY PREDICTED BY RF-SCORE:    0.00 PKD
ROOT
HETATM    1  O   UNL     1      -6.636   9.652  71.348  1.00  0.00    -0.292 OA 
HETATM    2  S   UNL     1      -7.759   8.772  71.572  1.00  0.00    -0.060 S  
HETATM    3  C   UNL     1      -8.547   8.401  70.025  1.00  0.00    -0.131 C  
HETATM    4  O   UNL     1      -8.766   9.076  72.568  1.00  0.00    -0.318 OA 
HETATM    5  C   UNL     1      -7.579   7.643  69.134  1.00  0.00    -0.100 C  
HETATM    6  N   UNL     1      -7.023   6.398  69.697  1.00  0.00    -0.068 NA 
HETATM    7  N   UNL     1      -7.132   7.261  71.968  1.00  0.00    -0.066 N  
HETATM    8  C   UNL     1      -6.292   6.682  70.927  1.00  0.00    -0.047 C  
HETATM    9  H   UNL     1      -7.322   6.794  72.855  1.00  0.00     0.000 HD 
ENDROOT
BRANCH   6  10
HETATM   10  C   UNL     1      -8.001   5.325  69.894  1.00  0.00    -0.083 C  
BRANCH  10  11
HETATM   11  N   UNL     1      -7.394   4.016  69.677  1.00  0.00    -0.049 NA 
HETATM   12  C   UNL     1      -8.311   2.869  69.700  1.00  0.00    -0.055 C  
HETATM   13  C   UNL     1      -9.194   2.651  68.480  1.00  0.00    -0.185 C  
HETATM   14  S   UNL     1      -8.255   2.735  66.973  1.00  0.00    -0.088 S  
HETATM   15  O   UNL     1      -9.141   3.144  65.905  1.00  0.00    -0.143 OA 
HETATM   16  N   UNL     1      -7.265   4.041  67.274  1.00  0.00    -0.067 N  
HETATM   17  O   UNL     1      -7.426   1.555  66.866  1.00  0.00    -0.054 OA 
HETATM   18  H   UNL     1      -7.188   4.828  66.631  1.00  0.00     0.000 HD 
HETATM   19  C   UNL     1      -6.527   3.978  68.512  1.00  0.00    -0.037 C  
ENDBRANCH  10  11
ENDBRANCH   6  10
TORSDOF 2
ENDMDL
MODEL      215
REMARK 921   NORMALIZED FREE ENERGY PREDICTED BY IDOCK:   -1.67 KCAL/MOL
REMARK 922        TOTAL FREE ENERGY PREDICTED BY IDOCK:   -2.28 KCAL/MOL
REMARK 923 INTER-LIGAND FREE ENERGY PREDICTED BY IDOCK:   -2.30 KCAL/MOL
REMARK 924 INTRA-LIGAND FREE ENERGY PREDICTED BY IDOCK:    0.02 KCAL/MOL
REMARK 927      BINDING AFFINITY PREDICTED BY RF-SCORE:    0.00 PKD
ROOT
HETATM    1  O   UNL     1     -11.049   6.447  69.489  1.00  0.00    -0.325 OA 
HETATM    2  S   UNL     1     -10.143   5.500  68.883  1.00  0.00    -0.209 S  
HETATM    3  C   UNL     1     -10.225   5.641  67.116  1.00  0.00    -0.212 C  
HETATM    4  O   UNL     1     -10.154   4.102  69.259  1.00  0.00    -0.057 OA 
HETATM    5  C   UNL     1      -9.749   7.020  66.695  1.00  0.00    -0.166 C  
HETATM    6  N   UNL     1      -8.395   7.400  67.142  1.00  0.00    -0.117 NA 
HETATM    7  N   UNL     1      -8.581   6.062  69.164  1.00  0.00    -0.117 N  
HETATM    8  C   UNL     1      -8.319   7.379  68.599  1.00  0.00    -0.129 C  
HETATM    9  H   UNL     1      -7.883   5.529  69.683  1.00  0.00     0.000 HD 
ENDROOT
BRANCH   6  10
HETATM   10  C   UNL     1      -7.311   6.619  66.541  1.00  0.00    -0.074 C  
BRANCH  10  11
HETATM   11  N   UNL     1      -6.464   7.457  65.700  1.00  0.00    -0.044 NA 
HETATM   12  C   UNL     1      -6.594   7.256  64.251  1.00  0.00    -0.044 C  
HETATM   13  C   UNL     1      -7.826   7.833  63.569  1.00  0.00    -0.129 C  
HETATM   14  S   UNL     1      -8.100   9.524  64.043  1.00  0.00    -0.165 S  
HETATM   15  O   UNL     1      -9.511   9.813  63.909  1.00  0.00    -0.232 OA 
HETATM   16  N   UNL     1      -7.796   9.460  65.680  1.00  0.00    -0.098 N  
HETATM   17  O   UNL     1      -7.090  10.357  63.429  1.00  0.00    -0.117 OA 
HETATM   18  H   UNL     1      -8.456   9.815  66.373  1.00  0.00     0.000 HD 
HETATM   19  C   UNL     1      -6.535   8.866  66.048  1.00  0.00    -0.061 C  
ENDBRANCH  10  11
ENDBRANCH   6  10
TORSDOF 2
ENDMDL
MODEL      216
REMARK 921   NORMALIZED FREE ENERGY PREDICTED BY IDOCK:   -1.65 KCAL/MOL
REMARK 922        TOTAL FREE ENERGY PREDICTED BY IDOCK:   -2.25 KCAL/MOL
REMARK 923 INTER-LIGAND FREE ENERGY PREDICTED BY IDOCK:   -3.02 KCAL/MOL
REMARK 924 INTRA-LIGAND FREE ENERGY PREDICTED BY IDOCK:    0.77 KCAL/MOL
REMARK 927      BINDING AFFINITY PREDICTED BY RF-SCORE:    0.00 PKD
ROOT
HETATM    1  O   UNL     1     -11.607   6.128  70.148  1.00  0.00    -0.375 OA 
HETATM    2  S   UNL     1     -10.261   6.137  69.626  1.00  0.00    -0.221 S  
HETATM    3  C   UNL     1     -10.273   5.613  67.930  1.00  0.00    -0.187 C  
HETATM    4  O   UNL     1      -9.177   5.482  70.328  1.00  0.00    -0.144 OA 
HETATM    5  C   UNL     1     -11.063   6.609  67.099  1.00  0.00    -0.357 C  
HETATM    6  N   UNL     1     -10.605   8.010  67.162  1.00  0.00    -0.329 NA 
HETATM    7  N   UNL     1      -9.813   7.750  69.447  1.00  0.00    -0.173 N  
HETATM    8  C   UNL     1     -10.667   8.500  68.535  1.00  0.00    -0.031 C  
HETATM    9  H   UNL     1      -9.016   8.164  69.931  1.00  0.00     0.000 HD 
ENDROOT
BRANCH   6  10
HETATM   10  C   UNL     1      -9.287   8.251  66.569  1.00  0.00    -0.206 C  
BRANCH  10  11
HETATM   11  N   UNL     1      -9.214   9.582  65.977  1.00  0.00    -0.180 NA 
HETATM   12  C   UNL     1      -9.949  10.641  66.679  1.00  0.00    -0.212 C  
HETATM   13  C   UNL     1      -9.338  11.189  67.961  1.00  0.00    -0.166 C  
HETATM   14  S   UNL     1      -7.620  11.589  67.745  1.00  0.00    -0.118 S  
HETATM   15  O   UNL     1      -6.964  11.493  69.031  1.00  0.00    -0.096 OA 
HETATM   16  N   UNL     1      -7.087  10.283  66.858  1.00  0.00    -0.089 N  
HETATM   17  O   UNL     1      -7.510  12.771  66.920  1.00  0.00     0.003 OA 
HETATM   18  H   UNL     1      -6.278   9.728  67.135  1.00  0.00     0.000 HD 
HETATM   19  C   UNL     1      -7.854   9.993  65.672  1.00  0.00    -0.138 C  
ENDBRANCH  10  11
ENDBRANCH   6  10
TORSDOF 2
ENDMDL
MODEL      217
REMARK 921   NORMALIZED FREE ENERGY PREDICTED BY IDOCK:   -1.61 KCAL/MOL
REMARK 922        TOTAL FREE ENERGY PREDICTED BY IDOCK:   -2.21 KCAL/MOL
REMARK 923 INTER-LIGAND FREE ENERGY PREDICTED BY IDOCK:   -2.34 KCAL/MOL
REMARK 924 INTRA-LIGAND FREE ENERGY PREDICTED BY IDOCK:    0.13 KCAL/MOL
REMARK 927      BINDING AFFINITY PREDICTED BY RF-SCORE:    0.00 PKD
ROOT
HETATM    1  O   UNL     1      -9.487   7.459  67.259  1.00  0.00    -0.137 OA 
HETATM    2  S   UNL     1      -8.334   7.718  68.090  1.00  0.00    -0.124 S  
HETATM    3  C   UNL     1      -7.181   8.742  67.213  1.00  0.00    -0.080 C  
HETATM    4  O   UNL     1      -7.624   6.640  68.747  1.00  0.00    -0.100 OA 
HETATM    5  C   UNL     1      -7.817  10.092  66.930  1.00  0.00    -0.106 C  
HETATM    6  N   UNL     1      -8.313  10.831  68.106  1.00  0.00    -0.116 NA 
HETATM    7  N   UNL     1      -8.827   8.777  69.303  1.00  0.00    -0.138 N  
HETATM    8  C   UNL     1      -9.330  10.050  68.802  1.00  0.00    -0.162 C  
HETATM    9  H   UNL     1      -8.777   8.549  70.295  1.00  0.00     0.000 HD 
ENDROOT
BRANCH   6  10
HETATM   10  C   UNL     1      -7.268  11.287  69.027  1.00  0.00    -0.119 C  
BRANCH  10  11
HETATM   11  N   UNL     1      -6.497  12.380  68.444  1.00  0.00    -0.054 NA 
HETATM   12  C   UNL     1      -7.164  13.148  67.386  1.00  0.00    -0.110 C  
HETATM   13  C   UNL     1      -8.234  14.144  67.810  1.00  0.00    -0.169 C  
HETATM   14  S   UNL     1      -7.671  15.177  69.142  1.00  0.00    -0.208 S  
HETATM   15  O   UNL     1      -8.825  15.623  69.893  1.00  0.00    -0.120 OA 
HETATM   16  N   UNL     1      -6.892  14.068  70.112  1.00  0.00    -0.386 N  
HETATM   17  O   UNL     1      -6.686  16.106  68.636  1.00  0.00    -0.120 OA 
HETATM   18  H   UNL     1      -7.098  13.971  71.106  1.00  0.00     0.000 HD 
HETATM   19  C   UNL     1      -5.907  13.254  69.444  1.00  0.00    -0.094 C  
ENDBRANCH  10  11
ENDBRANCH   6  10
TORSDOF 2
ENDMDL
MODEL      218
REMARK 921   NORMALIZED FREE ENERGY PREDICTED BY IDOCK:   -1.01 KCAL/MOL
REMARK 922        TOTAL FREE ENERGY PREDICTED BY IDOCK:   -1.54 KCAL/MOL
REMARK 923 INTER-LIGAND FREE ENERGY PREDICTED BY IDOCK:   -3.10 KCAL/MOL
REMARK 924 INTRA-LIGAND FREE ENERGY PREDICTED BY IDOCK:    1.57 KCAL/MOL
REMARK 927      BINDING AFFINITY PREDICTED BY RF-SCORE:    0.00 PKD
ROOT
HETATM    1  O   UNL     1     -12.186  12.120  65.940  1.00  0.00    -0.604 OA 
HETATM    2  S   UNL     1     -11.013  11.489  66.498  1.00  0.00    -0.275 S  
HETATM    3  C   UNL     1      -9.562  12.389  66.014  1.00  0.00    -0.209 C  
HETATM    4  O   UNL     1     -10.777  10.069  66.341  1.00  0.00    -0.118 OA 
HETATM    5  C   UNL     1      -9.616  13.789  66.601  1.00  0.00    -0.288 C  
HETATM    6  N   UNL     1      -9.761  13.869  68.067  1.00  0.00    -0.220 NA 
HETATM    7  N   UNL     1     -11.028  11.795  68.153  1.00  0.00    -0.213 N  
HETATM    8  C   UNL     1     -10.994  13.212  68.489  1.00  0.00    -0.263 C  
HETATM    9  H   UNL     1     -11.058  11.055  68.855  1.00  0.00     0.000 HD 
ENDROOT
BRANCH   6  10
HETATM   10  C   UNL     1      -8.608  13.376  68.824  1.00  0.00     0.116 C  
BRANCH  10  11
HETATM   11  N   UNL     1      -8.032  12.194  68.191  1.00  0.00    -0.142 NA 
HETATM   12  C   UNL     1      -6.577  12.212  67.996  1.00  0.00    -0.069 C  
HETATM   13  C   UNL     1      -5.702  11.970  69.218  1.00  0.00    -0.072 C  
HETATM   14  S   UNL     1      -6.244  10.548  70.136  1.00  0.00    -0.131 S  
HETATM   15  O   UNL     1      -5.843  10.715  71.516  1.00  0.00    -0.325 OA 
HETATM   16  N   UNL     1      -7.897  10.750  70.110  1.00  0.00    -0.108 N  
HETATM   17  O   UNL     1      -5.923   9.353  69.389  1.00  0.00    -0.034 OA 
HETATM   18  H   UNL     1      -8.464  10.733  70.959  1.00  0.00     0.000 HD 
HETATM   19  C   UNL     1      -8.471  10.951  68.802  1.00  0.00    -0.150 C  
ENDBRANCH  10  11
ENDBRANCH   6  10
TORSDOF 2
ENDMDL
MODEL      219
REMARK 921   NORMALIZED FREE ENERGY PREDICTED BY IDOCK:   -0.69 KCAL/MOL
REMARK 922        TOTAL FREE ENERGY PREDICTED BY IDOCK:   -1.18 KCAL/MOL
REMARK 923 INTER-LIGAND FREE ENERGY PREDICTED BY IDOCK:   -1.65 KCAL/MOL
REMARK 924 INTRA-LIGAND FREE ENERGY PREDICTED BY IDOCK:    0.46 KCAL/MOL
REMARK 927      BINDING AFFINITY PREDICTED BY RF-SCORE:    0.00 PKD
ROOT
HETATM    1  O   UNL     1      -9.919  20.201  69.593  1.00  0.00    -0.139 OA 
HETATM    2  S   UNL     1      -8.786  19.515  69.018  1.00  0.00    -0.043 S  
HETATM    3  C   UNL     1      -8.741  17.839  69.601  1.00  0.00     1.004 C  
HETATM    4  O   UNL     1      -7.455  20.083  69.075  1.00  0.00    -0.224 OA 
HETATM    5  C   UNL     1      -9.979  17.103  69.118  1.00  0.00    -0.218 C  
HETATM    6  N   UNL     1     -10.197  17.095  67.659  1.00  0.00    -0.316 NA 
HETATM    7  N   UNL     1      -9.133  19.265  67.389  1.00  0.00    -0.291 N  
HETATM    8  C   UNL     1     -10.326  18.460  67.160  1.00  0.00    -0.394 C  
HETATM    9  H   UNL     1      -8.561  19.643  66.634  1.00  0.00     0.000 HD 
ENDROOT
BRANCH   6  10
HETATM   10  C   UNL     1      -9.200  16.340  66.895  1.00  0.00    -0.218 C  
BRANCH  10  11
HETATM   11  N   UNL     1      -8.862  15.090  67.566  1.00  0.00    -0.178 NA 
HETATM   12  C   UNL     1      -9.975  14.384  68.213  1.00  0.00    -0.232 C  
HETATM   13  C   UNL     1     -10.944  13.628  67.315  1.00  0.00    -0.287 C  
HETATM   14  S   UNL     1     -10.084  12.603  66.145  1.00  0.00    -0.259 S  
HETATM   15  O   UNL     1     -10.930  12.425  64.986  1.00  0.00    -0.282 OA 
HETATM   16  N   UNL     1      -8.852  13.617  65.664  1.00  0.00     0.334 N  
HETATM   17  O   UNL     1      -9.498  11.480  66.842  1.00  0.00    -0.177 OA 
HETATM   18  H   UNL     1      -8.661  13.817  64.682  1.00  0.00     0.000 HD 
HETATM   19  C   UNL     1      -8.077  14.193  66.735  1.00  0.00     0.274 C  
ENDBRANCH  10  11
ENDBRANCH   6  10
TORSDOF 2
ENDMDL
MODEL      220
REMARK 921   NORMALIZED FREE ENERGY PREDICTED BY IDOCK:    1.15 KCAL/MOL
REMARK 922        TOTAL FREE ENERGY PREDICTED BY IDOCK:    0.87 KCAL/MOL
REMARK 923 INTER-LIGAND FREE ENERGY PREDICTED BY IDOCK:    0.01 KCAL/MOL
REMARK 924 INTRA-LIGAND FREE ENERGY PREDICTED BY IDOCK:    0.86 KCAL/MOL
REMARK 927      BINDING AFFINITY PREDICTED BY RF-SCORE:    0.00 PKD
ROOT
HETATM    1  O   UNL     1     -11.518   5.735  69.911  1.00  0.00    -0.181 OA 
HETATM    2  S   UNL     1     -10.294   6.025  69.199  1.00  0.00    -0.259 S  
HETATM    3  C   UNL     1      -8.958   5.091  69.901  1.00  0.00    -0.106 C  
HETATM    4  O   UNL     1      -9.864   7.388  68.967  1.00  0.00    -0.162 OA 
HETATM    5  C   UNL     1      -9.224   3.608  69.713  1.00  0.00    -0.146 C  
HETATM    6  N   UNL     1      -9.439   3.162  68.323  1.00  0.00    -0.184 NA 
HETATM    7  N   UNL     1     -10.419   5.295  67.687  1.00  0.00    -0.149 N  
HETATM    8  C   UNL     1     -10.589   3.849  67.745  1.00  0.00     1.748 C  
HETATM    9  H   UNL     1     -10.378   5.818  66.812  1.00  0.00     0.000 HD 
ENDROOT
BRANCH   6  10
HETATM   10  C   UNL     1      -8.262   3.270  67.457  1.00  0.00    -0.081 C  
BRANCH  10  11
HETATM   11  N   UNL     1      -8.317   4.481  66.646  1.00  0.00    -0.106 NA 
HETATM   12  C   UNL     1      -7.140   5.356  66.713  1.00  0.00    -0.069 C  
HETATM   13  C   UNL     1      -5.895   4.917  65.954  1.00  0.00    -0.022 C  
HETATM   14  S   UNL     1      -6.285   4.434  64.288  1.00  0.00    -0.030 S  
HETATM   15  O   UNL     1      -5.287   3.487  63.842  1.00  0.00    -0.008 OA 
HETATM   16  N   UNL     1      -7.682   3.556  64.518  1.00  0.00    -0.077 N  
HETATM   17  O   UNL     1      -6.614   5.614  63.520  1.00  0.00    -0.031 OA 
HETATM   18  H   UNL     1      -7.799   2.610  64.154  1.00  0.00     0.000 HD 
HETATM   19  C   UNL     1      -8.712   4.227  65.271  1.00  0.00    -0.124 C  
ENDBRANCH  10  11
ENDBRANCH   6  10
TORSDOF 2
ENDMDL
MODEL      221
REMARK 921   NORMALIZED FREE ENERGY PREDICTED BY IDOCK:   12.76 KCAL/MOL
REMARK 922        TOTAL FREE ENERGY PREDICTED BY IDOCK:   13.85 KCAL/MOL
REMARK 923 INTER-LIGAND FREE ENERGY PREDICTED BY IDOCK:   14.12 KCAL/MOL
REMARK 924 INTRA-LIGAND FREE ENERGY PREDICTED BY IDOCK:   -0.28 KCAL/MOL
REMARK 927      BINDING AFFINITY PREDICTED BY RF-SCORE:    0.00 PKD
ROOT
HETATM    1  O   UNL     1      -9.539   7.475  67.269  1.00  0.00    -0.142 OA 
HETATM    2  S   UNL     1      -8.771   8.191  68.261  1.00  0.00    -0.133 S  
HETATM    3  C   UNL     1      -8.057   9.643  67.532  1.00  0.00    -0.114 C  
HETATM    4  O   UNL     1      -7.778   7.518  69.072  1.00  0.00    -0.112 OA 
HETATM    5  C   UNL     1      -9.165  10.582  67.088  1.00  0.00    -0.143 C  
HETATM    6  N   UNL     1     -10.121  10.994  68.134  1.00  0.00    -0.174 NA 
HETATM    7  N   UNL     1      -9.870   8.890  69.328  1.00  0.00    -0.172 N  
HETATM    8  C   UNL     1     -10.791   9.825  68.694  1.00  0.00    -0.188 C  
HETATM    9  H   UNL     1      -9.889   8.678  70.325  1.00  0.00     0.000 HD 
ENDROOT
BRANCH   6  10
HETATM   10  C   UNL     1      -9.550  11.836  69.188  1.00  0.00     0.304 C  
BRANCH  10  11
HETATM   11  N   UNL     1     -10.122  13.178  69.153  1.00  0.00     0.179 NA 
HETATM   12  C   UNL     1     -10.794  13.624  70.380  1.00  0.00     1.124 C  
HETATM   13  C   UNL     1      -9.915  14.040  71.551  1.00  0.00     5.797 C  
HETATM   14  S   UNL     1      -8.634  15.160  71.038  1.00  0.00     3.445 S  
HETATM   15  O   UNL     1      -7.521  15.030  71.954  1.00  0.00     2.562 OA 
HETATM   16  N   UNL     1      -8.138  14.459  69.610  1.00  0.00    -0.315 N  
HETATM   17  O   UNL     1      -9.223  16.443  70.731  1.00  0.00     2.352 OA 
HETATM   18  H   UNL     1      -7.159  14.242  69.418  1.00  0.00     0.000 HD 
HETATM   19  C   UNL     1      -9.190  14.180  68.665  1.00  0.00    -0.146 C  
ENDBRANCH  10  11
ENDBRANCH   6  10
TORSDOF 2
ENDMDL
MODEL      222
REMARK 921   NORMALIZED FREE ENERGY PREDICTED BY IDOCK:   17.93 KCAL/MOL
REMARK 922        TOTAL FREE ENERGY PREDICTED BY IDOCK:   19.61 KCAL/MOL
REMARK 923 INTER-LIGAND FREE ENERGY PREDICTED BY IDOCK:   13.54 KCAL/MOL
REMARK 924 INTRA-LIGAND FREE ENERGY PREDICTED BY IDOCK:    6.07 KCAL/MOL
REMARK 927      BINDING AFFINITY PREDICTED BY RF-SCORE:    0.00 PKD
ROOT
HETATM    1  O   UNL     1      -9.913  20.203  69.592  1.00  0.00    -0.139 OA 
HETATM    2  S   UNL     1      -8.747  19.571  69.021  1.00  0.00    -0.043 S  
HETATM    3  C   UNL     1      -8.651  17.885  69.568  1.00  0.00     0.724 C  
HETATM    4  O   UNL     1      -7.439  20.185  69.113  1.00  0.00    -0.121 OA 
HETATM    5  C   UNL     1      -9.853  17.116  69.048  1.00  0.00    -0.240 C  
HETATM    6  N   UNL     1     -10.048  17.133  67.586  1.00  0.00    -0.294 NA 
HETATM    7  N   UNL     1      -9.059  19.346  67.382  1.00  0.00    -0.294 N  
HETATM    8  C   UNL     1     -10.218  18.504  67.116  1.00  0.00    -0.378 C  
HETATM    9  H   UNL     1      -8.490  19.761  66.645  1.00  0.00     0.000 HD 
ENDROOT
BRANCH   6  10
HETATM   10  C   UNL     1      -9.012  16.432  66.823  1.00  0.00    -0.236 C  
BRANCH  10  11
HETATM   11  N   UNL     1      -8.990  16.881  65.435  1.00  0.00     0.163 NA 
HETATM   12  C   UNL     1      -9.203  18.318  65.219  1.00  0.00     1.921 C  
HETATM   13  C   UNL     1      -8.044  19.255  65.530  1.00  0.00     0.477 C  
HETATM   14  S   UNL     1      -6.528  18.680  64.802  1.00  0.00     0.532 S  
HETATM   15  O   UNL     1      -5.424  19.184  65.589  1.00  0.00    -0.149 OA 
HETATM   16  N   UNL     1      -6.610  17.046  65.118  1.00  0.00     2.186 N  
HETATM   17  O   UNL     1      -6.591  18.867  63.370  1.00  0.00     1.416 OA 
HETATM   18  H   UNL     1      -5.852  16.539  65.574  1.00  0.00     0.000 HD 
HETATM   19  C   UNL     1      -7.831  16.401  64.702  1.00  0.00     8.019 C  
ENDBRANCH  10  11
ENDBRANCH   6  10
TORSDOF 2
ENDMDL
MODEL      223
REMARK 921   NORMALIZED FREE ENERGY PREDICTED BY IDOCK:   21.31 KCAL/MOL
REMARK 922        TOTAL FREE ENERGY PREDICTED BY IDOCK:   23.40 KCAL/MOL
REMARK 923 INTER-LIGAND FREE ENERGY PREDICTED BY IDOCK:   23.68 KCAL/MOL
REMARK 924 INTRA-LIGAND FREE ENERGY PREDICTED BY IDOCK:   -0.28 KCAL/MOL
REMARK 927      BINDING AFFINITY PREDICTED BY RF-SCORE:    0.00 PKD
ROOT
HETATM    1  O   UNL     1     -10.116  21.271  72.102  1.00  0.00     3.452 OA 
HETATM    2  S   UNL     1     -10.499  20.479  70.957  1.00  0.00     3.680 S  
HETATM    3  C   UNL     1      -9.674  21.085  69.507  1.00  0.00     1.756 C  
HETATM    4  O   UNL     1     -11.891  20.224  70.651  1.00  0.00     5.958 OA 
HETATM    5  C   UNL     1      -8.174  20.909  69.668  1.00  0.00     2.641 C  
HETATM    6  N   UNL     1      -7.711  19.536  69.942  1.00  0.00     0.263 NA 
HETATM    7  N   UNL     1      -9.760  18.976  71.126  1.00  0.00     2.651 N  
HETATM    8  C   UNL     1      -8.305  19.040  71.179  1.00  0.00     4.857 C  
HETATM    9  H   UNL     1     -10.283  18.102  71.187  1.00  0.00     0.000 HD 
ENDROOT
BRANCH   6  10
HETATM   10  C   UNL     1      -7.909  18.592  68.839  1.00  0.00    -0.233 C  
BRANCH  10  11
HETATM   11  N   UNL     1      -6.631  18.168  68.276  1.00  0.00    -0.201 NA 
HETATM   12  C   UNL     1      -5.760  17.392  69.167  1.00  0.00    -0.189 C  
HETATM   13  C   UNL     1      -6.124  15.934  69.410  1.00  0.00    -0.143 C  
HETATM   14  S   UNL     1      -6.462  15.084  67.886  1.00  0.00    -0.169 S  
HETATM   15  O   UNL     1      -7.361  13.986  68.166  1.00  0.00    -0.102 OA 
HETATM   16  N   UNL     1      -7.365  16.221  67.069  1.00  0.00    -0.208 N  
HETATM   17  O   UNL     1      -5.222  14.890  67.168  1.00  0.00    -0.158 OA 
HETATM   18  H   UNL     1      -8.276  16.007  66.662  1.00  0.00     0.000 HD 
HETATM   19  C   UNL     1      -6.767  17.530  66.978  1.00  0.00    -0.176 C  
ENDBRANCH  10  11
ENDBRANCH   6  10
TORSDOF 2
ENDMDL
MODEL      224
REMARK 921   NORMALIZED FREE ENERGY PREDICTED BY IDOCK:   21.44 KCAL/MOL
REMARK 922        TOTAL FREE ENERGY PREDICTED BY IDOCK:   23.54 KCAL/MOL
REMARK 923 INTER-LIGAND FREE ENERGY PREDICTED BY IDOCK:    7.38 KCAL/MOL
REMARK 924 INTRA-LIGAND FREE ENERGY PREDICTED BY IDOCK:   16.16 KCAL/MOL
REMARK 927      BINDING AFFINITY PREDICTED BY RF-SCORE:    0.00 PKD
ROOT
HETATM    1  O   UNL     1      -9.723  20.567  69.008  1.00  0.00     0.235 OA 
HETATM    2  S   UNL     1      -8.938  19.506  69.596  1.00  0.00     0.682 S  
HETATM    3  C   UNL     1      -9.906  18.646  70.808  1.00  0.00     2.821 C  
HETATM    4  O   UNL     1      -7.612  19.755  70.122  1.00  0.00     0.214 OA 
HETATM    5  C   UNL     1     -11.090  17.978  70.129  1.00  0.00     2.377 C  
HETATM    6  N   UNL     1     -10.764  17.048  69.031  1.00  0.00    -0.308 NA 
HETATM    7  N   UNL     1      -8.773  18.308  68.425  1.00  0.00    -0.305 N  
HETATM    8  C   UNL     1     -10.042  17.748  67.974  1.00  0.00    -0.355 C  
HETATM    9  H   UNL     1      -7.869  18.001  68.065  1.00  0.00     0.000 HD 
ENDROOT
BRANCH   6  10
HETATM   10  C   UNL     1     -10.056  15.835  69.447  1.00  0.00    -0.268 C  
BRANCH  10  11
HETATM   11  N   UNL     1      -8.798  15.688  68.724  1.00  0.00    -0.193 NA 
HETATM   12  C   UNL     1      -8.171  16.933  68.261  1.00  0.00    -0.222 C  
HETATM   13  C   UNL     1      -7.463  17.791  69.300  1.00  0.00     0.021 C  
HETATM   14  S   UNL     1      -6.370  16.820  70.311  1.00  0.00     0.534 S  
HETATM   15  O   UNL     1      -6.226  17.478  71.591  1.00  0.00     1.760 OA 
HETATM   16  N   UNL     1      -7.299  15.465  70.593  1.00  0.00     0.589 N  
HETATM   17  O   UNL     1      -5.223  16.425  69.524  1.00  0.00    -0.122 OA 
HETATM   18  H   UNL     1      -7.472  15.106  71.532  1.00  0.00     0.000 HD 
HETATM   19  C   UNL     1      -7.843  14.838  69.413  1.00  0.00    -0.083 C  
ENDBRANCH  10  11
ENDBRANCH   6  10
TORSDOF 2
ENDMDL
