MODEL        1
REMARK 921   NORMALIZED FREE ENERGY PREDICTED BY IDOCK:   -6.71 KCAL/MOL
REMARK 922        TOTAL FREE ENERGY PREDICTED BY IDOCK:   -9.00 KCAL/MOL
REMARK 923 INTER-LIGAND FREE ENERGY PREDICTED BY IDOCK:   -8.68 KCAL/MOL
REMARK 924 INTRA-LIGAND FREE ENERGY PREDICTED BY IDOCK:   -0.32 KCAL/MOL
REMARK 927      BINDING AFFINITY PREDICTED BY RF-SCORE:    0.00 PKD
ROOT
HETATM    1  C   UNL     1     -10.491  19.260  66.116  1.00  0.00    -0.577 C  
HETATM    2  C   UNL     1     -10.523  17.820  66.598  1.00  0.00    -0.300 C  
ENDROOT
BRANCH   2   3
HETATM    3  O   UNL     1     -10.100  16.984  65.511  1.00  0.00    -0.577 OA 
BRANCH   3   4
HETATM    4  C   UNL     1     -11.089  16.294  64.894  1.00  0.00    -0.290 C  
HETATM    5  O   UNL     1     -11.774  16.687  63.963  1.00  0.00    -1.143 OA 
BRANCH   4   6
HETATM    6  C   UNL     1     -11.136  14.904  65.395  1.00  0.00    -0.366 A  
HETATM    7  C   UNL     1     -11.664  14.563  66.636  1.00  0.00    -0.371 A  
HETATM    8  N   UNL     1     -11.599  13.315  67.171  1.00  0.00    -0.337 NA 
HETATM    9  C   UNL     1     -10.979  12.369  66.431  1.00  0.00    -0.276 A  
HETATM   10  C   UNL     1     -10.453  12.603  65.168  1.00  0.00    -0.319 A  
HETATM   11  C   UNL     1     -10.534  13.891  64.644  1.00  0.00    -0.419 A  
BRANCH   9  12
HETATM   12  C   UNL     1     -10.844  11.093  67.057  1.00  0.00    -0.338 C  
HETATM   13  C   UNL     1     -10.723  10.035  67.620  1.00  0.00    -0.340 C  
BRANCH  13  14
HETATM   14  C   UNL     1     -10.552   8.787  68.299  1.00  0.00    -0.194 A  
HETATM   15  C   UNL     1     -10.782   8.689  69.676  1.00  0.00    -0.204 A  
HETATM   16  C   UNL     1     -10.685   7.457  70.372  1.00  0.00    -0.250 A  
HETATM   17  C   UNL     1     -10.295   6.322  69.635  1.00  0.00    -0.215 A  
HETATM   18  S   UNL     1     -10.106   4.672  70.297  1.00  0.00    -0.137 SA 
HETATM   19  C   UNL     1     -10.044   6.434  68.255  1.00  0.00    -0.169 A  
HETATM   20  C   UNL     1     -10.151   4.991  72.072  1.00  0.00    -0.196 C  
HETATM   21  C   UNL     1     -10.175   7.654  67.590  1.00  0.00    -0.277 A  
HETATM   22  C   UNL     1     -11.245   5.986  72.407  1.00  0.00    -0.338 C  
HETATM   23  C   UNL     1     -10.981   7.418  71.878  1.00  0.00    -0.267 C  
HETATM   24  C   UNL     1      -9.791   8.045  72.637  1.00  0.00    -0.347 C  
HETATM   25  C   UNL     1     -12.255   8.232  72.225  1.00  0.00    -0.428 C  
ENDBRANCH  13  14
ENDBRANCH   9  12
ENDBRANCH   4   6
ENDBRANCH   3   4
ENDBRANCH   2   3
TORSDOF 5
ENDMDL
MODEL        2
REMARK 921   NORMALIZED FREE ENERGY PREDICTED BY IDOCK:   -6.65 KCAL/MOL
REMARK 922        TOTAL FREE ENERGY PREDICTED BY IDOCK:   -8.92 KCAL/MOL
REMARK 923 INTER-LIGAND FREE ENERGY PREDICTED BY IDOCK:   -8.44 KCAL/MOL
REMARK 924 INTRA-LIGAND FREE ENERGY PREDICTED BY IDOCK:   -0.48 KCAL/MOL
REMARK 927      BINDING AFFINITY PREDICTED BY RF-SCORE:    0.00 PKD
ROOT
HETATM    1  C   UNL     1     -10.554  19.273  67.312  1.00  0.00    -0.590 C  
HETATM    2  C   UNL     1     -10.572  18.846  65.855  1.00  0.00    -0.373 C  
ENDROOT
BRANCH   2   3
HETATM    3  O   UNL     1     -10.070  17.504  65.784  1.00  0.00    -0.551 OA 
BRANCH   3   4
HETATM    4  C   UNL     1     -10.901  16.605  65.205  1.00  0.00    -0.183 C  
HETATM    5  O   UNL     1     -11.308  16.631  64.055  1.00  0.00    -1.120 OA 
BRANCH   4   6
HETATM    6  C   UNL     1     -11.141  15.465  66.117  1.00  0.00    -0.230 A  
HETATM    7  C   UNL     1     -10.654  15.420  67.419  1.00  0.00    -0.289 A  
HETATM    8  N   UNL     1     -10.749  14.332  68.226  1.00  0.00    -0.241 NA 
HETATM    9  C   UNL     1     -11.359  13.243  67.709  1.00  0.00    -0.295 A  
HETATM   10  C   UNL     1     -11.909  13.202  66.435  1.00  0.00    -0.455 A  
HETATM   11  C   UNL     1     -11.797  14.333  65.628  1.00  0.00    -0.373 A  
BRANCH   9  12
HETATM   12  C   UNL     1     -11.363  12.086  68.546  1.00  0.00    -0.323 C  
HETATM   13  C   UNL     1     -11.327  11.103  69.241  1.00  0.00    -0.349 C  
BRANCH  13  14
HETATM   14  C   UNL     1     -11.277   9.917  70.041  1.00  0.00    -0.327 A  
HETATM   15  C   UNL     1     -10.665   8.756  69.554  1.00  0.00    -0.196 A  
HETATM   16  C   UNL     1     -10.540   7.583  70.341  1.00  0.00    -0.236 A  
HETATM   17  C   UNL     1     -11.102   7.601  71.632  1.00  0.00    -0.239 A  
HETATM   18  S   UNL     1     -11.066   6.246  72.797  1.00  0.00    -0.232 SA 
HETATM   19  C   UNL     1     -11.735   8.766  72.104  1.00  0.00    -0.433 A  
HETATM   20  C   UNL     1     -10.527   4.883  71.744  1.00  0.00    -0.144 C  
HETATM   21  C   UNL     1     -11.819   9.916  71.319  1.00  0.00    -0.479 A  
HETATM   22  C   UNL     1      -9.401   5.328  70.832  1.00  0.00    -0.197 C  
HETATM   23  C   UNL     1      -9.829   6.355  69.754  1.00  0.00    -0.189 C  
HETATM   24  C   UNL     1     -10.767   5.678  68.730  1.00  0.00    -0.267 C  
HETATM   25  C   UNL     1      -8.524   6.756  69.018  1.00  0.00    -0.128 C  
ENDBRANCH  13  14
ENDBRANCH   9  12
ENDBRANCH   4   6
ENDBRANCH   3   4
ENDBRANCH   2   3
TORSDOF 5
ENDMDL
MODEL        3
REMARK 921   NORMALIZED FREE ENERGY PREDICTED BY IDOCK:   -6.37 KCAL/MOL
REMARK 922        TOTAL FREE ENERGY PREDICTED BY IDOCK:   -8.56 KCAL/MOL
REMARK 923 INTER-LIGAND FREE ENERGY PREDICTED BY IDOCK:   -8.04 KCAL/MOL
REMARK 924 INTRA-LIGAND FREE ENERGY PREDICTED BY IDOCK:   -0.52 KCAL/MOL
REMARK 927      BINDING AFFINITY PREDICTED BY RF-SCORE:    0.00 PKD
ROOT
HETATM    1  C   UNL     1     -12.168  15.378  74.382  1.00  0.00    -0.714 C  
HETATM    2  C   UNL     1     -13.274  16.090  73.622  1.00  0.00    -0.398 C  
ENDROOT
BRANCH   2   3
HETATM    3  O   UNL     1     -13.877  15.138  72.733  1.00  0.00    -0.467 OA 
BRANCH   3   4
HETATM    4  C   UNL     1     -13.292  15.033  71.515  1.00  0.00    -0.417 C  
HETATM    5  O   UNL     1     -12.939  15.955  70.800  1.00  0.00    -0.475 OA 
BRANCH   4   6
HETATM    6  C   UNL     1     -12.980  13.618  71.216  1.00  0.00    -0.399 A  
HETATM    7  C   UNL     1     -13.400  12.563  72.018  1.00  0.00    -0.426 A  
HETATM    8  N   UNL     1     -13.016  11.273  71.836  1.00  0.00    -0.437 NA 
HETATM    9  C   UNL     1     -12.176  11.029  70.806  1.00  0.00    -0.380 A  
HETATM   10  C   UNL     1     -11.730  12.008  69.929  1.00  0.00    -0.374 A  
HETATM   11  C   UNL     1     -12.140  13.322  70.139  1.00  0.00    -0.403 A  
BRANCH   9  12
HETATM   12  C   UNL     1     -11.717   9.681  70.695  1.00  0.00    -0.353 C  
HETATM   13  C   UNL     1     -11.292   8.557  70.613  1.00  0.00    -0.265 C  
BRANCH  13  14
HETATM   14  C   UNL     1     -10.765   7.232  70.494  1.00  0.00    -0.249 A  
HETATM   15  C   UNL     1     -10.576   6.438  71.632  1.00  0.00    -0.261 A  
HETATM   16  C   UNL     1     -10.117   5.099  71.550  1.00  0.00    -0.257 A  
HETATM   17  C   UNL     1      -9.805   4.594  70.273  1.00  0.00    -0.243 A  
HETATM   18  S   UNL     1      -9.213   2.943  69.927  1.00  0.00    -0.141 SA 
HETATM   19  C   UNL     1      -9.978   5.407  69.137  1.00  0.00    -0.267 A  
HETATM   20  C   UNL     1      -8.790   2.361  71.581  1.00  0.00    -0.075 C  
HETATM   21  C   UNL     1     -10.458   6.713  69.244  1.00  0.00    -0.247 A  
HETATM   22  C   UNL     1      -9.866   2.752  72.575  1.00  0.00    -0.217 C  
HETATM   23  C   UNL     1      -9.961   4.276  72.837  1.00  0.00    -0.197 C  
HETATM   24  C   UNL     1      -8.699   4.758  73.587  1.00  0.00    -0.106 C  
HETATM   25  C   UNL     1     -11.180   4.462  73.778  1.00  0.00    -0.272 C  
ENDBRANCH  13  14
ENDBRANCH   9  12
ENDBRANCH   4   6
ENDBRANCH   3   4
ENDBRANCH   2   3
TORSDOF 5
ENDMDL
MODEL        4
REMARK 921   NORMALIZED FREE ENERGY PREDICTED BY IDOCK:   -6.34 KCAL/MOL
REMARK 922        TOTAL FREE ENERGY PREDICTED BY IDOCK:   -8.52 KCAL/MOL
REMARK 923 INTER-LIGAND FREE ENERGY PREDICTED BY IDOCK:   -8.04 KCAL/MOL
REMARK 924 INTRA-LIGAND FREE ENERGY PREDICTED BY IDOCK:   -0.49 KCAL/MOL
REMARK 927      BINDING AFFINITY PREDICTED BY RF-SCORE:    0.00 PKD
ROOT
HETATM    1  C   UNL     1      -7.191  19.770  67.695  1.00  0.00    -0.295 C  
HETATM    2  C   UNL     1      -7.659  19.875  66.254  1.00  0.00    -0.310 C  
ENDROOT
BRANCH   2   3
HETATM    3  O   UNL     1      -8.474  18.726  65.973  1.00  0.00    -0.480 OA 
BRANCH   3   4
HETATM    4  C   UNL     1      -9.777  18.843  66.321  1.00  0.00    -0.344 C  
HETATM    5  O   UNL     1     -10.500  19.804  66.110  1.00  0.00    -0.471 OA 
BRANCH   4   6
HETATM    6  C   UNL     1     -10.281  17.564  66.866  1.00  0.00    -0.329 A  
HETATM    7  C   UNL     1     -10.795  17.437  68.152  1.00  0.00    -0.273 A  
HETATM    8  N   UNL     1     -11.140  16.251  68.717  1.00  0.00    -0.343 NA 
HETATM    9  C   UNL     1     -10.962  15.144  67.963  1.00  0.00    -0.295 A  
HETATM   10  C   UNL     1     -10.489  15.171  66.658  1.00  0.00    -0.287 A  
HETATM   11  C   UNL     1     -10.144  16.402  66.103  1.00  0.00    -0.364 A  
BRANCH   9  12
HETATM   12  C   UNL     1     -11.245  13.905  68.614  1.00  0.00    -0.298 C  
HETATM   13  C   UNL     1     -11.443  12.853  69.166  1.00  0.00    -0.360 C  
BRANCH  13  14
HETATM   14  C   UNL     1     -11.662  11.589  69.800  1.00  0.00    -0.426 A  
HETATM   15  C   UNL     1     -10.865  10.485  69.477  1.00  0.00    -0.298 A  
HETATM   16  C   UNL     1     -11.010   9.233  70.129  1.00  0.00    -0.278 A  
HETATM   17  C   UNL     1     -12.030   9.115  71.093  1.00  0.00    -0.308 A  
HETATM   18  S   UNL     1     -12.398   7.642  72.037  1.00  0.00    -0.253 SA 
HETATM   19  C   UNL     1     -12.841  10.225  71.394  1.00  0.00    -0.544 A  
HETATM   20  C   UNL     1     -11.439   6.399  71.148  1.00  0.00    -0.323 C  
HETATM   21  C   UNL     1     -12.658  11.453  70.757  1.00  0.00    -0.409 A  
HETATM   22  C   UNL     1     -10.065   6.935  70.798  1.00  0.00    -0.208 C  
HETATM   23  C   UNL     1     -10.079   8.073  69.747  1.00  0.00    -0.196 C  
HETATM   24  C   UNL     1     -10.519   7.513  68.375  1.00  0.00    -0.212 C  
HETATM   25  C   UNL     1      -8.608   8.546  69.623  1.00  0.00    -0.131 C  
ENDBRANCH  13  14
ENDBRANCH   9  12
ENDBRANCH   4   6
ENDBRANCH   3   4
ENDBRANCH   2   3
TORSDOF 5
ENDMDL
MODEL        5
REMARK 921   NORMALIZED FREE ENERGY PREDICTED BY IDOCK:   -6.33 KCAL/MOL
REMARK 922        TOTAL FREE ENERGY PREDICTED BY IDOCK:   -8.51 KCAL/MOL
REMARK 923 INTER-LIGAND FREE ENERGY PREDICTED BY IDOCK:   -8.06 KCAL/MOL
REMARK 924 INTRA-LIGAND FREE ENERGY PREDICTED BY IDOCK:   -0.45 KCAL/MOL
REMARK 927      BINDING AFFINITY PREDICTED BY RF-SCORE:    0.00 PKD
ROOT
HETATM    1  C   UNL     1     -10.293  19.378  65.881  1.00  0.00    -0.536 C  
HETATM    2  C   UNL     1     -10.150  17.972  66.436  1.00  0.00    -0.384 C  
ENDROOT
BRANCH   2   3
HETATM    3  O   UNL     1      -9.899  17.088  65.333  1.00  0.00    -0.531 OA 
BRANCH   3   4
HETATM    4  C   UNL     1     -10.943  16.306  64.969  1.00  0.00    -0.298 C  
HETATM    5  O   UNL     1     -11.688  16.488  64.020  1.00  0.00    -1.111 OA 
BRANCH   4   6
HETATM    6  C   UNL     1     -10.977  15.078  65.794  1.00  0.00    -0.351 A  
HETATM    7  C   UNL     1     -11.950  14.840  66.759  1.00  0.00    -0.192 A  
HETATM    8  N   UNL     1     -11.926  13.786  67.615  1.00  0.00    -0.368 NA 
HETATM    9  C   UNL     1     -10.884  12.933  67.499  1.00  0.00    -0.235 A  
HETATM   10  C   UNL     1      -9.884  13.065  66.545  1.00  0.00    -0.263 A  
HETATM   11  C   UNL     1      -9.935  14.156  65.679  1.00  0.00    -0.331 A  
BRANCH   9  12
HETATM   12  C   UNL     1     -10.836  11.887  68.470  1.00  0.00    -0.257 C  
HETATM   13  C   UNL     1     -10.768  11.028  69.312  1.00  0.00    -0.263 C  
BRANCH  13  14
HETATM   14  C   UNL     1     -10.658  10.005  70.306  1.00  0.00    -0.354 A  
HETATM   15  C   UNL     1      -9.447   9.330  70.500  1.00  0.00    -0.317 A  
HETATM   16  C   UNL     1      -9.280   8.356  71.518  1.00  0.00    -0.257 A  
HETATM   17  C   UNL     1     -10.401   8.045  72.312  1.00  0.00    -0.271 A  
HETATM   18  S   UNL     1     -10.427   6.857  73.646  1.00  0.00    -0.341 SA 
HETATM   19  C   UNL     1     -11.620   8.713  72.095  1.00  0.00    -0.440 A  
HETATM   20  C   UNL     1      -8.867   5.990  73.385  1.00  0.00    -0.126 C  
HETATM   21  C   UNL     1     -11.749   9.688  71.104  1.00  0.00    -0.450 A  
HETATM   22  C   UNL     1      -7.758   6.974  73.065  1.00  0.00    -0.097 C  
HETATM   23  C   UNL     1      -7.914   7.677  71.693  1.00  0.00    -0.095 C  
HETATM   24  C   UNL     1      -7.717   6.653  70.554  1.00  0.00    -0.104 C  
HETATM   25  C   UNL     1      -6.757   8.707  71.619  1.00  0.00    -0.084 C  
ENDBRANCH  13  14
ENDBRANCH   9  12
ENDBRANCH   4   6
ENDBRANCH   3   4
ENDBRANCH   2   3
TORSDOF 5
ENDMDL
MODEL        6
REMARK 921   NORMALIZED FREE ENERGY PREDICTED BY IDOCK:   -6.28 KCAL/MOL
REMARK 922        TOTAL FREE ENERGY PREDICTED BY IDOCK:   -8.44 KCAL/MOL
REMARK 923 INTER-LIGAND FREE ENERGY PREDICTED BY IDOCK:   -8.04 KCAL/MOL
REMARK 924 INTRA-LIGAND FREE ENERGY PREDICTED BY IDOCK:   -0.41 KCAL/MOL
REMARK 927      BINDING AFFINITY PREDICTED BY RF-SCORE:    0.00 PKD
ROOT
HETATM    1  C   UNL     1      -9.667  20.705  67.256  1.00  0.00    -0.562 C  
HETATM    2  C   UNL     1      -9.085  19.560  66.444  1.00  0.00    -0.370 C  
ENDROOT
BRANCH   2   3
HETATM    3  O   UNL     1      -9.693  18.344  66.902  1.00  0.00    -0.295 OA 
BRANCH   3   4
HETATM    4  C   UNL     1     -10.509  17.733  66.009  1.00  0.00    -0.286 C  
HETATM    5  O   UNL     1     -10.930  18.212  64.969  1.00  0.00    -0.726 OA 
BRANCH   4   6
HETATM    6  C   UNL     1     -10.706  16.315  66.379  1.00  0.00    -0.182 A  
HETATM    7  C   UNL     1     -11.034  15.906  67.667  1.00  0.00    -0.298 A  
HETATM    8  N   UNL     1     -11.091  14.607  68.059  1.00  0.00    -0.270 NA 
HETATM    9  C   UNL     1     -10.808  13.677  67.121  1.00  0.00    -0.285 A  
HETATM   10  C   UNL     1     -10.504  13.983  65.801  1.00  0.00    -0.317 A  
HETATM   11  C   UNL     1     -10.454  15.324  65.427  1.00  0.00    -0.422 A  
BRANCH   9  12
HETATM   12  C   UNL     1     -10.785  12.326  67.583  1.00  0.00    -0.250 C  
HETATM   13  C   UNL     1     -10.724  11.187  67.971  1.00  0.00    -0.254 C  
BRANCH  13  14
HETATM   14  C   UNL     1     -10.636   9.827  68.405  1.00  0.00    -0.264 A  
HETATM   15  C   UNL     1     -10.866   9.493  69.745  1.00  0.00    -0.264 A  
HETATM   16  C   UNL     1     -10.852   8.150  70.201  1.00  0.00    -0.241 A  
HETATM   17  C   UNL     1     -10.545   7.146  69.262  1.00  0.00    -0.221 A  
HETATM   18  S   UNL     1     -10.469   5.394  69.606  1.00  0.00    -0.247 SA 
HETATM   19  C   UNL     1     -10.294   7.494  67.922  1.00  0.00    -0.266 A  
HETATM   20  C   UNL     1     -10.483   5.382  71.410  1.00  0.00    -0.226 C  
HETATM   21  C   UNL     1     -10.342   8.821  67.494  1.00  0.00    -0.334 A  
HETATM   22  C   UNL     1     -11.504   6.370  71.941  1.00  0.00    -0.352 C  
HETATM   23  C   UNL     1     -11.143   7.853  71.680  1.00  0.00    -0.285 C  
HETATM   24  C   UNL     1      -9.908   8.248  72.520  1.00  0.00    -0.368 C  
HETATM   25  C   UNL     1     -12.355   8.674  72.192  1.00  0.00    -0.452 C  
ENDBRANCH  13  14
ENDBRANCH   9  12
ENDBRANCH   4   6
ENDBRANCH   3   4
ENDBRANCH   2   3
TORSDOF 5
ENDMDL
MODEL        7
REMARK 921   NORMALIZED FREE ENERGY PREDICTED BY IDOCK:   -6.24 KCAL/MOL
REMARK 922        TOTAL FREE ENERGY PREDICTED BY IDOCK:   -8.39 KCAL/MOL
REMARK 923 INTER-LIGAND FREE ENERGY PREDICTED BY IDOCK:   -7.89 KCAL/MOL
REMARK 924 INTRA-LIGAND FREE ENERGY PREDICTED BY IDOCK:   -0.50 KCAL/MOL
REMARK 927      BINDING AFFINITY PREDICTED BY RF-SCORE:    0.00 PKD
ROOT
HETATM    1  C   UNL     1     -10.601   7.416  71.567  1.00  0.00    -0.226 C  
HETATM    2  C   UNL     1     -11.921   7.595  72.297  1.00  0.00    -0.285 C  
ENDROOT
BRANCH   2   3
HETATM    3  O   UNL     1     -12.883   8.086  71.351  1.00  0.00    -0.318 OA 
BRANCH   3   4
HETATM    4  C   UNL     1     -13.524   9.222  71.714  1.00  0.00    -0.415 C  
HETATM    5  O   UNL     1     -14.335   9.339  72.619  1.00  0.00    -0.497 OA 
BRANCH   4   6
HETATM    6  C   UNL     1     -12.988  10.377  70.961  1.00  0.00    -0.490 A  
HETATM    7  C   UNL     1     -12.359  10.252  69.727  1.00  0.00     0.038 A  
HETATM    8  N   UNL     1     -11.745  11.277  69.082  1.00  0.00    -0.312 NA 
HETATM    9  C   UNL     1     -11.763  12.480  69.697  1.00  0.00    -0.302 A  
HETATM   10  C   UNL     1     -12.395  12.713  70.911  1.00  0.00    -0.352 A  
HETATM   11  C   UNL     1     -13.017  11.643  71.551  1.00  0.00    -0.463 A  
BRANCH   9  12
HETATM   12  C   UNL     1     -11.032  13.517  69.041  1.00  0.00    -0.264 C  
HETATM   13  C   UNL     1     -10.385  14.364  68.481  1.00  0.00    -0.248 C  
BRANCH  13  14
HETATM   14  C   UNL     1      -9.594  15.366  67.835  1.00  0.00    -0.206 A  
HETATM   15  C   UNL     1      -9.929  16.720  67.952  1.00  0.00    -0.268 A  
HETATM   16  C   UNL     1      -9.134  17.746  67.381  1.00  0.00    -0.244 A  
HETATM   17  C   UNL     1      -8.003  17.357  66.637  1.00  0.00    -0.258 A  
HETATM   18  S   UNL     1      -6.860  18.469  65.830  1.00  0.00    -0.279 SA 
HETATM   19  C   UNL     1      -7.687  15.992  66.507  1.00  0.00    -0.167 A  
HETATM   20  C   UNL     1      -7.763  20.029  65.908  1.00  0.00    -0.282 C  
HETATM   21  C   UNL     1      -8.471  15.004  67.103  1.00  0.00    -0.244 A  
HETATM   22  C   UNL     1      -8.397  20.210  67.274  1.00  0.00    -0.394 C  
HETATM   23  C   UNL     1      -9.544  19.214  67.574  1.00  0.00    -0.373 C  
HETATM   24  C   UNL     1     -10.754  19.517  66.662  1.00  0.00    -0.552 C  
HETATM   25  C   UNL     1      -9.967  19.493  69.040  1.00  0.00    -0.490 C  
ENDBRANCH  13  14
ENDBRANCH   9  12
ENDBRANCH   4   6
ENDBRANCH   3   4
ENDBRANCH   2   3
TORSDOF 5
ENDMDL
MODEL        8
REMARK 921   NORMALIZED FREE ENERGY PREDICTED BY IDOCK:   -6.23 KCAL/MOL
REMARK 922        TOTAL FREE ENERGY PREDICTED BY IDOCK:   -8.38 KCAL/MOL
REMARK 923 INTER-LIGAND FREE ENERGY PREDICTED BY IDOCK:   -7.92 KCAL/MOL
REMARK 924 INTRA-LIGAND FREE ENERGY PREDICTED BY IDOCK:   -0.46 KCAL/MOL
REMARK 927      BINDING AFFINITY PREDICTED BY RF-SCORE:    0.00 PKD
ROOT
HETATM    1  C   UNL     1     -11.655   6.614  70.323  1.00  0.00    -0.454 C  
HETATM    2  C   UNL     1     -12.622   7.008  71.425  1.00  0.00    -0.386 C  
ENDROOT
BRANCH   2   3
HETATM    3  O   UNL     1     -12.271   8.329  71.865  1.00  0.00    -0.301 OA 
BRANCH   3   4
HETATM    4  C   UNL     1     -13.297   9.212  71.917  1.00  0.00    -0.427 C  
HETATM    5  O   UNL     1     -14.340   9.076  72.535  1.00  0.00    -0.570 OA 
BRANCH   4   6
HETATM    6  C   UNL     1     -12.923  10.473  71.239  1.00  0.00    -0.532 A  
HETATM    7  C   UNL     1     -12.150  10.512  70.083  1.00  0.00    -0.300 A  
HETATM    8  N   UNL     1     -11.687  11.658  69.520  1.00  0.00    -0.316 NA 
HETATM    9  C   UNL     1     -12.012  12.814  70.139  1.00  0.00    -0.296 A  
HETATM   10  C   UNL     1     -12.808  12.881  71.275  1.00  0.00    -0.361 A  
HETATM   11  C   UNL     1     -13.269  11.690  71.831  1.00  0.00    -0.475 A  
BRANCH   9  12
HETATM   12  C   UNL     1     -11.435  13.994  69.579  1.00  0.00    -0.331 C  
HETATM   13  C   UNL     1     -10.913  14.969  69.101  1.00  0.00    -0.265 C  
BRANCH  13  14
HETATM   14  C   UNL     1     -10.272  16.127  68.557  1.00  0.00    -0.241 A  
HETATM   15  C   UNL     1      -8.876  16.232  68.558  1.00  0.00    -0.219 A  
HETATM   16  C   UNL     1      -8.203  17.334  67.971  1.00  0.00    -0.223 A  
HETATM   17  C   UNL     1      -8.992  18.362  67.420  1.00  0.00    -0.261 A  
HETATM   18  S   UNL     1      -8.366  19.839  66.631  1.00  0.00    -0.341 SA 
HETATM   19  C   UNL     1     -10.395  18.257  67.443  1.00  0.00    -0.409 A  
HETATM   20  C   UNL     1      -6.626  19.788  67.105  1.00  0.00    -0.197 C  
HETATM   21  C   UNL     1     -11.031  17.148  68.002  1.00  0.00    -0.229 A  
HETATM   22  C   UNL     1      -6.077  18.381  66.967  1.00  0.00    -0.181 C  
HETATM   23  C   UNL     1      -6.667  17.370  67.982  1.00  0.00    -0.181 C  
HETATM   24  C   UNL     1      -6.187  17.719  69.408  1.00  0.00    -0.244 C  
HETATM   25  C   UNL     1      -6.067  15.993  67.596  1.00  0.00    -0.180 C  
ENDBRANCH  13  14
ENDBRANCH   9  12
ENDBRANCH   4   6
ENDBRANCH   3   4
ENDBRANCH   2   3
TORSDOF 5
ENDMDL
MODEL        9
REMARK 921   NORMALIZED FREE ENERGY PREDICTED BY IDOCK:   -6.21 KCAL/MOL
REMARK 922        TOTAL FREE ENERGY PREDICTED BY IDOCK:   -8.36 KCAL/MOL
REMARK 923 INTER-LIGAND FREE ENERGY PREDICTED BY IDOCK:   -7.82 KCAL/MOL
REMARK 924 INTRA-LIGAND FREE ENERGY PREDICTED BY IDOCK:   -0.53 KCAL/MOL
REMARK 927      BINDING AFFINITY PREDICTED BY RF-SCORE:    0.00 PKD
ROOT
HETATM    1  C   UNL     1      -7.038  18.572  66.209  1.00  0.00    -0.284 C  
HETATM    2  C   UNL     1      -8.224  19.476  66.497  1.00  0.00    -0.318 C  
ENDROOT
BRANCH   2   3
HETATM    3  O   UNL     1      -9.401  18.829  65.990  1.00  0.00    -0.478 OA 
BRANCH   3   4
HETATM    4  C   UNL     1     -10.377  18.608  66.903  1.00  0.00    -0.402 C  
HETATM    5  O   UNL     1     -11.084  19.454  67.426  1.00  0.00    -0.445 OA 
BRANCH   4   6
HETATM    6  C   UNL     1     -10.597  17.156  67.078  1.00  0.00    -0.227 A  
HETATM    7  C   UNL     1     -11.033  16.594  68.273  1.00  0.00    -0.341 A  
HETATM    8  N   UNL     1     -11.116  15.257  68.497  1.00  0.00    -0.267 NA 
HETATM    9  C   UNL     1     -10.747  14.448  67.480  1.00  0.00    -0.271 A  
HETATM   10  C   UNL     1     -10.332  14.912  66.239  1.00  0.00    -0.302 A  
HETATM   11  C   UNL     1     -10.258  16.288  66.038  1.00  0.00    -0.376 A  
BRANCH   9  12
HETATM   12  C   UNL     1     -10.756  13.050  67.773  1.00  0.00    -0.242 C  
HETATM   13  C   UNL     1     -10.732  11.877  68.047  1.00  0.00    -0.242 C  
BRANCH  13  14
HETATM   14  C   UNL     1     -10.673  10.482  68.361  1.00  0.00    -0.262 A  
HETATM   15  C   UNL     1     -10.921  10.038  69.665  1.00  0.00    -0.301 A  
HETATM   16  C   UNL     1     -10.935   8.660  70.002  1.00  0.00    -0.208 A  
HETATM   17  C   UNL     1     -10.640   7.736  68.981  1.00  0.00    -0.166 A  
HETATM   18  S   UNL     1     -10.599   5.959  69.171  1.00  0.00    -0.314 SA 
HETATM   19  C   UNL     1     -10.371   8.194  67.678  1.00  0.00    -0.313 A  
HETATM   20  C   UNL     1     -10.628   5.791  70.967  1.00  0.00    -0.253 C  
HETATM   21  C   UNL     1     -10.391   9.555  67.368  1.00  0.00    -0.319 A  
HETATM   22  C   UNL     1     -11.635   6.748  71.576  1.00  0.00    -0.344 C  
HETATM   23  C   UNL     1     -11.244   8.241  71.448  1.00  0.00    -0.304 C  
HETATM   24  C   UNL     1     -10.009   8.537  72.327  1.00  0.00    -0.385 C  
HETATM   25  C   UNL     1     -12.445   9.038  72.022  1.00  0.00    -0.460 C  
ENDBRANCH  13  14
ENDBRANCH   9  12
ENDBRANCH   4   6
ENDBRANCH   3   4
ENDBRANCH   2   3
TORSDOF 5
ENDMDL
MODEL       10
REMARK 921   NORMALIZED FREE ENERGY PREDICTED BY IDOCK:   -6.11 KCAL/MOL
REMARK 922        TOTAL FREE ENERGY PREDICTED BY IDOCK:   -8.22 KCAL/MOL
REMARK 923 INTER-LIGAND FREE ENERGY PREDICTED BY IDOCK:   -7.90 KCAL/MOL
REMARK 924 INTRA-LIGAND FREE ENERGY PREDICTED BY IDOCK:   -0.33 KCAL/MOL
REMARK 927      BINDING AFFINITY PREDICTED BY RF-SCORE:    0.00 PKD
ROOT
HETATM    1  C   UNL     1     -12.878  12.166  63.782  1.00  0.00    -0.451 C  
HETATM    2  C   UNL     1     -11.927  13.265  63.340  1.00  0.00    -0.427 C  
ENDROOT
BRANCH   2   3
HETATM    3  O   UNL     1     -12.312  14.474  64.011  1.00  0.00    -0.697 OA 
BRANCH   3   4
HETATM    4  C   UNL     1     -11.367  15.011  64.820  1.00  0.00    -0.406 C  
HETATM    5  O   UNL     1     -10.853  16.111  64.702  1.00  0.00    -0.650 OA 
BRANCH   4   6
HETATM    6  C   UNL     1     -11.139  14.139  65.993  1.00  0.00    -0.314 A  
HETATM    7  C   UNL     1     -10.004  13.349  66.142  1.00  0.00    -0.294 A  
HETATM    8  N   UNL     1      -9.835  12.446  67.142  1.00  0.00    -0.203 NA 
HETATM    9  C   UNL     1     -10.845  12.330  68.032  1.00  0.00    -0.220 A  
HETATM   10  C   UNL     1     -12.000  13.098  67.990  1.00  0.00    -0.345 A  
HETATM   11  C   UNL     1     -12.147  14.017  66.953  1.00  0.00    -0.465 A  
BRANCH   9  12
HETATM   12  C   UNL     1     -10.680  11.309  69.018  1.00  0.00    -0.257 C  
HETATM   13  C   UNL     1     -10.578  10.458  69.863  1.00  0.00    -0.299 C  
BRANCH  13  14
HETATM   14  C   UNL     1     -10.461   9.468  70.890  1.00  0.00    -0.382 A  
HETATM   15  C   UNL     1      -9.209   8.945  71.234  1.00  0.00    -0.328 A  
HETATM   16  C   UNL     1      -9.044   8.011  72.288  1.00  0.00    -0.237 A  
HETATM   17  C   UNL     1     -10.203   7.577  72.961  1.00  0.00    -0.306 A  
HETATM   18  S   UNL     1     -10.240   6.410  74.314  1.00  0.00    -0.302 SA 
HETATM   19  C   UNL     1     -11.460   8.092  72.593  1.00  0.00    -0.465 A  
HETATM   20  C   UNL     1      -8.569   5.733  74.249  1.00  0.00    -0.111 C  
HETATM   21  C   UNL     1     -11.590   9.032  71.570  1.00  0.00    -0.413 A  
HETATM   22  C   UNL     1      -7.555   6.839  74.029  1.00  0.00    -0.101 C  
HETATM   23  C   UNL     1      -7.636   7.502  72.631  1.00  0.00    -0.096 C  
HETATM   24  C   UNL     1      -7.193   6.495  71.547  1.00  0.00    -0.082 C  
HETATM   25  C   UNL     1      -6.608   8.662  72.658  1.00  0.00    -0.045 C  
ENDBRANCH  13  14
ENDBRANCH   9  12
ENDBRANCH   4   6
ENDBRANCH   3   4
ENDBRANCH   2   3
TORSDOF 5
ENDMDL
MODEL       11
REMARK 921   NORMALIZED FREE ENERGY PREDICTED BY IDOCK:   -6.09 KCAL/MOL
REMARK 922        TOTAL FREE ENERGY PREDICTED BY IDOCK:   -8.19 KCAL/MOL
REMARK 923 INTER-LIGAND FREE ENERGY PREDICTED BY IDOCK:   -7.67 KCAL/MOL
REMARK 924 INTRA-LIGAND FREE ENERGY PREDICTED BY IDOCK:   -0.52 KCAL/MOL
REMARK 927      BINDING AFFINITY PREDICTED BY RF-SCORE:    0.00 PKD
ROOT
HETATM    1  C   UNL     1     -12.305  15.488  74.094  1.00  0.00    -0.806 C  
HETATM    2  C   UNL     1     -13.407  16.139  73.277  1.00  0.00    -0.438 C  
ENDROOT
BRANCH   2   3
HETATM    3  O   UNL     1     -14.013  15.120  72.467  1.00  0.00    -0.483 OA 
BRANCH   3   4
HETATM    4  C   UNL     1     -13.421  14.908  71.267  1.00  0.00    -0.430 C  
HETATM    5  O   UNL     1     -13.083  15.763  70.465  1.00  0.00    -0.461 OA 
BRANCH   4   6
HETATM    6  C   UNL     1     -13.078  13.478  71.109  1.00  0.00    -0.285 A  
HETATM    7  C   UNL     1     -13.508  12.493  71.992  1.00  0.00    -0.387 A  
HETATM    8  N   UNL     1     -13.100  11.199  71.941  1.00  0.00    -0.478 NA 
HETATM    9  C   UNL     1     -12.223  10.876  70.965  1.00  0.00    -0.358 A  
HETATM   10  C   UNL     1     -11.762  11.779  70.016  1.00  0.00    -0.386 A  
HETATM   11  C   UNL     1     -12.199  13.100  70.091  1.00  0.00    -0.360 A  
BRANCH   9  12
HETATM   12  C   UNL     1     -11.740   9.533  70.993  1.00  0.00    -0.419 C  
HETATM   13  C   UNL     1     -11.363   8.389  70.991  1.00  0.00    -0.303 C  
BRANCH  13  14
HETATM   14  C   UNL     1     -10.943   7.021  70.998  1.00  0.00    -0.279 A  
HETATM   15  C   UNL     1     -10.209   6.497  69.928  1.00  0.00    -0.219 A  
HETATM   16  C   UNL     1      -9.721   5.165  69.928  1.00  0.00    -0.269 A  
HETATM   17  C   UNL     1     -10.043   4.353  71.033  1.00  0.00    -0.125 A  
HETATM   18  S   UNL     1      -9.539   2.652  71.249  1.00  0.00    -0.138 SA 
HETATM   19  C   UNL     1     -10.800   4.882  72.094  1.00  0.00    -0.136 A  
HETATM   20  C   UNL     1      -8.934   2.245  69.599  1.00  0.00    -0.098 C  
HETATM   21  C   UNL     1     -11.244   6.205  72.081  1.00  0.00    -0.335 A  
HETATM   22  C   UNL     1      -8.093   3.378  69.046  1.00  0.00    -0.071 C  
HETATM   23  C   UNL     1      -8.895   4.666  68.733  1.00  0.00    -0.127 C  
HETATM   24  C   UNL     1      -9.845   4.415  67.541  1.00  0.00    -0.180 C  
HETATM   25  C   UNL     1      -7.843   5.718  68.295  1.00  0.00    -0.100 C  
ENDBRANCH  13  14
ENDBRANCH   9  12
ENDBRANCH   4   6
ENDBRANCH   3   4
ENDBRANCH   2   3
TORSDOF 5
ENDMDL
MODEL       12
REMARK 921   NORMALIZED FREE ENERGY PREDICTED BY IDOCK:   -5.96 KCAL/MOL
REMARK 922        TOTAL FREE ENERGY PREDICTED BY IDOCK:   -8.03 KCAL/MOL
REMARK 923 INTER-LIGAND FREE ENERGY PREDICTED BY IDOCK:   -7.63 KCAL/MOL
REMARK 924 INTRA-LIGAND FREE ENERGY PREDICTED BY IDOCK:   -0.40 KCAL/MOL
REMARK 927      BINDING AFFINITY PREDICTED BY RF-SCORE:    0.00 PKD
ROOT
HETATM    1  C   UNL     1      -9.760  19.371  66.787  1.00  0.00    -0.435 C  
HETATM    2  C   UNL     1     -10.777  18.610  65.954  1.00  0.00    -0.227 C  
ENDROOT
BRANCH   2   3
HETATM    3  O   UNL     1     -10.348  17.243  65.880  1.00  0.00    -0.461 OA 
BRANCH   3   4
HETATM    4  C   UNL     1     -11.071  16.454  65.049  1.00  0.00    -0.208 C  
HETATM    5  O   UNL     1     -11.518  16.769  63.958  1.00  0.00    -1.198 OA 
BRANCH   4   6
HETATM    6  C   UNL     1     -11.123  15.071  65.570  1.00  0.00    -0.358 A  
HETATM    7  C   UNL     1     -10.887  14.753  66.904  1.00  0.00    -0.316 A  
HETATM    8  N   UNL     1     -10.800  13.483  67.376  1.00  0.00    -0.266 NA 
HETATM    9  C   UNL     1     -10.958  12.488  66.476  1.00  0.00    -0.266 A  
HETATM   10  C   UNL     1     -11.232  12.702  65.132  1.00  0.00    -0.336 A  
HETATM   11  C   UNL     1     -11.316  14.016  64.675  1.00  0.00    -0.378 A  
BRANCH   9  12
HETATM   12  C   UNL     1     -10.770  11.166  66.983  1.00  0.00    -0.316 C  
HETATM   13  C   UNL     1     -10.606  10.067  67.449  1.00  0.00    -0.330 C  
BRANCH  13  14
HETATM   14  C   UNL     1     -10.384   8.770  68.012  1.00  0.00    -0.273 A  
HETATM   15  C   UNL     1      -9.826   8.636  69.288  1.00  0.00    -0.188 A  
HETATM   16  C   UNL     1      -9.649   7.371  69.905  1.00  0.00    -0.163 A  
HETATM   17  C   UNL     1     -10.012   6.229  69.166  1.00  0.00    -0.150 A  
HETATM   18  S   UNL     1      -9.880   4.540  69.736  1.00  0.00    -0.196 SA 
HETATM   19  C   UNL     1     -10.552   6.373  67.874  1.00  0.00    -0.321 A  
HETATM   20  C   UNL     1      -8.855   4.739  71.207  1.00  0.00    -0.127 C  
HETATM   21  C   UNL     1     -10.741   7.632  67.302  1.00  0.00    -0.344 A  
HETATM   22  C   UNL     1      -9.310   5.939  72.016  1.00  0.00    -0.160 C  
HETATM   23  C   UNL     1      -9.058   7.300  71.321  1.00  0.00    -0.146 C  
HETATM   24  C   UNL     1      -7.540   7.575  71.242  1.00  0.00    -0.081 C  
HETATM   25  C   UNL     1      -9.692   8.367  72.252  1.00  0.00    -0.386 C  
ENDBRANCH  13  14
ENDBRANCH   9  12
ENDBRANCH   4   6
ENDBRANCH   3   4
ENDBRANCH   2   3
TORSDOF 5
ENDMDL
MODEL       13
REMARK 921   NORMALIZED FREE ENERGY PREDICTED BY IDOCK:   -5.89 KCAL/MOL
REMARK 922        TOTAL FREE ENERGY PREDICTED BY IDOCK:   -7.94 KCAL/MOL
REMARK 923 INTER-LIGAND FREE ENERGY PREDICTED BY IDOCK:   -7.54 KCAL/MOL
REMARK 924 INTRA-LIGAND FREE ENERGY PREDICTED BY IDOCK:   -0.39 KCAL/MOL
REMARK 927      BINDING AFFINITY PREDICTED BY RF-SCORE:    0.00 PKD
ROOT
HETATM    1  C   UNL     1      -9.401  19.145  66.687  1.00  0.00    -0.375 C  
HETATM    2  C   UNL     1     -10.503  18.460  65.896  1.00  0.00    -0.321 C  
ENDROOT
BRANCH   2   3
HETATM    3  O   UNL     1     -10.157  17.072  65.773  1.00  0.00    -0.516 OA 
BRANCH   3   4
HETATM    4  C   UNL     1     -11.007  16.329  65.025  1.00  0.00    -0.298 C  
HETATM    5  O   UNL     1     -11.582  16.689  64.011  1.00  0.00    -1.197 OA 
BRANCH   4   6
HETATM    6  C   UNL     1     -11.032  14.932  65.511  1.00  0.00    -0.355 A  
HETATM    7  C   UNL     1     -10.981  14.598  66.860  1.00  0.00    -0.324 A  
HETATM    8  N   UNL     1     -10.872  13.326  67.322  1.00  0.00    -0.262 NA 
HETATM    9  C   UNL     1     -10.811  12.346  66.394  1.00  0.00    -0.258 A  
HETATM   10  C   UNL     1     -10.890  12.575  65.027  1.00  0.00    -0.324 A  
HETATM   11  C   UNL     1     -11.003  13.890  64.581  1.00  0.00    -0.406 A  
BRANCH   9  12
HETATM   12  C   UNL     1     -10.603  11.028  66.905  1.00  0.00    -0.307 C  
HETATM   13  C   UNL     1     -10.468   9.914  67.341  1.00  0.00    -0.325 C  
BRANCH  13  14
HETATM   14  C   UNL     1     -10.322   8.598  67.885  1.00  0.00    -0.286 A  
HETATM   15  C   UNL     1      -9.889   7.540  67.078  1.00  0.00    -0.280 A  
HETATM   16  C   UNL     1      -9.672   6.237  67.595  1.00  0.00    -0.126 A  
HETATM   17  C   UNL     1      -9.955   6.021  68.958  1.00  0.00    -0.158 A  
HETATM   18  S   UNL     1      -9.757   4.470  69.824  1.00  0.00    -0.221 SA 
HETATM   19  C   UNL     1     -10.410   7.087  69.756  1.00  0.00    -0.225 A  
HETATM   20  C   UNL     1      -9.523   3.321  68.452  1.00  0.00    -0.144 C  
HETATM   21  C   UNL     1     -10.589   8.366  69.227  1.00  0.00    -0.193 A  
HETATM   22  C   UNL     1      -8.585   3.911  67.418  1.00  0.00    -0.109 C  
HETATM   23  C   UNL     1      -9.167   5.129  66.658  1.00  0.00    -0.129 C  
HETATM   24  C   UNL     1     -10.332   4.674  65.752  1.00  0.00    -0.295 C  
HETATM   25  C   UNL     1      -8.021   5.640  65.747  1.00  0.00    -0.109 C  
ENDBRANCH  13  14
ENDBRANCH   9  12
ENDBRANCH   4   6
ENDBRANCH   3   4
ENDBRANCH   2   3
TORSDOF 5
ENDMDL
MODEL       14
REMARK 921   NORMALIZED FREE ENERGY PREDICTED BY IDOCK:   -5.83 KCAL/MOL
REMARK 922        TOTAL FREE ENERGY PREDICTED BY IDOCK:   -7.86 KCAL/MOL
REMARK 923 INTER-LIGAND FREE ENERGY PREDICTED BY IDOCK:   -7.56 KCAL/MOL
REMARK 924 INTRA-LIGAND FREE ENERGY PREDICTED BY IDOCK:   -0.30 KCAL/MOL
REMARK 927      BINDING AFFINITY PREDICTED BY RF-SCORE:    0.00 PKD
ROOT
HETATM    1  C   UNL     1     -12.784  12.111  63.460  1.00  0.00    -0.553 C  
HETATM    2  C   UNL     1     -11.912  13.297  63.087  1.00  0.00    -0.112 C  
ENDROOT
BRANCH   2   3
HETATM    3  O   UNL     1     -12.326  14.414  63.887  1.00  0.00    -0.720 OA 
BRANCH   3   4
HETATM    4  C   UNL     1     -11.384  14.901  64.731  1.00  0.00    -0.397 C  
HETATM    5  O   UNL     1     -10.840  15.991  64.657  1.00  0.00    -0.608 OA 
BRANCH   4   6
HETATM    6  C   UNL     1     -11.204  13.989  65.881  1.00  0.00    -0.308 A  
HETATM    7  C   UNL     1     -10.174  13.057  65.955  1.00  0.00    -0.292 A  
HETATM    8  N   UNL     1     -10.065  12.123  66.935  1.00  0.00    -0.205 NA 
HETATM    9  C   UNL     1     -11.029  12.123  67.883  1.00  0.00    -0.229 A  
HETATM   10  C   UNL     1     -12.076  13.034  67.915  1.00  0.00    -0.234 A  
HETATM   11  C   UNL     1     -12.162  13.981  66.897  1.00  0.00    -0.415 A  
BRANCH   9  12
HETATM   12  C   UNL     1     -10.940  11.073  68.847  1.00  0.00    -0.277 C  
HETATM   13  C   UNL     1     -10.875  10.161  69.631  1.00  0.00    -0.299 C  
BRANCH  13  14
HETATM   14  C   UNL     1     -10.827   9.070  70.556  1.00  0.00    -0.296 A  
HETATM   15  C   UNL     1     -10.107   7.910  70.249  1.00  0.00    -0.196 A  
HETATM   16  C   UNL     1      -9.984   6.834  71.166  1.00  0.00    -0.194 A  
HETATM   17  C   UNL     1     -10.659   6.946  72.397  1.00  0.00    -0.211 A  
HETATM   18  S   UNL     1     -10.647   5.723  73.699  1.00  0.00    -0.257 SA 
HETATM   19  C   UNL     1     -11.398   8.107  72.687  1.00  0.00    -0.450 A  
HETATM   20  C   UNL     1      -9.937   4.299  72.848  1.00  0.00    -0.148 C  
HETATM   21  C   UNL     1     -11.480   9.163  71.778  1.00  0.00    -0.452 A  
HETATM   22  C   UNL     1      -8.762   4.725  71.989  1.00  0.00    -0.132 C  
HETATM   23  C   UNL     1      -9.152   5.604  70.775  1.00  0.00    -0.164 C  
HETATM   24  C   UNL     1      -9.954   4.764  69.756  1.00  0.00    -0.308 C  
HETATM   25  C   UNL     1      -7.813   6.015  70.110  1.00  0.00    -0.101 C  
ENDBRANCH  13  14
ENDBRANCH   9  12
ENDBRANCH   4   6
ENDBRANCH   3   4
ENDBRANCH   2   3
TORSDOF 5
ENDMDL
MODEL       15
REMARK 921   NORMALIZED FREE ENERGY PREDICTED BY IDOCK:   -5.78 KCAL/MOL
REMARK 922        TOTAL FREE ENERGY PREDICTED BY IDOCK:   -7.79 KCAL/MOL
REMARK 923 INTER-LIGAND FREE ENERGY PREDICTED BY IDOCK:   -7.32 KCAL/MOL
REMARK 924 INTRA-LIGAND FREE ENERGY PREDICTED BY IDOCK:   -0.47 KCAL/MOL
REMARK 927      BINDING AFFINITY PREDICTED BY RF-SCORE:    0.00 PKD
ROOT
HETATM    1  C   UNL     1      -9.831   3.675  71.518  1.00  0.00    -0.227 C  
HETATM    2  C   UNL     1     -10.254   4.022  72.935  1.00  0.00    -0.163 C  
ENDROOT
BRANCH   2   3
HETATM    3  O   UNL     1     -11.251   5.052  72.856  1.00  0.00    -0.270 OA 
BRANCH   3   4
HETATM    4  C   UNL     1     -10.880   6.255  73.356  1.00  0.00    -0.214 C  
HETATM    5  O   UNL     1     -10.348   6.458  74.435  1.00  0.00    -0.332 OA 
BRANCH   4   6
HETATM    6  C   UNL     1     -11.059   7.312  72.337  1.00  0.00    -0.315 A  
HETATM    7  C   UNL     1     -10.137   7.552  71.324  1.00  0.00    -0.187 A  
HETATM    8  N   UNL     1     -10.215   8.598  70.460  1.00  0.00    -0.191 NA 
HETATM    9  C   UNL     1     -11.262   9.438  70.616  1.00  0.00    -0.284 A  
HETATM   10  C   UNL     1     -12.252   9.263  71.573  1.00  0.00    -0.439 A  
HETATM   11  C   UNL     1     -12.147   8.181  72.446  1.00  0.00    -0.406 A  
BRANCH   9  12
HETATM   12  C   UNL     1     -11.268  10.577  69.755  1.00  0.00    -0.361 C  
HETATM   13  C   UNL     1     -11.251  11.517  69.002  1.00  0.00    -0.324 C  
BRANCH  13  14
HETATM   14  C   UNL     1     -11.201  12.633  68.108  1.00  0.00    -0.311 A  
HETATM   15  C   UNL     1     -10.546  13.813  68.480  1.00  0.00    -0.261 A  
HETATM   16  C   UNL     1     -10.420  14.916  67.598  1.00  0.00    -0.249 A  
HETATM   17  C   UNL     1     -11.024  14.810  66.331  1.00  0.00    -0.331 A  
HETATM   18  S   UNL     1     -10.995  16.067  65.060  1.00  0.00    -0.297 SA 
HETATM   19  C   UNL     1     -11.699  13.628  65.973  1.00  0.00    -0.383 A  
HETATM   20  C   UNL     1     -10.391  17.494  65.983  1.00  0.00    -0.306 C  
HETATM   21  C   UNL     1     -11.784  12.546  66.851  1.00  0.00    -0.447 A  
HETATM   22  C   UNL     1      -9.246  17.094  66.893  1.00  0.00    -0.255 C  
HETATM   23  C   UNL     1      -9.662  16.169  68.063  1.00  0.00    -0.229 C  
HETATM   24  C   UNL     1     -10.550  16.948  69.058  1.00  0.00    -0.338 C  
HETATM   25  C   UNL     1      -8.343  15.794  68.788  1.00  0.00    -0.195 C  
ENDBRANCH  13  14
ENDBRANCH   9  12
ENDBRANCH   4   6
ENDBRANCH   3   4
ENDBRANCH   2   3
TORSDOF 5
ENDMDL
MODEL       16
REMARK 921   NORMALIZED FREE ENERGY PREDICTED BY IDOCK:   -5.74 KCAL/MOL
REMARK 922        TOTAL FREE ENERGY PREDICTED BY IDOCK:   -7.75 KCAL/MOL
REMARK 923 INTER-LIGAND FREE ENERGY PREDICTED BY IDOCK:   -7.28 KCAL/MOL
REMARK 924 INTRA-LIGAND FREE ENERGY PREDICTED BY IDOCK:   -0.47 KCAL/MOL
REMARK 927      BINDING AFFINITY PREDICTED BY RF-SCORE:    0.00 PKD
ROOT
HETATM    1  C   UNL     1     -10.755  19.620  66.635  1.00  0.00    -0.552 C  
HETATM    2  C   UNL     1      -9.510  20.231  67.253  1.00  0.00    -0.423 C  
ENDROOT
BRANCH   2   3
HETATM    3  O   UNL     1      -8.597  19.163  67.548  1.00  0.00    -0.282 OA 
BRANCH   3   4
HETATM    4  C   UNL     1      -8.076  18.534  66.467  1.00  0.00    -0.280 C  
HETATM    5  O   UNL     1      -7.449  19.055  65.559  1.00  0.00    -0.476 OA 
BRANCH   4   6
HETATM    6  C   UNL     1      -8.225  17.069  66.604  1.00  0.00    -0.295 A  
HETATM    7  C   UNL     1      -9.165  16.333  65.889  1.00  0.00    -0.233 A  
HETATM    8  N   UNL     1      -9.408  15.013  66.094  1.00  0.00    -0.302 NA 
HETATM    9  C   UNL     1      -8.680  14.403  67.055  1.00  0.00    -0.223 A  
HETATM   10  C   UNL     1      -7.695  15.042  67.796  1.00  0.00    -0.168 A  
HETATM   11  C   UNL     1      -7.467  16.396  67.565  1.00  0.00    -0.165 A  
BRANCH   9  12
HETATM   12  C   UNL     1      -9.021  13.040  67.312  1.00  0.00    -0.212 C  
HETATM   13  C   UNL     1      -9.334  11.903  67.558  1.00  0.00    -0.177 C  
BRANCH  13  14
HETATM   14  C   UNL     1      -9.697  10.557  67.880  1.00  0.00    -0.171 A  
HETATM   15  C   UNL     1     -10.094  10.219  69.178  1.00  0.00    -0.232 A  
HETATM   16  C   UNL     1     -10.522   8.911  69.521  1.00  0.00    -0.229 A  
HETATM   17  C   UNL     1     -10.488   7.929  68.511  1.00  0.00    -0.167 A  
HETATM   18  S   UNL     1     -10.978   6.222  68.709  1.00  0.00    -0.332 SA 
HETATM   19  C   UNL     1     -10.066   8.274  67.213  1.00  0.00    -0.315 A  
HETATM   20  C   UNL     1     -11.096   6.089  70.504  1.00  0.00    -0.314 C  
HETATM   21  C   UNL     1      -9.678   9.576  66.897  1.00  0.00    -0.237 A  
HETATM   22  C   UNL     1     -11.790   7.307  71.084  1.00  0.00    -0.345 C  
HETATM   23  C   UNL     1     -10.974   8.618  70.959  1.00  0.00    -0.314 C  
HETATM   24  C   UNL     1      -9.727   8.547  71.868  1.00  0.00    -0.358 C  
HETATM   25  C   UNL     1     -11.899   9.739  71.499  1.00  0.00    -0.476 C  
ENDBRANCH  13  14
ENDBRANCH   9  12
ENDBRANCH   4   6
ENDBRANCH   3   4
ENDBRANCH   2   3
TORSDOF 5
ENDMDL
MODEL       17
REMARK 921   NORMALIZED FREE ENERGY PREDICTED BY IDOCK:   -5.66 KCAL/MOL
REMARK 922        TOTAL FREE ENERGY PREDICTED BY IDOCK:   -7.64 KCAL/MOL
REMARK 923 INTER-LIGAND FREE ENERGY PREDICTED BY IDOCK:   -7.29 KCAL/MOL
REMARK 924 INTRA-LIGAND FREE ENERGY PREDICTED BY IDOCK:   -0.35 KCAL/MOL
REMARK 927      BINDING AFFINITY PREDICTED BY RF-SCORE:    0.00 PKD
ROOT
HETATM    1  C   UNL     1      -9.451  19.656  66.550  1.00  0.00    -0.472 C  
HETATM    2  C   UNL     1     -10.571  18.808  65.973  1.00  0.00    -0.386 C  
ENDROOT
BRANCH   2   3
HETATM    3  O   UNL     1      -9.974  17.663  65.346  1.00  0.00    -0.388 OA 
BRANCH   3   4
HETATM    4  C   UNL     1     -10.844  16.705  64.944  1.00  0.00    -0.142 C  
HETATM    5  O   UNL     1     -11.559  16.745  63.955  1.00  0.00    -1.195 OA 
BRANCH   4   6
HETATM    6  C   UNL     1     -10.706  15.498  65.787  1.00  0.00    -0.362 A  
HETATM    7  C   UNL     1      -9.992  15.485  66.980  1.00  0.00    -0.239 A  
HETATM    8  N   UNL     1      -9.742  14.361  67.701  1.00  0.00    -0.217 NA 
HETATM    9  C   UNL     1     -10.227  13.201  67.207  1.00  0.00    -0.243 A  
HETATM   10  C   UNL     1     -10.981  13.117  66.044  1.00  0.00    -0.295 A  
HETATM   11  C   UNL     1     -11.222  14.285  65.325  1.00  0.00    -0.337 A  
BRANCH   9  12
HETATM   12  C   UNL     1      -9.871  12.026  67.935  1.00  0.00    -0.196 C  
HETATM   13  C   UNL     1      -9.591  11.049  68.583  1.00  0.00    -0.198 C  
BRANCH  13  14
HETATM   14  C   UNL     1      -9.244   9.908  69.372  1.00  0.00    -0.225 A  
HETATM   15  C   UNL     1     -10.087   8.791  69.415  1.00  0.00    -0.203 A  
HETATM   16  C   UNL     1      -9.748   7.617  70.135  1.00  0.00    -0.179 A  
HETATM   17  C   UNL     1      -8.540   7.622  70.859  1.00  0.00    -0.129 A  
HETATM   18  S   UNL     1      -7.910   6.263  71.834  1.00  0.00    -0.101 SA 
HETATM   19  C   UNL     1      -7.710   8.758  70.828  1.00  0.00    -0.108 A  
HETATM   20  C   UNL     1      -9.355   5.186  71.923  1.00  0.00    -0.142 C  
HETATM   21  C   UNL     1      -8.055   9.890  70.088  1.00  0.00    -0.169 A  
HETATM   22  C   UNL     1     -10.036   5.097  70.571  1.00  0.00    -0.326 C  
HETATM   23  C   UNL     1     -10.706   6.416  70.112  1.00  0.00    -0.328 C  
HETATM   24  C   UNL     1     -11.918   6.731  71.017  1.00  0.00    -0.431 C  
HETATM   25  C   UNL     1     -11.234   6.142  68.680  1.00  0.00    -0.275 C  
ENDBRANCH  13  14
ENDBRANCH   9  12
ENDBRANCH   4   6
ENDBRANCH   3   4
ENDBRANCH   2   3
TORSDOF 5
ENDMDL
MODEL       18
REMARK 921   NORMALIZED FREE ENERGY PREDICTED BY IDOCK:   -5.66 KCAL/MOL
REMARK 922        TOTAL FREE ENERGY PREDICTED BY IDOCK:   -7.63 KCAL/MOL
REMARK 923 INTER-LIGAND FREE ENERGY PREDICTED BY IDOCK:   -7.61 KCAL/MOL
REMARK 924 INTRA-LIGAND FREE ENERGY PREDICTED BY IDOCK:   -0.02 KCAL/MOL
REMARK 927      BINDING AFFINITY PREDICTED BY RF-SCORE:    0.00 PKD
ROOT
HETATM    1  C   UNL     1     -10.499  17.892  65.838  1.00  0.00    -0.253 C  
HETATM    2  C   UNL     1     -10.227  16.402  65.944  1.00  0.00    -0.359 C  
ENDROOT
BRANCH   2   3
HETATM    3  O   UNL     1     -10.695  15.783  64.736  1.00  0.00    -0.500 OA 
BRANCH   3   4
HETATM    4  C   UNL     1     -11.685  14.873  64.900  1.00  0.00    -0.371 C  
HETATM    5  O   UNL     1     -12.626  14.683  64.146  1.00  0.00    -0.766 OA 
BRANCH   4   6
HETATM    6  C   UNL     1     -11.394  14.001  66.058  1.00  0.00    -0.328 A  
HETATM    7  C   UNL     1     -10.614  12.853  65.967  1.00  0.00    -0.270 A  
HETATM    8  N   UNL     1     -10.443  11.970  66.984  1.00  0.00    -0.218 NA 
HETATM    9  C   UNL     1     -11.079  12.247  68.143  1.00  0.00    -0.240 A  
HETATM   10  C   UNL     1     -11.851  13.384  68.344  1.00  0.00    -0.401 A  
HETATM   11  C   UNL     1     -12.009  14.273  67.283  1.00  0.00    -0.439 A  
BRANCH   9  12
HETATM   12  C   UNL     1     -10.957  11.256  69.164  1.00  0.00    -0.292 C  
HETATM   13  C   UNL     1     -10.817  10.408  70.008  1.00  0.00    -0.348 C  
BRANCH  13  14
HETATM   14  C   UNL     1     -10.650   9.380  70.989  1.00  0.00    -0.400 A  
HETATM   15  C   UNL     1      -9.390   8.812  71.215  1.00  0.00    -0.319 A  
HETATM   16  C   UNL     1      -9.172   7.837  72.222  1.00  0.00    -0.207 A  
HETATM   17  C   UNL     1     -10.287   7.411  72.969  1.00  0.00    -0.306 A  
HETATM   18  S   UNL     1     -10.253   6.198  74.282  1.00  0.00    -0.291 SA 
HETATM   19  C   UNL     1     -11.554   7.971  72.719  1.00  0.00    -0.390 A  
HETATM   20  C   UNL     1      -8.613   5.480  74.063  1.00  0.00    -0.114 C  
HETATM   21  C   UNL     1     -11.735   8.950  71.741  1.00  0.00    -0.432 A  
HETATM   22  C   UNL     1      -7.587   6.565  73.800  1.00  0.00    -0.083 C  
HETATM   23  C   UNL     1      -7.757   7.279  72.436  1.00  0.00    -0.093 C  
HETATM   24  C   UNL     1      -7.429   6.300  71.287  1.00  0.00    -0.093 C  
HETATM   25  C   UNL     1      -6.696   8.410  72.421  1.00  0.00    -0.098 C  
ENDBRANCH  13  14
ENDBRANCH   9  12
ENDBRANCH   4   6
ENDBRANCH   3   4
ENDBRANCH   2   3
TORSDOF 5
ENDMDL
MODEL       19
REMARK 921   NORMALIZED FREE ENERGY PREDICTED BY IDOCK:   -5.64 KCAL/MOL
REMARK 922        TOTAL FREE ENERGY PREDICTED BY IDOCK:   -7.62 KCAL/MOL
REMARK 923 INTER-LIGAND FREE ENERGY PREDICTED BY IDOCK:   -7.21 KCAL/MOL
REMARK 924 INTRA-LIGAND FREE ENERGY PREDICTED BY IDOCK:   -0.40 KCAL/MOL
REMARK 927      BINDING AFFINITY PREDICTED BY RF-SCORE:    0.00 PKD
ROOT
HETATM    1  C   UNL     1     -10.016   2.355  73.001  1.00  0.00    -0.187 C  
HETATM    2  C   UNL     1     -11.007   3.370  73.543  1.00  0.00    -0.233 C  
ENDROOT
BRANCH   2   3
HETATM    3  O   UNL     1     -11.011   4.498  72.655  1.00  0.00    -0.161 OA 
BRANCH   3   4
HETATM    4  C   UNL     1     -10.866   5.705  73.252  1.00  0.00    -0.282 C  
HETATM    5  O   UNL     1     -10.492   5.906  74.396  1.00  0.00    -0.265 OA 
BRANCH   4   6
HETATM    6  C   UNL     1     -11.072   6.792  72.271  1.00  0.00    -0.286 A  
HETATM    7  C   UNL     1     -10.657   6.706  70.946  1.00  0.00    -0.224 A  
HETATM    8  N   UNL     1     -10.717   7.737  70.064  1.00  0.00    -0.243 NA 
HETATM    9  C   UNL     1     -11.214   8.904  70.528  1.00  0.00    -0.252 A  
HETATM   10  C   UNL     1     -11.687   9.079  71.822  1.00  0.00    -0.440 A  
HETATM   11  C   UNL     1     -11.614   8.004  72.705  1.00  0.00    -0.448 A  
BRANCH   9  12
HETATM   12  C   UNL     1     -11.180   9.996  69.607  1.00  0.00    -0.285 C  
HETATM   13  C   UNL     1     -11.131  10.939  68.860  1.00  0.00    -0.307 C  
BRANCH  13  14
HETATM   14  C   UNL     1     -11.090  12.076  67.992  1.00  0.00    -0.292 A  
HETATM   15  C   UNL     1     -10.583  13.299  68.447  1.00  0.00    -0.263 A  
HETATM   16  C   UNL     1     -10.466  14.429  67.599  1.00  0.00    -0.245 A  
HETATM   17  C   UNL     1     -10.928  14.301  66.274  1.00  0.00    -0.317 A  
HETATM   18  S   UNL     1     -10.883  15.586  65.032  1.00  0.00    -0.424 SA 
HETATM   19  C   UNL     1     -11.456  13.074  65.833  1.00  0.00    -0.374 A  
HETATM   20  C   UNL     1     -10.503  17.038  66.033  1.00  0.00    -0.274 C  
HETATM   21  C   UNL     1     -11.534  11.969  66.681  1.00  0.00    -0.411 A  
HETATM   22  C   UNL     1      -9.424  16.717  67.049  1.00  0.00    -0.240 C  
HETATM   23  C   UNL     1      -9.872  15.731  68.157  1.00  0.00    -0.209 C  
HETATM   24  C   UNL     1     -10.922  16.408  69.067  1.00  0.00    -0.325 C  
HETATM   25  C   UNL     1      -8.606  15.455  69.008  1.00  0.00    -0.227 C  
ENDBRANCH  13  14
ENDBRANCH   9  12
ENDBRANCH   4   6
ENDBRANCH   3   4
ENDBRANCH   2   3
TORSDOF 5
ENDMDL
MODEL       20
REMARK 921   NORMALIZED FREE ENERGY PREDICTED BY IDOCK:   -5.59 KCAL/MOL
REMARK 922        TOTAL FREE ENERGY PREDICTED BY IDOCK:   -7.55 KCAL/MOL
REMARK 923 INTER-LIGAND FREE ENERGY PREDICTED BY IDOCK:   -7.16 KCAL/MOL
REMARK 924 INTRA-LIGAND FREE ENERGY PREDICTED BY IDOCK:   -0.39 KCAL/MOL
REMARK 927      BINDING AFFINITY PREDICTED BY RF-SCORE:    0.00 PKD
ROOT
HETATM    1  C   UNL     1     -11.935  16.277  73.931  1.00  0.00    -0.339 C  
HETATM    2  C   UNL     1     -13.389  15.975  73.613  1.00  0.00    -0.273 C  
ENDROOT
BRANCH   2   3
HETATM    3  O   UNL     1     -13.447  14.667  73.024  1.00  0.00    -0.544 OA 
BRANCH   3   4
HETATM    4  C   UNL     1     -13.240  14.627  71.686  1.00  0.00    -0.349 C  
HETATM    5  O   UNL     1     -13.204  15.584  70.929  1.00  0.00    -0.497 OA 
BRANCH   4   6
HETATM    6  C   UNL     1     -12.895  13.253  71.261  1.00  0.00    -0.398 A  
HETATM    7  C   UNL     1     -13.248  12.122  71.991  1.00  0.00    -0.391 A  
HETATM    8  N   UNL     1     -12.831  10.865  71.689  1.00  0.00    -0.449 NA 
HETATM    9  C   UNL     1     -12.027  10.734  70.611  1.00  0.00    -0.367 A  
HETATM   10  C   UNL     1     -11.649  11.795  69.800  1.00  0.00    -0.372 A  
HETATM   11  C   UNL     1     -12.092  13.074  70.132  1.00  0.00    -0.377 A  
BRANCH   9  12
HETATM   12  C   UNL     1     -11.529   9.417  70.373  1.00  0.00    -0.272 C  
HETATM   13  C   UNL     1     -11.147   8.291  70.182  1.00  0.00    -0.189 C  
BRANCH  13  14
HETATM   14  C   UNL     1     -10.700   6.946  69.985  1.00  0.00    -0.276 A  
HETATM   15  C   UNL     1     -10.202   6.538  68.742  1.00  0.00    -0.194 A  
HETATM   16  C   UNL     1      -9.691   5.233  68.525  1.00  0.00    -0.194 A  
HETATM   17  C   UNL     1      -9.745   4.325  69.601  1.00  0.00    -0.214 A  
HETATM   18  S   UNL     1      -9.163   2.635  69.561  1.00  0.00    -0.112 SA 
HETATM   19  C   UNL     1     -10.268   4.738  70.840  1.00  0.00    -0.247 A  
HETATM   20  C   UNL     1      -8.919   2.383  67.791  1.00  0.00    -0.155 C  
HETATM   21  C   UNL     1     -10.738   6.037  71.034  1.00  0.00    -0.325 A  
HETATM   22  C   UNL     1      -8.247   3.591  67.168  1.00  0.00    -0.091 C  
HETATM   23  C   UNL     1      -9.131   4.863  67.144  1.00  0.00    -0.122 C  
HETATM   24  C   UNL     1     -10.310   4.663  66.166  1.00  0.00    -0.310 C  
HETATM   25  C   UNL     1      -8.226   5.990  66.581  1.00  0.00    -0.106 C  
ENDBRANCH  13  14
ENDBRANCH   9  12
ENDBRANCH   4   6
ENDBRANCH   3   4
ENDBRANCH   2   3
TORSDOF 5
ENDMDL
MODEL       21
REMARK 921   NORMALIZED FREE ENERGY PREDICTED BY IDOCK:   -5.55 KCAL/MOL
REMARK 922        TOTAL FREE ENERGY PREDICTED BY IDOCK:   -7.50 KCAL/MOL
REMARK 923 INTER-LIGAND FREE ENERGY PREDICTED BY IDOCK:   -7.12 KCAL/MOL
REMARK 924 INTRA-LIGAND FREE ENERGY PREDICTED BY IDOCK:   -0.38 KCAL/MOL
REMARK 927      BINDING AFFINITY PREDICTED BY RF-SCORE:    0.00 PKD
ROOT
HETATM    1  C   UNL     1     -13.333  15.845  73.068  1.00  0.00    -0.663 C  
HETATM    2  C   UNL     1     -12.271  15.920  71.985  1.00  0.00    -0.490 C  
ENDROOT
BRANCH   2   3
HETATM    3  O   UNL     1     -12.852  15.432  70.767  1.00  0.00    -0.430 OA 
BRANCH   3   4
HETATM    4  C   UNL     1     -12.031  15.448  69.689  1.00  0.00    -0.343 C  
HETATM    5  O   UNL     1     -11.387  16.401  69.283  1.00  0.00    -0.300 OA 
BRANCH   4   6
HETATM    6  C   UNL     1     -11.883  14.084  69.136  1.00  0.00    -0.391 A  
HETATM    7  C   UNL     1     -11.817  12.946  69.934  1.00  0.00    -0.303 A  
HETATM    8  N   UNL     1     -11.550  11.702  69.458  1.00  0.00    -0.305 NA 
HETATM    9  C   UNL     1     -11.341  11.592  68.128  1.00  0.00    -0.298 A  
HETATM   10  C   UNL     1     -11.421  12.661  67.246  1.00  0.00    -0.402 A  
HETATM   11  C   UNL     1     -11.697  13.926  67.761  1.00  0.00    -0.401 A  
BRANCH   9  12
HETATM   12  C   UNL     1     -10.972  10.290  67.670  1.00  0.00    -0.356 C  
HETATM   13  C   UNL     1     -10.645   9.185  67.321  1.00  0.00    -0.303 C  
BRANCH  13  14
HETATM   14  C   UNL     1     -10.226   7.879  66.913  1.00  0.00    -0.380 A  
HETATM   15  C   UNL     1      -9.078   7.713  66.129  1.00  0.00    -0.189 A  
HETATM   16  C   UNL     1      -8.596   6.432  65.758  1.00  0.00    -0.152 A  
HETATM   17  C   UNL     1      -9.345   5.311  66.166  1.00  0.00    -0.156 A  
HETATM   18  S   UNL     1      -8.933   3.607  65.817  1.00  0.00    -0.144 SA 
HETATM   19  C   UNL     1     -10.510   5.489  66.935  1.00  0.00    -0.348 A  
HETATM   20  C   UNL     1      -7.649   3.798  64.564  1.00  0.00    -0.080 C  
HETATM   21  C   UNL     1     -10.947   6.760  67.309  1.00  0.00    -0.433 A  
HETATM   22  C   UNL     1      -6.688   4.905  64.952  1.00  0.00    -0.048 C  
HETATM   23  C   UNL     1      -7.312   6.323  64.923  1.00  0.00    -0.075 C  
HETATM   24  C   UNL     1      -7.631   6.725  63.465  1.00  0.00    -0.093 C  
HETATM   25  C   UNL     1      -6.210   7.275  65.454  1.00  0.00    -0.038 C  
ENDBRANCH  13  14
ENDBRANCH   9  12
ENDBRANCH   4   6
ENDBRANCH   3   4
ENDBRANCH   2   3
TORSDOF 5
ENDMDL
MODEL       22
REMARK 921   NORMALIZED FREE ENERGY PREDICTED BY IDOCK:   -5.54 KCAL/MOL
REMARK 922        TOTAL FREE ENERGY PREDICTED BY IDOCK:   -7.48 KCAL/MOL
REMARK 923 INTER-LIGAND FREE ENERGY PREDICTED BY IDOCK:   -7.07 KCAL/MOL
REMARK 924 INTRA-LIGAND FREE ENERGY PREDICTED BY IDOCK:   -0.41 KCAL/MOL
REMARK 927      BINDING AFFINITY PREDICTED BY RF-SCORE:    0.00 PKD
ROOT
HETATM    1  C   UNL     1      -8.644   2.664  71.399  1.00  0.00    -0.101 C  
HETATM    2  C   UNL     1      -9.461   3.284  72.520  1.00  0.00    -0.117 C  
ENDROOT
BRANCH   2   3
HETATM    3  O   UNL     1     -10.443   4.144  71.923  1.00  0.00    -0.095 OA 
BRANCH   3   4
HETATM    4  C   UNL     1     -10.970   5.080  72.749  1.00  0.00    -0.247 C  
HETATM    5  O   UNL     1     -11.135   4.973  73.953  1.00  0.00    -0.285 OA 
BRANCH   4   6
HETATM    6  C   UNL     1     -11.183   6.349  72.018  1.00  0.00    -0.324 A  
HETATM    7  C   UNL     1     -11.066   6.456  70.636  1.00  0.00    -0.317 A  
HETATM    8  N   UNL     1     -11.128   7.632  69.959  1.00  0.00    -0.231 NA 
HETATM    9  C   UNL     1     -11.315   8.748  70.698  1.00  0.00    -0.254 A  
HETATM   10  C   UNL     1     -11.477   8.741  72.076  1.00  0.00    -0.441 A  
HETATM   11  C   UNL     1     -11.410   7.520  72.744  1.00  0.00    -0.388 A  
BRANCH   9  12
HETATM   12  C   UNL     1     -11.283   9.977  69.971  1.00  0.00    -0.345 C  
HETATM   13  C   UNL     1     -11.214  11.011  69.356  1.00  0.00    -0.332 C  
BRANCH  13  14
HETATM   14  C   UNL     1     -11.115  12.250  68.647  1.00  0.00    -0.291 A  
HETATM   15  C   UNL     1     -11.359  12.302  67.270  1.00  0.00    -0.392 A  
HETATM   16  C   UNL     1     -11.332  13.521  66.544  1.00  0.00    -0.340 A  
HETATM   17  C   UNL     1     -11.000  14.693  67.251  1.00  0.00    -0.317 A  
HETATM   18  S   UNL     1     -10.906  16.334  66.550  1.00  0.00    -0.016 SA 
HETATM   19  C   UNL     1     -10.736  14.627  68.632  1.00  0.00    -0.252 A  
HETATM   20  C   UNL     1     -10.944  15.971  64.783  1.00  0.00    -0.356 C  
HETATM   21  C   UNL     1     -10.796  13.418  69.326  1.00  0.00    -0.085 A  
HETATM   22  C   UNL     1     -11.984  14.911  64.479  1.00  0.00    -0.420 C  
HETATM   23  C   UNL     1     -11.640  13.508  65.040  1.00  0.00    -0.345 C  
HETATM   24  C   UNL     1     -10.421  12.929  64.287  1.00  0.00    -0.430 C  
HETATM   25  C   UNL     1     -12.869  12.618  64.722  1.00  0.00    -0.349 C  
ENDBRANCH  13  14
ENDBRANCH   9  12
ENDBRANCH   4   6
ENDBRANCH   3   4
ENDBRANCH   2   3
TORSDOF 5
ENDMDL
MODEL       23
REMARK 921   NORMALIZED FREE ENERGY PREDICTED BY IDOCK:   -5.50 KCAL/MOL
REMARK 922        TOTAL FREE ENERGY PREDICTED BY IDOCK:   -7.44 KCAL/MOL
REMARK 923 INTER-LIGAND FREE ENERGY PREDICTED BY IDOCK:   -6.94 KCAL/MOL
REMARK 924 INTRA-LIGAND FREE ENERGY PREDICTED BY IDOCK:   -0.50 KCAL/MOL
REMARK 927      BINDING AFFINITY PREDICTED BY RF-SCORE:    0.00 PKD
ROOT
HETATM    1  C   UNL     1     -10.285  16.596  66.182  1.00  0.00    -0.360 C  
HETATM    2  C   UNL     1     -10.768  16.017  64.863  1.00  0.00    -0.316 C  
ENDROOT
BRANCH   2   3
HETATM    3  O   UNL     1     -12.061  15.435  65.086  1.00  0.00     0.034 OA 
BRANCH   3   4
HETATM    4  C   UNL     1     -12.266  14.236  64.489  1.00  0.00    -0.455 C  
HETATM    5  O   UNL     1     -12.718  14.053  63.370  1.00  0.00    -0.796 OA 
BRANCH   4   6
HETATM    6  C   UNL     1     -11.711  13.146  65.320  1.00  0.00    -0.375 A  
HETATM    7  C   UNL     1     -11.101  12.017  64.782  1.00  0.00    -0.317 A  
HETATM    8  N   UNL     1     -10.704  10.947  65.518  1.00  0.00    -0.167 NA 
HETATM    9  C   UNL     1     -10.925  11.009  66.849  1.00  0.00    -0.249 A  
HETATM   10  C   UNL     1     -11.494  12.106  67.484  1.00  0.00    -0.410 A  
HETATM   11  C   UNL     1     -11.891  13.190  66.704  1.00  0.00    -0.449 A  
BRANCH   9  12
HETATM   12  C   UNL     1     -10.583   9.834  67.584  1.00  0.00    -0.333 C  
HETATM   13  C   UNL     1     -10.321   8.854  68.233  1.00  0.00    -0.250 C  
BRANCH  13  14
HETATM   14  C   UNL     1     -10.001   7.707  69.028  1.00  0.00    -0.181 A  
HETATM   15  C   UNL     1     -10.640   7.494  70.255  1.00  0.00    -0.235 A  
HETATM   16  C   UNL     1     -10.397   6.338  71.040  1.00  0.00    -0.258 A  
HETATM   17  C   UNL     1      -9.441   5.417  70.567  1.00  0.00    -0.165 A  
HETATM   18  S   UNL     1      -8.974   3.897  71.384  1.00  0.00    -0.114 SA 
HETATM   19  C   UNL     1      -8.789   5.652  69.343  1.00  0.00    -0.114 A  
HETATM   20  C   UNL     1      -9.714   4.124  73.013  1.00  0.00    -0.129 C  
HETATM   21  C   UNL     1      -9.068   6.784  68.576  1.00  0.00    -0.129 A  
HETATM   22  C   UNL     1     -11.113   4.696  72.888  1.00  0.00    -0.273 C  
HETATM   23  C   UNL     1     -11.156   6.152  72.363  1.00  0.00    -0.316 C  
HETATM   24  C   UNL     1     -10.556   7.108  73.419  1.00  0.00    -0.424 C  
HETATM   25  C   UNL     1     -12.660   6.495  72.203  1.00  0.00    -0.157 C  
ENDBRANCH  13  14
ENDBRANCH   9  12
ENDBRANCH   4   6
ENDBRANCH   3   4
ENDBRANCH   2   3
TORSDOF 5
ENDMDL
MODEL       24
REMARK 921   NORMALIZED FREE ENERGY PREDICTED BY IDOCK:   -5.42 KCAL/MOL
REMARK 922        TOTAL FREE ENERGY PREDICTED BY IDOCK:   -7.33 KCAL/MOL
REMARK 923 INTER-LIGAND FREE ENERGY PREDICTED BY IDOCK:   -6.94 KCAL/MOL
REMARK 924 INTRA-LIGAND FREE ENERGY PREDICTED BY IDOCK:   -0.39 KCAL/MOL
REMARK 927      BINDING AFFINITY PREDICTED BY RF-SCORE:    0.00 PKD
ROOT
HETATM    1  C   UNL     1      -9.968  19.872  67.029  1.00  0.00    -0.559 C  
HETATM    2  C   UNL     1     -10.781  18.602  66.845  1.00  0.00    -0.309 C  
ENDROOT
BRANCH   2   3
HETATM    3  O   UNL     1      -9.995  17.686  66.068  1.00  0.00    -0.469 OA 
BRANCH   3   4
HETATM    4  C   UNL     1     -10.687  16.672  65.496  1.00  0.00    -0.223 C  
HETATM    5  O   UNL     1     -11.272  16.707  64.426  1.00  0.00    -1.033 OA 
BRANCH   4   6
HETATM    6  C   UNL     1     -10.512  15.427  66.275  1.00  0.00    -0.310 A  
HETATM    7  C   UNL     1      -9.407  15.190  67.087  1.00  0.00    -0.212 A  
HETATM    8  N   UNL     1      -9.162  14.006  67.706  1.00  0.00    -0.188 NA 
HETATM    9  C   UNL     1     -10.060  13.017  67.504  1.00  0.00    -0.218 A  
HETATM   10  C   UNL     1     -11.210  13.166  66.740  1.00  0.00    -0.330 A  
HETATM   11  C   UNL     1     -11.437  14.392  66.118  1.00  0.00    -0.357 A  
BRANCH   9  12
HETATM   12  C   UNL     1      -9.729  11.758  68.090  1.00  0.00    -0.192 C  
HETATM   13  C   UNL     1      -9.454  10.678  68.547  1.00  0.00    -0.176 C  
BRANCH  13  14
HETATM   14  C   UNL     1      -9.155   9.384  69.081  1.00  0.00    -0.148 A  
HETATM   15  C   UNL     1      -9.654   8.999  70.331  1.00  0.00    -0.246 A  
HETATM   16  C   UNL     1      -9.433   7.703  70.865  1.00  0.00    -0.166 A  
HETATM   17  C   UNL     1      -8.641   6.814  70.112  1.00  0.00    -0.140 A  
HETATM   18  S   UNL     1      -8.231   5.140  70.582  1.00  0.00    -0.109 SA 
HETATM   19  C   UNL     1      -8.126   7.219  68.867  1.00  0.00    -0.128 A  
HETATM   20  C   UNL     1      -8.737   5.120  72.314  1.00  0.00    -0.125 C  
HETATM   21  C   UNL     1      -8.382   8.490  68.352  1.00  0.00    -0.124 A  
HETATM   22  C   UNL     1     -10.076   5.811  72.485  1.00  0.00    -0.207 C  
HETATM   23  C   UNL     1     -10.037   7.338  72.229  1.00  0.00    -0.219 C  
HETATM   24  C   UNL     1      -9.218   8.035  73.338  1.00  0.00    -0.332 C  
HETATM   25  C   UNL     1     -11.507   7.818  72.343  1.00  0.00    -0.418 C  
ENDBRANCH  13  14
ENDBRANCH   9  12
ENDBRANCH   4   6
ENDBRANCH   3   4
ENDBRANCH   2   3
TORSDOF 5
ENDMDL
MODEL       25
REMARK 921   NORMALIZED FREE ENERGY PREDICTED BY IDOCK:   -5.38 KCAL/MOL
REMARK 922        TOTAL FREE ENERGY PREDICTED BY IDOCK:   -7.27 KCAL/MOL
REMARK 923 INTER-LIGAND FREE ENERGY PREDICTED BY IDOCK:   -7.04 KCAL/MOL
REMARK 924 INTRA-LIGAND FREE ENERGY PREDICTED BY IDOCK:   -0.23 KCAL/MOL
REMARK 927      BINDING AFFINITY PREDICTED BY RF-SCORE:    0.00 PKD
ROOT
HETATM    1  C   UNL     1      -9.619  19.473  66.594  1.00  0.00    -0.450 C  
HETATM    2  C   UNL     1     -10.645  18.382  66.342  1.00  0.00    -0.309 C  
ENDROOT
BRANCH   2   3
HETATM    3  O   UNL     1     -10.149  17.551  65.282  1.00  0.00    -0.362 OA 
BRANCH   3   4
HETATM    4  C   UNL     1     -11.047  16.680  64.763  1.00  0.00    -0.110 C  
HETATM    5  O   UNL     1     -11.647  16.802  63.707  1.00  0.00    -0.920 OA 
BRANCH   4   6
HETATM    6  C   UNL     1     -11.098  15.447  65.578  1.00  0.00    -0.301 A  
HETATM    7  C   UNL     1     -10.099  15.091  66.478  1.00  0.00    -0.276 A  
HETATM    8  N   UNL     1     -10.061  13.905  67.139  1.00  0.00    -0.249 NA 
HETATM    9  C   UNL     1     -11.066  13.038  66.888  1.00  0.00    -0.277 A  
HETATM   10  C   UNL     1     -12.126  13.314  66.035  1.00  0.00    -0.491 A  
HETATM   11  C   UNL     1     -12.140  14.539  65.371  1.00  0.00    -0.317 A  
BRANCH   9  12
HETATM   12  C   UNL     1     -10.951  11.764  67.524  1.00  0.00    -0.310 C  
HETATM   13  C   UNL     1     -10.845  10.709  68.096  1.00  0.00    -0.291 C  
BRANCH  13  14
HETATM   14  C   UNL     1     -10.689   9.464  68.782  1.00  0.00    -0.200 A  
HETATM   15  C   UNL     1     -10.134   8.357  68.129  1.00  0.00    -0.239 A  
HETATM   16  C   UNL     1      -9.905   7.125  68.794  1.00  0.00    -0.158 A  
HETATM   17  C   UNL     1     -10.305   7.027  70.141  1.00  0.00    -0.197 A  
HETATM   18  S   UNL     1     -10.117   5.582  71.175  1.00  0.00    -0.216 SA 
HETATM   19  C   UNL     1     -10.882   8.139  70.782  1.00  0.00    -0.247 A  
HETATM   20  C   UNL     1      -9.702   4.320  69.954  1.00  0.00    -0.221 C  
HETATM   21  C   UNL     1     -11.070   9.348  70.112  1.00  0.00    -0.277 A  
HETATM   22  C   UNL     1      -8.699   4.857  68.952  1.00  0.00    -0.103 C  
HETATM   23  C   UNL     1      -9.264   5.961  68.023  1.00  0.00    -0.112 C  
HETATM   24  C   UNL     1     -10.316   5.356  67.068  1.00  0.00    -0.299 C  
HETATM   25  C   UNL     1      -8.062   6.444  67.170  1.00  0.00    -0.113 C  
ENDBRANCH  13  14
ENDBRANCH   9  12
ENDBRANCH   4   6
ENDBRANCH   3   4
ENDBRANCH   2   3
TORSDOF 5
ENDMDL
MODEL       26
REMARK 921   NORMALIZED FREE ENERGY PREDICTED BY IDOCK:   -5.37 KCAL/MOL
REMARK 922        TOTAL FREE ENERGY PREDICTED BY IDOCK:   -7.27 KCAL/MOL
REMARK 923 INTER-LIGAND FREE ENERGY PREDICTED BY IDOCK:   -6.82 KCAL/MOL
REMARK 924 INTRA-LIGAND FREE ENERGY PREDICTED BY IDOCK:   -0.45 KCAL/MOL
REMARK 927      BINDING AFFINITY PREDICTED BY RF-SCORE:    0.00 PKD
ROOT
HETATM    1  C   UNL     1     -10.101  16.412  66.079  1.00  0.00    -0.373 C  
HETATM    2  C   UNL     1     -10.338  15.410  64.962  1.00  0.00    -0.329 C  
ENDROOT
BRANCH   2   3
HETATM    3  O   UNL     1     -11.750  15.164  64.886  1.00  0.00    -0.356 OA 
BRANCH   3   4
HETATM    4  C   UNL     1     -12.099  13.946  64.409  1.00  0.00    -0.443 C  
HETATM    5  O   UNL     1     -12.419  13.682  63.261  1.00  0.00    -0.801 OA 
BRANCH   4   6
HETATM    6  C   UNL     1     -11.888  12.909  65.442  1.00  0.00    -0.444 A  
HETATM    7  C   UNL     1     -12.331  13.044  66.754  1.00  0.00    -0.029 A  
HETATM    8  N   UNL     1     -12.035  12.167  67.748  1.00  0.00    -0.524 NA 
HETATM    9  C   UNL     1     -11.262  11.110  67.416  1.00  0.00    -0.294 A  
HETATM   10  C   UNL     1     -10.800  10.870  66.129  1.00  0.00    -0.166 A  
HETATM   11  C   UNL     1     -11.120  11.785  65.128  1.00  0.00    -0.341 A  
BRANCH   9  12
HETATM   12  C   UNL     1     -10.891  10.257  68.499  1.00  0.00    -0.281 C  
HETATM   13  C   UNL     1     -10.558   9.512  69.385  1.00  0.00    -0.235 C  
BRANCH  13  14
HETATM   14  C   UNL     1     -10.178   8.605  70.424  1.00  0.00    -0.218 A  
HETATM   15  C   UNL     1      -9.545   7.395  70.114  1.00  0.00    -0.165 A  
HETATM   16  C   UNL     1      -9.097   6.499  71.119  1.00  0.00    -0.152 A  
HETATM   17  C   UNL     1      -9.354   6.843  72.460  1.00  0.00    -0.139 A  
HETATM   18  S   UNL     1      -8.884   5.873  73.886  1.00  0.00    -0.126 SA 
HETATM   19  C   UNL     1     -10.010   8.051  72.760  1.00  0.00    -0.364 A  
HETATM   20  C   UNL     1      -8.422   4.308  73.118  1.00  0.00    -0.090 C  
HETATM   21  C   UNL     1     -10.416   8.927  71.753  1.00  0.00    -0.431 A  
HETATM   22  C   UNL     1      -7.595   4.550  71.871  1.00  0.00    -0.083 C  
HETATM   23  C   UNL     1      -8.382   5.204  70.708  1.00  0.00    -0.113 C  
HETATM   24  C   UNL     1      -9.430   4.209  70.160  1.00  0.00    -0.254 C  
HETATM   25  C   UNL     1      -7.338   5.465  69.591  1.00  0.00    -0.065 C  
ENDBRANCH  13  14
ENDBRANCH   9  12
ENDBRANCH   4   6
ENDBRANCH   3   4
ENDBRANCH   2   3
TORSDOF 5
ENDMDL
MODEL       27
REMARK 921   NORMALIZED FREE ENERGY PREDICTED BY IDOCK:   -5.37 KCAL/MOL
REMARK 922        TOTAL FREE ENERGY PREDICTED BY IDOCK:   -7.26 KCAL/MOL
REMARK 923 INTER-LIGAND FREE ENERGY PREDICTED BY IDOCK:   -6.84 KCAL/MOL
REMARK 924 INTRA-LIGAND FREE ENERGY PREDICTED BY IDOCK:   -0.42 KCAL/MOL
REMARK 927      BINDING AFFINITY PREDICTED BY RF-SCORE:    0.00 PKD
ROOT
HETATM    1  C   UNL     1     -10.946   2.334  63.072  1.00  0.00    -0.238 C  
HETATM    2  C   UNL     1     -10.637   3.776  63.434  1.00  0.00    -0.225 C  
ENDROOT
BRANCH   2   3
HETATM    3  O   UNL     1     -10.262   3.811  64.819  1.00  0.00    -0.193 OA 
BRANCH   3   4
HETATM    4  C   UNL     1      -9.170   4.561  65.103  1.00  0.00    -0.157 C  
HETATM    5  O   UNL     1      -8.084   4.498  64.550  1.00  0.00    -0.095 OA 
BRANCH   4   6
HETATM    6  C   UNL     1      -9.509   5.608  66.090  1.00  0.00    -0.157 A  
HETATM    7  C   UNL     1     -10.613   5.527  66.933  1.00  0.00    -0.278 A  
HETATM    8  N   UNL     1     -11.016   6.532  67.752  1.00  0.00    -0.316 NA 
HETATM    9  C   UNL     1     -10.284   7.667  67.727  1.00  0.00    -0.201 A  
HETATM   10  C   UNL     1      -9.147   7.832  66.948  1.00  0.00    -0.171 A  
HETATM   11  C   UNL     1      -8.755   6.784  66.118  1.00  0.00    -0.156 A  
BRANCH   9  12
HETATM   12  C   UNL     1     -10.785   8.739  68.528  1.00  0.00    -0.108 C  
HETATM   13  C   UNL     1     -11.216   9.663  69.168  1.00  0.00    -0.056 C  
BRANCH  13  14
HETATM   14  C   UNL     1     -11.708  10.780  69.916  1.00  0.00    -0.412 A  
HETATM   15  C   UNL     1     -11.428  12.088  69.505  1.00  0.00    -0.351 A  
HETATM   16  C   UNL     1     -11.951  13.220  70.183  1.00  0.00    -0.388 A  
HETATM   17  C   UNL     1     -12.733  12.988  71.331  1.00  0.00    -0.281 A  
HETATM   18  S   UNL     1     -13.493  14.253  72.339  1.00  0.00    -0.531 SA 
HETATM   19  C   UNL     1     -12.991  11.669  71.748  1.00  0.00    -0.483 A  
HETATM   20  C   UNL     1     -12.669  15.738  71.731  1.00  0.00    -0.456 C  
HETATM   21  C   UNL     1     -12.487  10.573  71.046  1.00  0.00    -0.501 A  
HETATM   22  C   UNL     1     -12.578  15.715  70.218  1.00  0.00    -0.319 C  
HETATM   23  C   UNL     1     -11.628  14.627  69.658  1.00  0.00    -0.349 C  
HETATM   24  C   UNL     1     -10.166  14.970  70.022  1.00  0.00    -0.059 C  
HETATM   25  C   UNL     1     -11.770  14.701  68.116  1.00  0.00    -0.360 C  
ENDBRANCH  13  14
ENDBRANCH   9  12
ENDBRANCH   4   6
ENDBRANCH   3   4
ENDBRANCH   2   3
TORSDOF 5
ENDMDL
MODEL       28
REMARK 921   NORMALIZED FREE ENERGY PREDICTED BY IDOCK:   -5.35 KCAL/MOL
REMARK 922        TOTAL FREE ENERGY PREDICTED BY IDOCK:   -7.24 KCAL/MOL
REMARK 923 INTER-LIGAND FREE ENERGY PREDICTED BY IDOCK:   -6.84 KCAL/MOL
REMARK 924 INTRA-LIGAND FREE ENERGY PREDICTED BY IDOCK:   -0.40 KCAL/MOL
REMARK 927      BINDING AFFINITY PREDICTED BY RF-SCORE:    0.00 PKD
ROOT
HETATM    1  C   UNL     1      -9.334  18.952  67.122  1.00  0.00    -0.328 C  
HETATM    2  C   UNL     1     -10.463  18.142  66.509  1.00  0.00    -0.341 C  
ENDROOT
BRANCH   2   3
HETATM    3  O   UNL     1      -9.911  16.901  66.043  1.00  0.00    -0.376 OA 
BRANCH   3   4
HETATM    4  C   UNL     1     -10.735  16.155  65.269  1.00  0.00    -0.368 C  
HETATM    5  O   UNL     1     -11.333  16.533  64.275  1.00  0.00    -1.020 OA 
BRANCH   4   6
HETATM    6  C   UNL     1     -10.700  14.740  65.698  1.00  0.00    -0.345 A  
HETATM    7  C   UNL     1      -9.818  14.261  66.660  1.00  0.00    -0.281 A  
HETATM    8  N   UNL     1      -9.679  12.946  66.973  1.00  0.00    -0.224 NA 
HETATM    9  C   UNL     1     -10.456  12.075  66.294  1.00  0.00    -0.238 A  
HETATM   10  C   UNL     1     -11.392  12.458  65.342  1.00  0.00    -0.379 A  
HETATM   11  C   UNL     1     -11.513  13.813  65.041  1.00  0.00    -0.340 A  
BRANCH   9  12
HETATM   12  C   UNL     1     -10.223  10.694  66.577  1.00  0.00    -0.288 C  
HETATM   13  C   UNL     1      -9.989   9.534  66.799  1.00  0.00    -0.297 C  
BRANCH  13  14
HETATM   14  C   UNL     1      -9.707   8.150  67.032  1.00  0.00    -0.275 A  
HETATM   15  C   UNL     1      -9.760   7.623  68.327  1.00  0.00    -0.166 A  
HETATM   16  C   UNL     1      -9.549   6.245  68.590  1.00  0.00    -0.128 A  
HETATM   17  C   UNL     1      -9.231   5.414  67.497  1.00  0.00    -0.112 A  
HETATM   18  S   UNL     1      -8.926   3.656  67.587  1.00  0.00    -0.155 SA 
HETATM   19  C   UNL     1      -9.159   5.958  66.202  1.00  0.00    -0.160 A  
HETATM   20  C   UNL     1      -8.753   3.413  69.367  1.00  0.00    -0.077 C  
HETATM   21  C   UNL     1      -9.399   7.313  65.968  1.00  0.00    -0.030 A  
HETATM   22  C   UNL     1      -9.817   4.191  70.116  1.00  0.00    -0.242 C  
HETATM   23  C   UNL     1      -9.652   5.729  70.033  1.00  0.00    -0.206 C  
HETATM   24  C   UNL     1      -8.389   6.164  70.808  1.00  0.00    -0.126 C  
HETATM   25  C   UNL     1     -10.888   6.322  70.757  1.00  0.00    -0.339 C  
ENDBRANCH  13  14
ENDBRANCH   9  12
ENDBRANCH   4   6
ENDBRANCH   3   4
ENDBRANCH   2   3
TORSDOF 5
ENDMDL
MODEL       29
REMARK 921   NORMALIZED FREE ENERGY PREDICTED BY IDOCK:   -5.30 KCAL/MOL
REMARK 922        TOTAL FREE ENERGY PREDICTED BY IDOCK:   -7.18 KCAL/MOL
REMARK 923 INTER-LIGAND FREE ENERGY PREDICTED BY IDOCK:   -6.77 KCAL/MOL
REMARK 924 INTRA-LIGAND FREE ENERGY PREDICTED BY IDOCK:   -0.40 KCAL/MOL
REMARK 927      BINDING AFFINITY PREDICTED BY RF-SCORE:    0.00 PKD
ROOT
HETATM    1  C   UNL     1      -9.624   2.876  62.334  1.00  0.00    -0.092 C  
HETATM    2  C   UNL     1      -9.358   3.075  63.816  1.00  0.00    -0.105 C  
ENDROOT
BRANCH   2   3
HETATM    3  O   UNL     1      -9.057   4.462  64.025  1.00  0.00    -0.144 OA 
BRANCH   3   4
HETATM    4  C   UNL     1      -8.399   4.744  65.176  1.00  0.00    -0.129 C  
HETATM    5  O   UNL     1      -7.350   4.246  65.550  1.00  0.00    -0.074 OA 
BRANCH   4   6
HETATM    6  C   UNL     1      -9.044   5.878  65.872  1.00  0.00    -0.135 A  
HETATM    7  C   UNL     1      -8.418   7.105  66.063  1.00  0.00    -0.145 A  
HETATM    8  N   UNL     1      -8.937   8.113  66.811  1.00  0.00    -0.139 NA 
HETATM    9  C   UNL     1     -10.135   7.882  67.392  1.00  0.00    -0.226 A  
HETATM   10  C   UNL     1     -10.854   6.705  67.232  1.00  0.00    -0.456 A  
HETATM   11  C   UNL     1     -10.297   5.689  66.459  1.00  0.00    -0.287 A  
BRANCH   9  12
HETATM   12  C   UNL     1     -10.613   8.922  68.247  1.00  0.00    -0.203 C  
HETATM   13  C   UNL     1     -11.055   9.790  68.955  1.00  0.00    -0.143 C  
BRANCH  13  14
HETATM   14  C   UNL     1     -11.593  10.835  69.772  1.00  0.00    -0.393 A  
HETATM   15  C   UNL     1     -11.400  12.178  69.426  1.00  0.00    -0.311 A  
HETATM   16  C   UNL     1     -11.971  13.239  70.174  1.00  0.00    -0.388 A  
HETATM   17  C   UNL     1     -12.709  12.901  71.325  1.00  0.00    -0.278 A  
HETATM   18  S   UNL     1     -13.515  14.064  72.417  1.00  0.00    -0.578 SA 
HETATM   19  C   UNL     1     -12.878  11.549  71.677  1.00  0.00    -0.475 A  
HETATM   20  C   UNL     1     -12.796  15.626  71.871  1.00  0.00    -0.449 C  
HETATM   21  C   UNL     1     -12.329  10.524  70.907  1.00  0.00    -0.490 A  
HETATM   22  C   UNL     1     -12.742  15.687  70.357  1.00  0.00    -0.325 C  
HETATM   23  C   UNL     1     -11.745  14.688  69.719  1.00  0.00    -0.361 C  
HETATM   24  C   UNL     1     -10.297  15.099  70.068  1.00  0.00    -0.180 C  
HETATM   25  C   UNL     1     -11.930  14.834  68.186  1.00  0.00    -0.265 C  
ENDBRANCH  13  14
ENDBRANCH   9  12
ENDBRANCH   4   6
ENDBRANCH   3   4
ENDBRANCH   2   3
TORSDOF 5
ENDMDL
MODEL       30
REMARK 921   NORMALIZED FREE ENERGY PREDICTED BY IDOCK:   -5.29 KCAL/MOL
REMARK 922        TOTAL FREE ENERGY PREDICTED BY IDOCK:   -7.16 KCAL/MOL
REMARK 923 INTER-LIGAND FREE ENERGY PREDICTED BY IDOCK:   -6.68 KCAL/MOL
REMARK 924 INTRA-LIGAND FREE ENERGY PREDICTED BY IDOCK:   -0.48 KCAL/MOL
REMARK 927      BINDING AFFINITY PREDICTED BY RF-SCORE:    0.00 PKD
ROOT
HETATM    1  C   UNL     1     -12.701  11.979  63.523  1.00  0.00    -0.567 C  
HETATM    2  C   UNL     1     -12.144  13.341  63.148  1.00  0.00    -0.153 C  
ENDROOT
BRANCH   2   3
HETATM    3  O   UNL     1     -12.529  14.270  64.173  1.00  0.00    -0.675 OA 
BRANCH   3   4
HETATM    4  C   UNL     1     -11.504  14.863  64.830  1.00  0.00    -0.410 C  
HETATM    5  O   UNL     1     -11.100  16.002  64.664  1.00  0.00    -0.548 OA 
BRANCH   4   6
HETATM    6  C   UNL     1     -11.018  13.989  65.919  1.00  0.00    -0.286 A  
HETATM    7  C   UNL     1      -9.679  13.646  66.076  1.00  0.00    -0.222 A  
HETATM    8  N   UNL     1      -9.229  12.744  66.986  1.00  0.00    -0.215 NA 
HETATM    9  C   UNL     1     -10.159  12.159  67.773  1.00  0.00    -0.199 A  
HETATM   10  C   UNL     1     -11.513  12.460  67.717  1.00  0.00    -0.383 A  
HETATM   11  C   UNL     1     -11.946  13.390  66.774  1.00  0.00    -0.447 A  
BRANCH   9  12
HETATM   12  C   UNL     1      -9.669  11.149  68.655  1.00  0.00    -0.202 C  
HETATM   13  C   UNL     1      -9.281  10.269  69.381  1.00  0.00    -0.206 C  
BRANCH  13  14
HETATM   14  C   UNL     1      -8.850   9.220  70.253  1.00  0.00    -0.254 A  
HETATM   15  C   UNL     1      -9.652   8.092  70.459  1.00  0.00    -0.170 A  
HETATM   16  C   UNL     1      -9.231   7.003  71.265  1.00  0.00    -0.152 A  
HETATM   17  C   UNL     1      -7.981   7.111  71.904  1.00  0.00    -0.093 A  
HETATM   18  S   UNL     1      -7.248   5.871  72.963  1.00  0.00    -0.094 SA 
HETATM   19  C   UNL     1      -7.191   8.259  71.709  1.00  0.00    -0.095 A  
HETATM   20  C   UNL     1      -8.650   4.772  73.250  1.00  0.00    -0.102 C  
HETATM   21  C   UNL     1      -7.618   9.304  70.887  1.00  0.00    -0.130 A  
HETATM   22  C   UNL     1      -9.412   4.533  71.961  1.00  0.00    -0.196 C  
HETATM   23  C   UNL     1     -10.151   5.783  71.422  1.00  0.00    -0.249 C  
HETATM   24  C   UNL     1     -11.313   6.154  72.370  1.00  0.00    -0.340 C  
HETATM   25  C   UNL     1     -10.759   5.355  70.061  1.00  0.00    -0.296 C  
ENDBRANCH  13  14
ENDBRANCH   9  12
ENDBRANCH   4   6
ENDBRANCH   3   4
ENDBRANCH   2   3
TORSDOF 5
ENDMDL
MODEL       31
REMARK 921   NORMALIZED FREE ENERGY PREDICTED BY IDOCK:   -5.29 KCAL/MOL
REMARK 922        TOTAL FREE ENERGY PREDICTED BY IDOCK:   -7.15 KCAL/MOL
REMARK 923 INTER-LIGAND FREE ENERGY PREDICTED BY IDOCK:   -6.86 KCAL/MOL
REMARK 924 INTRA-LIGAND FREE ENERGY PREDICTED BY IDOCK:   -0.29 KCAL/MOL
REMARK 927      BINDING AFFINITY PREDICTED BY RF-SCORE:    0.00 PKD
ROOT
HETATM    1  C   UNL     1      -9.958  20.538  67.359  1.00  0.00    -0.525 C  
HETATM    2  C   UNL     1     -10.826  19.337  67.028  1.00  0.00    -0.414 C  
ENDROOT
BRANCH   2   3
HETATM    3  O   UNL     1     -10.287  18.717  65.851  1.00  0.00    -0.524 OA 
BRANCH   3   4
HETATM    4  C   UNL     1      -9.085  18.114  66.015  1.00  0.00     0.019 C  
HETATM    5  O   UNL     1      -7.990  18.622  65.837  1.00  0.00    -0.475 OA 
BRANCH   4   6
HETATM    6  C   UNL     1      -9.261  16.769  66.605  1.00  0.00    -0.279 A  
HETATM    7  C   UNL     1      -9.909  15.731  65.945  1.00  0.00    -0.349 A  
HETATM    8  N   UNL     1     -10.197  14.532  66.517  1.00  0.00    -0.273 NA 
HETATM    9  C   UNL     1      -9.820  14.367  67.804  1.00  0.00    -0.221 A  
HETATM   10  C   UNL     1      -9.137  15.330  68.535  1.00  0.00    -0.192 A  
HETATM   11  C   UNL     1      -8.855  16.549  67.923  1.00  0.00    -0.193 A  
BRANCH   9  12
HETATM   12  C   UNL     1     -10.217  13.135  68.406  1.00  0.00    -0.247 C  
HETATM   13  C   UNL     1     -10.521  12.099  68.941  1.00  0.00    -0.142 C  
BRANCH  13  14
HETATM   14  C   UNL     1     -10.853  10.858  69.571  1.00  0.00    -0.286 A  
HETATM   15  C   UNL     1     -10.201   9.676  69.200  1.00  0.00    -0.212 A  
HETATM   16  C   UNL     1     -10.458   8.439  69.844  1.00  0.00    -0.222 A  
HETATM   17  C   UNL     1     -11.440   8.421  70.853  1.00  0.00    -0.267 A  
HETATM   18  S   UNL     1     -11.929   6.984  71.798  1.00  0.00    -0.343 SA 
HETATM   19  C   UNL     1     -12.106   9.610  71.204  1.00  0.00    -0.448 A  
HETATM   20  C   UNL     1     -11.159   5.655  70.852  1.00  0.00    -0.129 C  
HETATM   21  C   UNL     1     -11.814  10.820  70.573  1.00  0.00    -0.453 A  
HETATM   22  C   UNL     1      -9.750   6.038  70.443  1.00  0.00    -0.206 C  
HETATM   23  C   UNL     1      -9.683   7.187  69.406  1.00  0.00    -0.160 C  
HETATM   24  C   UNL     1     -10.245   6.702  68.051  1.00  0.00    -0.193 C  
HETATM   25  C   UNL     1      -8.175   7.493  69.219  1.00  0.00    -0.130 C  
ENDBRANCH  13  14
ENDBRANCH   9  12
ENDBRANCH   4   6
ENDBRANCH   3   4
ENDBRANCH   2   3
TORSDOF 5
ENDMDL
MODEL       32
REMARK 921   NORMALIZED FREE ENERGY PREDICTED BY IDOCK:   -5.27 KCAL/MOL
REMARK 922        TOTAL FREE ENERGY PREDICTED BY IDOCK:   -7.14 KCAL/MOL
REMARK 923 INTER-LIGAND FREE ENERGY PREDICTED BY IDOCK:   -6.64 KCAL/MOL
REMARK 924 INTRA-LIGAND FREE ENERGY PREDICTED BY IDOCK:   -0.50 KCAL/MOL
REMARK 927      BINDING AFFINITY PREDICTED BY RF-SCORE:    0.00 PKD
ROOT
HETATM    1  C   UNL     1     -10.648  20.268  67.234  1.00  0.00    -0.213 C  
HETATM    2  C   UNL     1      -9.833  19.599  66.141  1.00  0.00    -0.436 C  
ENDROOT
BRANCH   2   3
HETATM    3  O   UNL     1      -8.598  19.157  66.724  1.00  0.00    -0.285 OA 
BRANCH   3   4
HETATM    4  C   UNL     1      -8.140  17.965  66.271  1.00  0.00    -0.231 C  
HETATM    5  O   UNL     1      -7.173  17.788  65.548  1.00  0.00    -0.475 OA 
BRANCH   4   6
HETATM    6  C   UNL     1      -8.882  16.854  66.906  1.00  0.00    -0.248 A  
HETATM    7  C   UNL     1      -9.002  16.713  68.285  1.00  0.00    -0.214 A  
HETATM    8  N   UNL     1      -9.564  15.635  68.890  1.00  0.00    -0.210 NA 
HETATM    9  C   UNL     1     -10.028  14.657  68.081  1.00  0.00    -0.224 A  
HETATM   10  C   UNL     1      -9.986  14.722  66.695  1.00  0.00    -0.272 A  
HETATM   11  C   UNL     1      -9.404  15.840  66.101  1.00  0.00    -0.381 A  
BRANCH   9  12
HETATM   12  C   UNL     1     -10.529  13.497  68.746  1.00  0.00    -0.212 C  
HETATM   13  C   UNL     1     -10.913  12.505  69.312  1.00  0.00    -0.138 C  
BRANCH  13  14
HETATM   14  C   UNL     1     -11.355  11.310  69.962  1.00  0.00    -0.292 A  
HETATM   15  C   UNL     1     -10.548  10.166  69.971  1.00  0.00    -0.338 A  
HETATM   16  C   UNL     1     -10.923   8.984  70.659  1.00  0.00    -0.308 A  
HETATM   17  C   UNL     1     -12.175   8.974  71.304  1.00  0.00    -0.312 A  
HETATM   18  S   UNL     1     -12.854   7.603  72.228  1.00  0.00     0.050 SA 
HETATM   19  C   UNL     1     -12.988  10.122  71.271  1.00  0.00    -0.510 A  
HETATM   20  C   UNL     1     -11.742   6.265  71.753  1.00  0.00    -0.299 C  
HETATM   21  C   UNL     1     -12.582  11.282  70.610  1.00  0.00    -0.377 A  
HETATM   22  C   UNL     1     -10.302   6.741  71.759  1.00  0.00    -0.217 C  
HETATM   23  C   UNL     1      -9.974   7.776  70.653  1.00  0.00    -0.186 C  
HETATM   24  C   UNL     1     -10.040   7.098  69.266  1.00  0.00    -0.178 C  
HETATM   25  C   UNL     1      -8.507   8.209  70.908  1.00  0.00    -0.136 C  
ENDBRANCH  13  14
ENDBRANCH   9  12
ENDBRANCH   4   6
ENDBRANCH   3   4
ENDBRANCH   2   3
TORSDOF 5
ENDMDL
MODEL       33
REMARK 921   NORMALIZED FREE ENERGY PREDICTED BY IDOCK:   -5.27 KCAL/MOL
REMARK 922        TOTAL FREE ENERGY PREDICTED BY IDOCK:   -7.14 KCAL/MOL
REMARK 923 INTER-LIGAND FREE ENERGY PREDICTED BY IDOCK:   -6.62 KCAL/MOL
REMARK 924 INTRA-LIGAND FREE ENERGY PREDICTED BY IDOCK:   -0.52 KCAL/MOL
REMARK 927      BINDING AFFINITY PREDICTED BY RF-SCORE:    0.00 PKD
ROOT
HETATM    1  C   UNL     1     -10.359   6.952  73.887  1.00  0.00    -0.398 C  
HETATM    2  C   UNL     1     -11.022   5.776  73.190  1.00  0.00    -0.271 C  
ENDROOT
BRANCH   2   3
HETATM    3  O   UNL     1     -11.395   6.202  71.871  1.00  0.00    -0.273 OA 
BRANCH   3   4
HETATM    4  C   UNL     1     -12.609   6.795  71.776  1.00  0.00    -0.325 C  
HETATM    5  O   UNL     1     -13.668   6.345  72.182  1.00  0.00    -0.003 OA 
BRANCH   4   6
HETATM    6  C   UNL     1     -12.470   8.169  71.246  1.00  0.00    -0.269 A  
HETATM    7  C   UNL     1     -11.562   8.509  70.249  1.00  0.00     0.007 A  
HETATM    8  N   UNL     1     -11.326   9.783  69.841  1.00  0.00    -0.223 NA 
HETATM    9  C   UNL     1     -12.029  10.758  70.457  1.00  0.00    -0.361 A  
HETATM   10  C   UNL     1     -12.983  10.517  71.437  1.00  0.00    -0.542 A  
HETATM   11  C   UNL     1     -13.205   9.201  71.836  1.00  0.00    -0.479 A  
BRANCH   9  12
HETATM   12  C   UNL     1     -11.694  12.092  70.074  1.00  0.00    -0.330 C  
HETATM   13  C   UNL     1     -11.452  13.226  69.745  1.00  0.00    -0.228 C  
BRANCH  13  14
HETATM   14  C   UNL     1     -11.178  14.567  69.328  1.00  0.00    -0.309 A  
HETATM   15  C   UNL     1     -10.851  14.843  67.995  1.00  0.00    -0.263 A  
HETATM   16  C   UNL     1     -10.635  16.166  67.530  1.00  0.00    -0.314 A  
HETATM   17  C   UNL     1     -10.712  17.209  68.473  1.00  0.00    -0.326 A  
HETATM   18  S   UNL     1     -10.479  18.945  68.119  1.00  0.00    -0.249 SA 
HETATM   19  C   UNL     1     -11.020  16.918  69.815  1.00  0.00     0.035 A  
HETATM   20  C   UNL     1      -9.774  18.880  66.460  1.00  0.00    -0.358 C  
HETATM   21  C   UNL     1     -11.255  15.610  70.240  1.00  0.00    -0.357 A  
HETATM   22  C   UNL     1     -10.514  17.870  65.606  1.00  0.00    -0.105 C  
HETATM   23  C   UNL     1     -10.310  16.399  66.047  1.00  0.00    -0.365 C  
HETATM   24  C   UNL     1      -8.849  15.971  65.785  1.00  0.00     0.008 C  
HETATM   25  C   UNL     1     -11.231  15.555  65.128  1.00  0.00    -0.322 C  
ENDBRANCH  13  14
ENDBRANCH   9  12
ENDBRANCH   4   6
ENDBRANCH   3   4
ENDBRANCH   2   3
TORSDOF 5
ENDMDL
MODEL       34
REMARK 921   NORMALIZED FREE ENERGY PREDICTED BY IDOCK:   -5.23 KCAL/MOL
REMARK 922        TOTAL FREE ENERGY PREDICTED BY IDOCK:   -7.08 KCAL/MOL
REMARK 923 INTER-LIGAND FREE ENERGY PREDICTED BY IDOCK:   -6.58 KCAL/MOL
REMARK 924 INTRA-LIGAND FREE ENERGY PREDICTED BY IDOCK:   -0.50 KCAL/MOL
REMARK 927      BINDING AFFINITY PREDICTED BY RF-SCORE:    0.00 PKD
ROOT
HETATM    1  C   UNL     1     -11.269   6.223  69.628  1.00  0.00    -0.506 C  
HETATM    2  C   UNL     1     -10.774   5.640  68.316  1.00  0.00    -0.151 C  
ENDROOT
BRANCH   2   3
HETATM    3  O   UNL     1     -11.052   6.592  67.279  1.00  0.00    -0.370 OA 
BRANCH   3   4
HETATM    4  C   UNL     1      -9.963   7.118  66.670  1.00  0.00    -0.164 C  
HETATM    5  O   UNL     1      -9.062   6.495  66.132  1.00  0.00    -0.157 OA 
BRANCH   4   6
HETATM    6  C   UNL     1     -10.077   8.591  66.594  1.00  0.00    -0.364 A  
HETATM    7  C   UNL     1      -9.467   9.349  65.600  1.00  0.00    -0.262 A  
HETATM    8  N   UNL     1      -9.450  10.707  65.585  1.00  0.00    -0.199 NA 
HETATM    9  C   UNL     1     -10.070  11.333  66.609  1.00  0.00    -0.214 A  
HETATM   10  C   UNL     1     -10.737  10.667  67.628  1.00  0.00    -0.315 A  
HETATM   11  C   UNL     1     -10.739   9.273  67.618  1.00  0.00    -0.276 A  
BRANCH   9  12
HETATM   12  C   UNL     1      -9.957  12.757  66.617  1.00  0.00    -0.246 C  
HETATM   13  C   UNL     1      -9.824  13.954  66.606  1.00  0.00    -0.288 C  
BRANCH  13  14
HETATM   14  C   UNL     1      -9.640  15.373  66.612  1.00  0.00    -0.276 A  
HETATM   15  C   UNL     1      -8.399  15.928  66.945  1.00  0.00    -0.281 A  
HETATM   16  C   UNL     1      -8.160  17.325  66.900  1.00  0.00    -0.258 A  
HETATM   17  C   UNL     1      -9.240  18.160  66.551  1.00  0.00    -0.281 A  
HETATM   18  S   UNL     1      -9.175  19.942  66.429  1.00  0.00    -0.365 SA 
HETATM   19  C   UNL     1     -10.490  17.594  66.239  1.00  0.00    -0.292 A  
HETATM   20  C   UNL     1      -7.593  20.297  67.222  1.00  0.00    -0.311 C  
HETATM   21  C   UNL     1     -10.689  16.213  66.264  1.00  0.00    -0.213 A  
HETATM   22  C   UNL     1      -6.534  19.315  66.762  1.00  0.00    -0.191 C  
HETATM   23  C   UNL     1      -6.764  17.862  67.249  1.00  0.00    -0.192 C  
HETATM   24  C   UNL     1      -6.570  17.787  68.780  1.00  0.00    -0.227 C  
HETATM   25  C   UNL     1      -5.650  17.016  66.581  1.00  0.00    -0.178 C  
ENDBRANCH  13  14
ENDBRANCH   9  12
ENDBRANCH   4   6
ENDBRANCH   3   4
ENDBRANCH   2   3
TORSDOF 5
ENDMDL
MODEL       35
REMARK 921   NORMALIZED FREE ENERGY PREDICTED BY IDOCK:   -5.22 KCAL/MOL
REMARK 922        TOTAL FREE ENERGY PREDICTED BY IDOCK:   -7.08 KCAL/MOL
REMARK 923 INTER-LIGAND FREE ENERGY PREDICTED BY IDOCK:   -6.62 KCAL/MOL
REMARK 924 INTRA-LIGAND FREE ENERGY PREDICTED BY IDOCK:   -0.45 KCAL/MOL
REMARK 927      BINDING AFFINITY PREDICTED BY RF-SCORE:    0.00 PKD
ROOT
HETATM    1  C   UNL     1      -6.523   3.043  67.941  1.00  0.00    -0.036 C  
HETATM    2  C   UNL     1      -7.264   2.981  66.617  1.00  0.00    -0.065 C  
ENDROOT
BRANCH   2   3
HETATM    3  O   UNL     1      -7.240   4.294  66.039  1.00  0.00    -0.069 OA 
BRANCH   3   4
HETATM    4  C   UNL     1      -8.356   4.645  65.355  1.00  0.00    -0.119 C  
HETATM    5  O   UNL     1      -8.849   4.042  64.416  1.00  0.00    -0.119 OA 
BRANCH   4   6
HETATM    6  C   UNL     1      -9.015   5.799  66.003  1.00  0.00    -0.157 A  
HETATM    7  C   UNL     1      -8.419   7.052  66.108  1.00  0.00    -0.135 A  
HETATM    8  N   UNL     1      -8.948   8.086  66.812  1.00  0.00    -0.137 NA 
HETATM    9  C   UNL     1     -10.124   7.857  67.437  1.00  0.00    -0.226 A  
HETATM   10  C   UNL     1     -10.813   6.654  67.363  1.00  0.00    -0.434 A  
HETATM   11  C   UNL     1     -10.247   5.611  66.633  1.00  0.00    -0.276 A  
BRANCH   9  12
HETATM   12  C   UNL     1     -10.610   8.931  68.244  1.00  0.00    -0.203 C  
HETATM   13  C   UNL     1     -11.044   9.809  68.944  1.00  0.00    -0.139 C  
BRANCH  13  14
HETATM   14  C   UNL     1     -11.589  10.847  69.765  1.00  0.00    -0.399 A  
HETATM   15  C   UNL     1     -11.392  12.192  69.433  1.00  0.00    -0.311 A  
HETATM   16  C   UNL     1     -11.969  13.247  70.186  1.00  0.00    -0.388 A  
HETATM   17  C   UNL     1     -12.719  12.900  71.327  1.00  0.00    -0.278 A  
HETATM   18  S   UNL     1     -13.534  14.053  72.422  1.00  0.00    -0.578 SA 
HETATM   19  C   UNL     1     -12.892  11.545  71.665  1.00  0.00    -0.475 A  
HETATM   20  C   UNL     1     -12.809  15.619  71.897  1.00  0.00    -0.449 C  
HETATM   21  C   UNL     1     -12.336  10.526  70.890  1.00  0.00    -0.490 A  
HETATM   22  C   UNL     1     -12.741  15.694  70.384  1.00  0.00    -0.325 C  
HETATM   23  C   UNL     1     -11.738  14.701  69.746  1.00  0.00    -0.361 C  
HETATM   24  C   UNL     1     -10.293  15.107  70.112  1.00  0.00    -0.146 C  
HETATM   25  C   UNL     1     -11.909  14.861  68.213  1.00  0.00    -0.308 C  
ENDBRANCH  13  14
ENDBRANCH   9  12
ENDBRANCH   4   6
ENDBRANCH   3   4
ENDBRANCH   2   3
TORSDOF 5
ENDMDL
MODEL       36
REMARK 921   NORMALIZED FREE ENERGY PREDICTED BY IDOCK:   -5.22 KCAL/MOL
REMARK 922        TOTAL FREE ENERGY PREDICTED BY IDOCK:   -7.07 KCAL/MOL
REMARK 923 INTER-LIGAND FREE ENERGY PREDICTED BY IDOCK:   -6.65 KCAL/MOL
REMARK 924 INTRA-LIGAND FREE ENERGY PREDICTED BY IDOCK:   -0.43 KCAL/MOL
REMARK 927      BINDING AFFINITY PREDICTED BY RF-SCORE:    0.00 PKD
ROOT
HETATM    1  C   UNL     1     -12.883  15.170  73.351  1.00  0.00    -0.661 C  
HETATM    2  C   UNL     1     -12.407  15.910  72.113  1.00  0.00    -0.477 C  
ENDROOT
BRANCH   2   3
HETATM    3  O   UNL     1     -13.034  15.306  70.972  1.00  0.00    -0.395 OA 
BRANCH   3   4
HETATM    4  C   UNL     1     -12.251  15.195  69.873  1.00  0.00    -0.314 C  
HETATM    5  O   UNL     1     -11.646  16.099  69.320  1.00  0.00    -0.329 OA 
BRANCH   4   6
HETATM    6  C   UNL     1     -12.083  13.773  69.503  1.00  0.00    -0.386 A  
HETATM    7  C   UNL     1     -12.155  12.736  70.427  1.00  0.00    -0.302 A  
HETATM    8  N   UNL     1     -11.876  11.439  70.134  1.00  0.00    -0.337 NA 
HETATM    9  C   UNL     1     -11.509  11.169  68.862  1.00  0.00    -0.295 A  
HETATM   10  C   UNL     1     -11.443  12.128  67.861  1.00  0.00    -0.392 A  
HETATM   11  C   UNL     1     -11.735  13.450  68.189  1.00  0.00    -0.397 A  
BRANCH   9  12
HETATM   12  C   UNL     1     -11.132   9.816  68.606  1.00  0.00    -0.140 C  
HETATM   13  C   UNL     1     -10.778   8.688  68.377  1.00  0.00    -0.098 C  
BRANCH  13  14
HETATM   14  C   UNL     1     -10.351   7.355  68.076  1.00  0.00    -0.247 A  
HETATM   15  C   UNL     1      -9.908   6.504  69.094  1.00  0.00    -0.156 A  
HETATM   16  C   UNL     1      -9.538   5.157  68.844  1.00  0.00    -0.201 A  
HETATM   17  C   UNL     1      -9.582   4.706  67.511  1.00  0.00    -0.163 A  
HETATM   18  S   UNL     1      -9.163   3.058  66.960  1.00  0.00    -0.131 SA 
HETATM   19  C   UNL     1     -10.009   5.576  66.491  1.00  0.00    -0.214 A  
HETATM   20  C   UNL     1      -8.354   2.386  68.426  1.00  0.00    -0.058 C  
HETATM   21  C   UNL     1     -10.394   6.889  66.769  1.00  0.00    -0.287 A  
HETATM   22  C   UNL     1      -9.124   2.758  69.678  1.00  0.00    -0.192 C  
HETATM   23  C   UNL     1      -9.090   4.270  70.015  1.00  0.00    -0.175 C  
HETATM   24  C   UNL     1      -7.660   4.681  70.433  1.00  0.00    -0.054 C  
HETATM   25  C   UNL     1     -10.019   4.445  71.244  1.00  0.00    -0.245 C  
ENDBRANCH  13  14
ENDBRANCH   9  12
ENDBRANCH   4   6
ENDBRANCH   3   4
ENDBRANCH   2   3
TORSDOF 5
ENDMDL
MODEL       37
REMARK 921   NORMALIZED FREE ENERGY PREDICTED BY IDOCK:   -5.20 KCAL/MOL
REMARK 922        TOTAL FREE ENERGY PREDICTED BY IDOCK:   -7.04 KCAL/MOL
REMARK 923 INTER-LIGAND FREE ENERGY PREDICTED BY IDOCK:   -6.56 KCAL/MOL
REMARK 924 INTRA-LIGAND FREE ENERGY PREDICTED BY IDOCK:   -0.48 KCAL/MOL
REMARK 927      BINDING AFFINITY PREDICTED BY RF-SCORE:    0.00 PKD
ROOT
HETATM    1  C   UNL     1     -10.978   2.459  63.156  1.00  0.00    -0.241 C  
HETATM    2  C   UNL     1      -9.513   2.422  63.556  1.00  0.00    -0.100 C  
ENDROOT
BRANCH   2   3
HETATM    3  O   UNL     1      -9.107   3.766  63.858  1.00  0.00    -0.114 OA 
BRANCH   3   4
HETATM    4  C   UNL     1      -8.691   3.971  65.131  1.00  0.00    -0.120 C  
HETATM    5  O   UNL     1      -7.856   3.317  65.734  1.00  0.00    -0.084 OA 
BRANCH   4   6
HETATM    6  C   UNL     1      -9.275   5.220  65.667  1.00  0.00    -0.145 A  
HETATM    7  C   UNL     1      -8.616   6.444  65.624  1.00  0.00    -0.133 A  
HETATM    8  N   UNL     1      -9.074   7.573  66.224  1.00  0.00    -0.168 NA 
HETATM    9  C   UNL     1     -10.242   7.472  66.896  1.00  0.00    -0.289 A  
HETATM   10  C   UNL     1     -10.991   6.305  66.966  1.00  0.00    -0.442 A  
HETATM   11  C   UNL     1     -10.497   5.163  66.340  1.00  0.00    -0.356 A  
BRANCH   9  12
HETATM   12  C   UNL     1     -10.653   8.649  67.594  1.00  0.00    -0.272 C  
HETATM   13  C   UNL     1     -10.963   9.659  68.171  1.00  0.00    -0.185 C  
BRANCH  13  14
HETATM   14  C   UNL     1     -11.306  10.857  68.875  1.00  0.00    -0.354 A  
HETATM   15  C   UNL     1     -10.880  12.104  68.405  1.00  0.00    -0.255 A  
HETATM   16  C   UNL     1     -11.253  13.317  69.038  1.00  0.00    -0.320 A  
HETATM   17  C   UNL     1     -12.038  13.229  70.204  1.00  0.00    -0.333 A  
HETATM   18  S   UNL     1     -12.625  14.616  71.166  1.00  0.00    -0.362 SA 
HETATM   19  C   UNL     1     -12.444  11.969  70.682  1.00  0.00    -0.335 A  
HETATM   20  C   UNL     1     -11.641  15.966  70.484  1.00  0.00    -0.381 C  
HETATM   21  C   UNL     1     -12.085  10.792  70.023  1.00  0.00    -0.423 A  
HETATM   22  C   UNL     1     -11.579  15.869  68.972  1.00  0.00    -0.392 C  
HETATM   23  C   UNL     1     -10.775  14.653  68.450  1.00  0.00    -0.242 C  
HETATM   24  C   UNL     1      -9.276  14.834  68.781  1.00  0.00    -0.196 C  
HETATM   25  C   UNL     1     -10.932  14.679  66.907  1.00  0.00    -0.324 C  
ENDBRANCH  13  14
ENDBRANCH   9  12
ENDBRANCH   4   6
ENDBRANCH   3   4
ENDBRANCH   2   3
TORSDOF 5
ENDMDL
MODEL       38
REMARK 921   NORMALIZED FREE ENERGY PREDICTED BY IDOCK:   -5.18 KCAL/MOL
REMARK 922        TOTAL FREE ENERGY PREDICTED BY IDOCK:   -7.02 KCAL/MOL
REMARK 923 INTER-LIGAND FREE ENERGY PREDICTED BY IDOCK:   -6.57 KCAL/MOL
REMARK 924 INTRA-LIGAND FREE ENERGY PREDICTED BY IDOCK:   -0.44 KCAL/MOL
REMARK 927      BINDING AFFINITY PREDICTED BY RF-SCORE:    0.00 PKD
ROOT
HETATM    1  C   UNL     1      -9.499   6.554  72.409  1.00  0.00    -0.147 C  
HETATM    2  C   UNL     1     -10.974   6.230  72.247  1.00  0.00    -0.259 C  
ENDROOT
BRANCH   2   3
HETATM    3  O   UNL     1     -11.724   7.389  72.641  1.00  0.00    -0.273 OA 
BRANCH   3   4
HETATM    4  C   UNL     1     -12.742   7.726  71.814  1.00  0.00    -0.329 C  
HETATM    5  O   UNL     1     -13.784   7.110  71.660  1.00  0.00    -0.376 OA 
BRANCH   4   6
HETATM    6  C   UNL     1     -12.501   9.059  71.218  1.00  0.00    -0.346 A  
HETATM    7  C   UNL     1     -11.554   9.285  70.225  1.00  0.00    -0.114 A  
HETATM    8  N   UNL     1     -11.225  10.517  69.759  1.00  0.00    -0.276 NA 
HETATM    9  C   UNL     1     -11.871  11.568  70.309  1.00  0.00    -0.342 A  
HETATM   10  C   UNL     1     -12.857  11.442  71.279  1.00  0.00    -0.481 A  
HETATM   11  C   UNL     1     -13.175  10.166  71.739  1.00  0.00    -0.542 A  
BRANCH   9  12
HETATM   12  C   UNL     1     -11.440  12.855  69.866  1.00  0.00    -0.147 C  
HETATM   13  C   UNL     1     -11.065  13.924  69.456  1.00  0.00    -0.178 C  
BRANCH  13  14
HETATM   14  C   UNL     1     -10.591  15.182  68.965  1.00  0.00    -0.245 A  
HETATM   15  C   UNL     1      -9.219  15.417  68.820  1.00  0.00    -0.206 A  
HETATM   16  C   UNL     1      -8.714  16.626  68.277  1.00  0.00    -0.216 A  
HETATM   17  C   UNL     1      -9.646  17.622  67.927  1.00  0.00    -0.282 A  
HETATM   18  S   UNL     1      -9.243  19.218  67.228  1.00  0.00    -0.311 SA 
HETATM   19  C   UNL     1     -11.022  17.385  68.096  1.00  0.00    -0.160 A  
HETATM   20  C   UNL     1      -7.460  19.286  67.495  1.00  0.00    -0.235 C  
HETATM   21  C   UNL     1     -11.493  16.175  68.607  1.00  0.00    -0.340 A  
HETATM   22  C   UNL     1      -6.819  17.955  67.153  1.00  0.00    -0.201 C  
HETATM   23  C   UNL     1      -7.197  16.804  68.118  1.00  0.00    -0.166 C  
HETATM   24  C   UNL     1      -6.577  17.064  69.510  1.00  0.00    -0.194 C  
HETATM   25  C   UNL     1      -6.537  15.531  67.529  1.00  0.00    -0.206 C  
ENDBRANCH  13  14
ENDBRANCH   9  12
ENDBRANCH   4   6
ENDBRANCH   3   4
ENDBRANCH   2   3
TORSDOF 5
ENDMDL
MODEL       39
REMARK 921   NORMALIZED FREE ENERGY PREDICTED BY IDOCK:   -5.13 KCAL/MOL
REMARK 922        TOTAL FREE ENERGY PREDICTED BY IDOCK:   -6.95 KCAL/MOL
REMARK 923 INTER-LIGAND FREE ENERGY PREDICTED BY IDOCK:   -6.44 KCAL/MOL
REMARK 924 INTRA-LIGAND FREE ENERGY PREDICTED BY IDOCK:   -0.51 KCAL/MOL
REMARK 927      BINDING AFFINITY PREDICTED BY RF-SCORE:    0.00 PKD
ROOT
HETATM    1  C   UNL     1     -12.277  12.869  63.455  1.00  0.00    -0.595 C  
HETATM    2  C   UNL     1     -12.056  14.154  64.235  1.00  0.00    -0.444 C  
ENDROOT
BRANCH   2   3
HETATM    3  O   UNL     1     -10.789  14.050  64.902  1.00  0.00    -0.364 OA 
BRANCH   3   4
HETATM    4  C   UNL     1     -10.827  14.213  66.246  1.00  0.00    -0.300 C  
HETATM    5  O   UNL     1     -10.940  15.271  66.844  1.00  0.00    -0.320 OA 
BRANCH   4   6
HETATM    6  C   UNL     1     -10.877  12.899  66.922  1.00  0.00    -0.278 A  
HETATM    7  C   UNL     1     -11.947  12.494  67.714  1.00  0.00    -0.223 A  
HETATM    8  N   UNL     1     -11.956  11.351  68.447  1.00  0.00    -0.590 NA 
HETATM    9  C   UNL     1     -10.849  10.580  68.385  1.00  0.00    -0.240 A  
HETATM   10  C   UNL     1      -9.746  10.880  67.597  1.00  0.00    -0.188 A  
HETATM   11  C   UNL     1      -9.764  12.059  66.854  1.00  0.00    -0.213 A  
BRANCH   9  12
HETATM   12  C   UNL     1     -10.850   9.433  69.237  1.00  0.00    -0.190 C  
HETATM   13  C   UNL     1     -10.850   8.442  69.921  1.00  0.00    -0.207 C  
BRANCH  13  14
HETATM   14  C   UNL     1     -10.877   7.256  70.721  1.00  0.00    -0.260 A  
HETATM   15  C   UNL     1     -10.021   6.186  70.433  1.00  0.00    -0.223 A  
HETATM   16  C   UNL     1      -9.974   5.020  71.240  1.00  0.00    -0.264 A  
HETATM   17  C   UNL     1     -10.862   4.946  72.331  1.00  0.00    -0.137 A  
HETATM   18  S   UNL     1     -10.980   3.582  73.480  1.00  0.00    -0.219 SA 
HETATM   19  C   UNL     1     -11.733   6.018  72.599  1.00  0.00    -0.221 A  
HETATM   20  C   UNL     1     -10.017   2.314  72.631  1.00  0.00    -0.134 C  
HETATM   21  C   UNL     1     -11.740   7.165  71.805  1.00  0.00    -0.324 A  
HETATM   22  C   UNL     1      -8.748   2.908  72.052  1.00  0.00    -0.103 C  
HETATM   23  C   UNL     1      -8.988   3.897  70.884  1.00  0.00    -0.157 C  
HETATM   24  C   UNL     1      -9.527   3.134  69.653  1.00  0.00    -0.191 C  
HETATM   25  C   UNL     1      -7.591   4.465  70.523  1.00  0.00    -0.052 C  
ENDBRANCH  13  14
ENDBRANCH   9  12
ENDBRANCH   4   6
ENDBRANCH   3   4
ENDBRANCH   2   3
TORSDOF 5
ENDMDL
MODEL       40
REMARK 921   NORMALIZED FREE ENERGY PREDICTED BY IDOCK:   -5.02 KCAL/MOL
REMARK 922        TOTAL FREE ENERGY PREDICTED BY IDOCK:   -6.81 KCAL/MOL
REMARK 923 INTER-LIGAND FREE ENERGY PREDICTED BY IDOCK:   -6.31 KCAL/MOL
REMARK 924 INTRA-LIGAND FREE ENERGY PREDICTED BY IDOCK:   -0.50 KCAL/MOL
REMARK 927      BINDING AFFINITY PREDICTED BY RF-SCORE:    0.00 PKD
ROOT
HETATM    1  C   UNL     1     -14.199   7.602  71.625  1.00  0.00    -0.578 C  
HETATM    2  C   UNL     1     -12.759   7.172  71.848  1.00  0.00    -0.277 C  
ENDROOT
BRANCH   2   3
HETATM    3  O   UNL     1     -11.908   8.225  71.371  1.00  0.00    -0.280 OA 
BRANCH   3   4
HETATM    4  C   UNL     1     -11.328   7.998  70.168  1.00  0.00    -0.078 C  
HETATM    5  O   UNL     1     -11.281   6.932  69.576  1.00  0.00    -0.247 OA 
BRANCH   4   6
HETATM    6  C   UNL     1     -10.880   9.272  69.565  1.00  0.00    -0.211 A  
HETATM    7  C   UNL     1      -9.617   9.445  69.008  1.00  0.00    -0.164 A  
HETATM    8  N   UNL     1      -9.140  10.638  68.569  1.00  0.00    -0.152 NA 
HETATM    9  C   UNL     1      -9.962  11.704  68.691  1.00  0.00    -0.184 A  
HETATM   10  C   UNL     1     -11.251  11.626  69.200  1.00  0.00    -0.325 A  
HETATM   11  C   UNL     1     -11.715  10.389  69.643  1.00  0.00    -0.283 A  
BRANCH   9  12
HETATM   12  C   UNL     1      -9.400  12.960  68.307  1.00  0.00    -0.194 C  
HETATM   13  C   UNL     1      -8.890  14.005  67.995  1.00  0.00    -0.181 C  
BRANCH  13  14
HETATM   14  C   UNL     1      -8.273  15.250  67.653  1.00  0.00    -0.175 A  
HETATM   15  C   UNL     1      -9.018  16.434  67.646  1.00  0.00    -0.198 A  
HETATM   16  C   UNL     1      -8.429  17.695  67.374  1.00  0.00    -0.227 A  
HETATM   17  C   UNL     1      -7.057  17.719  67.058  1.00  0.00    -0.181 A  
HETATM   18  S   UNL     1      -6.105  19.184  66.682  1.00  0.00    -0.165 SA 
HETATM   19  C   UNL     1      -6.320  16.520  67.046  1.00  0.00    -0.207 A  
HETATM   20  C   UNL     1      -7.409  20.408  66.446  1.00  0.00    -0.219 C  
HETATM   21  C   UNL     1      -6.920  15.295  67.345  1.00  0.00    -0.212 A  
HETATM   22  C   UNL     1      -8.474  20.264  67.516  1.00  0.00    -0.376 C  
HETATM   23  C   UNL     1      -9.301  18.959  67.413  1.00  0.00    -0.321 C  
HETATM   24  C   UNL     1     -10.182  18.995  66.145  1.00  0.00    -0.508 C  
HETATM   25  C   UNL     1     -10.238  18.960  68.649  1.00  0.00    -0.371 C  
ENDBRANCH  13  14
ENDBRANCH   9  12
ENDBRANCH   4   6
ENDBRANCH   3   4
ENDBRANCH   2   3
TORSDOF 5
ENDMDL
MODEL       41
REMARK 921   NORMALIZED FREE ENERGY PREDICTED BY IDOCK:   -5.00 KCAL/MOL
REMARK 922        TOTAL FREE ENERGY PREDICTED BY IDOCK:   -6.78 KCAL/MOL
REMARK 923 INTER-LIGAND FREE ENERGY PREDICTED BY IDOCK:   -6.33 KCAL/MOL
REMARK 924 INTRA-LIGAND FREE ENERGY PREDICTED BY IDOCK:   -0.45 KCAL/MOL
REMARK 927      BINDING AFFINITY PREDICTED BY RF-SCORE:    0.00 PKD
ROOT
HETATM    1  C   UNL     1     -10.304  17.586  66.954  1.00  0.00    -0.315 C  
HETATM    2  C   UNL     1     -10.732  17.596  65.496  1.00  0.00    -0.037 C  
ENDROOT
BRANCH   2   3
HETATM    3  O   UNL     1     -10.448  16.301  64.947  1.00  0.00    -0.624 OA 
BRANCH   3   4
HETATM    4  C   UNL     1     -11.533  15.581  64.572  1.00  0.00    -0.308 C  
HETATM    5  O   UNL     1     -12.460  15.975  63.884  1.00  0.00    -0.806 OA 
BRANCH   4   6
HETATM    6  C   UNL     1     -11.378  14.168  64.979  1.00  0.00    -0.350 A  
HETATM    7  C   UNL     1     -11.352  13.760  66.308  1.00  0.00    -0.321 A  
HETATM    8  N   UNL     1     -11.080  12.490  66.706  1.00  0.00    -0.266 NA 
HETATM    9  C   UNL     1     -10.824  11.590  65.731  1.00  0.00    -0.262 A  
HETATM   10  C   UNL     1     -10.860  11.891  64.377  1.00  0.00    -0.384 A  
HETATM   11  C   UNL     1     -11.143  13.202  63.997  1.00  0.00    -0.395 A  
BRANCH   9  12
HETATM   12  C   UNL     1     -10.451  10.287  66.182  1.00  0.00    -0.200 C  
HETATM   13  C   UNL     1     -10.147   9.173  66.525  1.00  0.00    -0.357 C  
BRANCH  13  14
HETATM   14  C   UNL     1      -9.815   7.840  66.926  1.00  0.00    -0.305 A  
HETATM   15  C   UNL     1      -8.488   7.492  67.203  1.00  0.00    -0.121 A  
HETATM   16  C   UNL     1      -8.128   6.199  67.664  1.00  0.00    -0.113 A  
HETATM   17  C   UNL     1      -9.154   5.243  67.791  1.00  0.00    -0.110 A  
HETATM   18  S   UNL     1      -8.938   3.560  68.351  1.00  0.00    -0.147 SA 
HETATM   19  C   UNL     1     -10.482   5.597  67.489  1.00  0.00    -0.294 A  
HETATM   20  C   UNL     1      -7.143   3.389  68.288  1.00  0.00    -0.050 C  
HETATM   21  C   UNL     1     -10.812   6.885  67.064  1.00  0.00    -0.436 A  
HETATM   22  C   UNL     1      -6.470   4.627  68.848  1.00  0.00    -0.036 C  
HETATM   23  C   UNL     1      -6.655   5.895  67.978  1.00  0.00    -0.052 C  
HETATM   24  C   UNL     1      -5.885   5.735  66.648  1.00  0.00    -0.018 C  
HETATM   25  C   UNL     1      -5.998   7.050  68.778  1.00  0.00    -0.022 C  
ENDBRANCH  13  14
ENDBRANCH   9  12
ENDBRANCH   4   6
ENDBRANCH   3   4
ENDBRANCH   2   3
TORSDOF 5
ENDMDL
MODEL       42
REMARK 921   NORMALIZED FREE ENERGY PREDICTED BY IDOCK:   -4.97 KCAL/MOL
REMARK 922        TOTAL FREE ENERGY PREDICTED BY IDOCK:   -6.74 KCAL/MOL
REMARK 923 INTER-LIGAND FREE ENERGY PREDICTED BY IDOCK:   -6.27 KCAL/MOL
REMARK 924 INTRA-LIGAND FREE ENERGY PREDICTED BY IDOCK:   -0.47 KCAL/MOL
REMARK 927      BINDING AFFINITY PREDICTED BY RF-SCORE:    0.00 PKD
ROOT
HETATM    1  C   UNL     1      -7.249   2.896  65.480  1.00  0.00    -0.070 C  
HETATM    2  C   UNL     1      -7.935   2.145  66.609  1.00  0.00    -0.076 C  
ENDROOT
BRANCH   2   3
HETATM    3  O   UNL     1      -9.142   2.850  66.935  1.00  0.00    -0.152 OA 
BRANCH   3   4
HETATM    4  C   UNL     1      -9.421   2.935  68.258  1.00  0.00    -0.155 C  
HETATM    5  O   UNL     1      -9.330   2.035  69.077  1.00  0.00    -0.135 OA 
BRANCH   4   6
HETATM    6  C   UNL     1      -9.709   4.337  68.633  1.00  0.00    -0.174 A  
HETATM    7  C   UNL     1      -9.593   4.812  69.935  1.00  0.00    -0.181 A  
HETATM    8  N   UNL     1      -9.976   6.056  70.324  1.00  0.00    -0.180 NA 
HETATM    9  C   UNL     1     -10.497   6.858  69.370  1.00  0.00    -0.217 A  
HETATM   10  C   UNL     1     -10.621   6.487  68.037  1.00  0.00    -0.310 A  
HETATM   11  C   UNL     1     -10.219   5.206  67.666  1.00  0.00    -0.197 A  
BRANCH   9  12
HETATM   12  C   UNL     1     -10.976   8.124  69.825  1.00  0.00    -0.133 C  
HETATM   13  C   UNL     1     -11.413   9.173  70.224  1.00  0.00    -0.174 C  
BRANCH  13  14
HETATM   14  C   UNL     1     -11.959  10.415  70.679  1.00  0.00    -0.448 A  
HETATM   15  C   UNL     1     -11.675  11.606  70.001  1.00  0.00    -0.402 A  
HETATM   16  C   UNL     1     -12.247  12.847  70.383  1.00  0.00    -0.381 A  
HETATM   17  C   UNL     1     -13.085  12.856  71.515  1.00  0.00    -0.298 A  
HETATM   18  S   UNL     1     -13.913  14.295  72.179  1.00  0.00    -0.555 SA 
HETATM   19  C   UNL     1     -13.347  11.657  72.203  1.00  0.00    -0.310 A  
HETATM   20  C   UNL     1     -13.078  15.628  71.295  1.00  0.00    -0.473 C  
HETATM   21  C   UNL     1     -12.793  10.445  71.788  1.00  0.00    -0.561 A  
HETATM   22  C   UNL     1     -12.908  15.272  69.831  1.00  0.00    -0.036 C  
HETATM   23  C   UNL     1     -11.916  14.110  69.574  1.00  0.00    -0.389 C  
HETATM   24  C   UNL     1     -10.480  14.561  69.922  1.00  0.00     0.125 C  
HETATM   25  C   UNL     1     -11.978  13.836  68.049  1.00  0.00    -0.390 C  
ENDBRANCH  13  14
ENDBRANCH   9  12
ENDBRANCH   4   6
ENDBRANCH   3   4
ENDBRANCH   2   3
TORSDOF 5
ENDMDL
MODEL       43
REMARK 921   NORMALIZED FREE ENERGY PREDICTED BY IDOCK:   -4.94 KCAL/MOL
REMARK 922        TOTAL FREE ENERGY PREDICTED BY IDOCK:   -6.71 KCAL/MOL
REMARK 923 INTER-LIGAND FREE ENERGY PREDICTED BY IDOCK:   -6.33 KCAL/MOL
REMARK 924 INTRA-LIGAND FREE ENERGY PREDICTED BY IDOCK:   -0.38 KCAL/MOL
REMARK 927      BINDING AFFINITY PREDICTED BY RF-SCORE:    0.00 PKD
ROOT
HETATM    1  C   UNL     1     -11.445   6.231  71.971  1.00  0.00    -0.359 C  
HETATM    2  C   UNL     1     -10.936   5.635  70.670  1.00  0.00    -0.188 C  
ENDROOT
BRANCH   2   3
HETATM    3  O   UNL     1     -11.496   6.396  69.590  1.00  0.00    -0.416 OA 
BRANCH   3   4
HETATM    4  C   UNL     1     -10.665   6.611  68.542  1.00  0.00    -0.256 C  
HETATM    5  O   UNL     1     -10.310   5.784  67.719  1.00  0.00    -0.175 OA 
BRANCH   4   6
HETATM    6  C   UNL     1     -10.354   8.052  68.421  1.00  0.00    -0.236 A  
HETATM    7  C   UNL     1     -10.183   8.886  69.520  1.00  0.00    -0.204 A  
HETATM    8  N   UNL     1     -10.027  10.232  69.433  1.00  0.00    -0.225 NA 
HETATM    9  C   UNL     1     -10.042  10.767  68.192  1.00  0.00    -0.164 A  
HETATM   10  C   UNL     1     -10.171  10.014  67.033  1.00  0.00    -0.295 A  
HETATM   11  C   UNL     1     -10.329   8.635  67.152  1.00  0.00    -0.369 A  
BRANCH   9  12
HETATM   12  C   UNL     1      -9.970  12.192  68.136  1.00  0.00    -0.201 C  
HETATM   13  C   UNL     1      -9.941  13.396  68.114  1.00  0.00    -0.237 C  
BRANCH  13  14
HETATM   14  C   UNL     1      -9.936  14.826  68.077  1.00  0.00    -0.218 A  
HETATM   15  C   UNL     1      -8.729  15.531  68.006  1.00  0.00    -0.163 A  
HETATM   16  C   UNL     1      -8.686  16.945  67.903  1.00  0.00    -0.213 A  
HETATM   17  C   UNL     1      -9.912  17.638  67.924  1.00  0.00    -0.323 A  
HETATM   18  S   UNL     1     -10.102  19.411  67.807  1.00  0.00    -0.429 SA 
HETATM   19  C   UNL     1     -11.119  16.921  68.017  1.00  0.00    -0.190 A  
HETATM   20  C   UNL     1      -8.405  19.970  68.062  1.00  0.00    -0.211 C  
HETATM   21  C   UNL     1     -11.134  15.528  68.089  1.00  0.00    -0.325 A  
HETATM   22  C   UNL     1      -7.436  19.106  67.278  1.00  0.00    -0.246 C  
HETATM   23  C   UNL     1      -7.326  17.651  67.797  1.00  0.00    -0.193 C  
HETATM   24  C   UNL     1      -6.650  17.640  69.187  1.00  0.00    -0.251 C  
HETATM   25  C   UNL     1      -6.387  16.922  66.801  1.00  0.00    -0.239 C  
ENDBRANCH  13  14
ENDBRANCH   9  12
ENDBRANCH   4   6
ENDBRANCH   3   4
ENDBRANCH   2   3
TORSDOF 5
ENDMDL
MODEL       44
REMARK 921   NORMALIZED FREE ENERGY PREDICTED BY IDOCK:   -4.93 KCAL/MOL
REMARK 922        TOTAL FREE ENERGY PREDICTED BY IDOCK:   -6.69 KCAL/MOL
REMARK 923 INTER-LIGAND FREE ENERGY PREDICTED BY IDOCK:   -6.25 KCAL/MOL
REMARK 924 INTRA-LIGAND FREE ENERGY PREDICTED BY IDOCK:   -0.44 KCAL/MOL
REMARK 927      BINDING AFFINITY PREDICTED BY RF-SCORE:    0.00 PKD
ROOT
HETATM    1  C   UNL     1     -14.133  13.964  72.377  1.00  0.00    -0.586 C  
HETATM    2  C   UNL     1     -13.883  15.426  72.050  1.00  0.00    -0.522 C  
ENDROOT
BRANCH   2   3
HETATM    3  O   UNL     1     -13.590  15.518  70.648  1.00  0.00    -0.424 OA 
BRANCH   3   4
HETATM    4  C   UNL     1     -12.279  15.669  70.341  1.00  0.00    -0.395 C  
HETATM    5  O   UNL     1     -11.495  16.440  70.870  1.00  0.00    -0.380 OA 
BRANCH   4   6
HETATM    6  C   UNL     1     -11.859  14.642  69.362  1.00  0.00    -0.368 A  
HETATM    7  C   UNL     1     -11.974  13.277  69.599  1.00  0.00    -0.314 A  
HETATM    8  N   UNL     1     -11.477  12.320  68.774  1.00  0.00    -0.285 NA 
HETATM    9  C   UNL     1     -10.837  12.748  67.663  1.00  0.00    -0.228 A  
HETATM   10  C   UNL     1     -10.702  14.087  67.321  1.00  0.00    -0.278 A  
HETATM   11  C   UNL     1     -11.223  15.047  68.186  1.00  0.00    -0.316 A  
BRANCH   9  12
HETATM   12  C   UNL     1     -10.245  11.724  66.863  1.00  0.00    -0.236 C  
HETATM   13  C   UNL     1      -9.742  10.888  66.157  1.00  0.00    -0.252 C  
BRANCH  13  14
HETATM   14  C   UNL     1      -9.166   9.899  65.298  1.00  0.00    -0.280 A  
HETATM   15  C   UNL     1      -8.858   8.624  65.787  1.00  0.00    -0.231 A  
HETATM   16  C   UNL     1      -8.347   7.599  64.952  1.00  0.00    -0.054 A  
HETATM   17  C   UNL     1      -8.105   7.917  63.602  1.00  0.00    -0.074 A  
HETATM   18  S   UNL     1      -7.466   6.791  62.370  1.00  0.00    -0.083 SA 
HETATM   19  C   UNL     1      -8.397   9.208  63.124  1.00  0.00    -0.193 A  
HETATM   20  C   UNL     1      -6.897   5.422  63.397  1.00  0.00    -0.037 C  
HETATM   21  C   UNL     1      -8.926  10.191  63.961  1.00  0.00    -0.265 A  
HETATM   22  C   UNL     1      -7.916   5.107  64.476  1.00  0.00    -0.106 C  
HETATM   23  C   UNL     1      -8.061   6.213  65.550  1.00  0.00    -0.131 C  
HETATM   24  C   UNL     1      -6.771   6.293  66.397  1.00  0.00    -0.056 C  
HETATM   25  C   UNL     1      -9.215   5.748  66.476  1.00  0.00    -0.150 C  
ENDBRANCH  13  14
ENDBRANCH   9  12
ENDBRANCH   4   6
ENDBRANCH   3   4
ENDBRANCH   2   3
TORSDOF 5
ENDMDL
MODEL       45
REMARK 921   NORMALIZED FREE ENERGY PREDICTED BY IDOCK:   -4.90 KCAL/MOL
REMARK 922        TOTAL FREE ENERGY PREDICTED BY IDOCK:   -6.65 KCAL/MOL
REMARK 923 INTER-LIGAND FREE ENERGY PREDICTED BY IDOCK:   -6.16 KCAL/MOL
REMARK 924 INTRA-LIGAND FREE ENERGY PREDICTED BY IDOCK:   -0.50 KCAL/MOL
REMARK 927      BINDING AFFINITY PREDICTED BY RF-SCORE:    0.00 PKD
ROOT
HETATM    1  C   UNL     1     -10.274   6.637  74.051  1.00  0.00    -0.395 C  
HETATM    2  C   UNL     1     -11.019   5.447  73.472  1.00  0.00    -0.268 C  
ENDROOT
BRANCH   2   3
HETATM    3  O   UNL     1     -11.762   5.906  72.333  1.00  0.00    -0.309 OA 
BRANCH   3   4
HETATM    4  C   UNL     1     -11.093   5.876  71.156  1.00  0.00    -0.236 C  
HETATM    5  O   UNL     1     -10.614   4.890  70.620  1.00  0.00    -0.162 OA 
BRANCH   4   6
HETATM    6  C   UNL     1     -11.151   7.200  70.498  1.00  0.00    -0.299 A  
HETATM    7  C   UNL     1     -10.588   7.452  69.252  1.00  0.00    -0.213 A  
HETATM    8  N   UNL     1     -10.515   8.687  68.689  1.00  0.00    -0.203 NA 
HETATM    9  C   UNL     1     -11.028   9.712  69.405  1.00  0.00    -0.190 A  
HETATM   10  C   UNL     1     -11.642   9.556  70.641  1.00  0.00    -0.350 A  
HETATM   11  C   UNL     1     -11.703   8.278  71.193  1.00  0.00    -0.308 A  
BRANCH   9  12
HETATM   12  C   UNL     1     -10.854  11.008  68.832  1.00  0.00    -0.262 C  
HETATM   13  C   UNL     1     -10.745  12.112  68.363  1.00  0.00    -0.252 C  
BRANCH  13  14
HETATM   14  C   UNL     1     -10.641  13.419  67.790  1.00  0.00    -0.252 A  
HETATM   15  C   UNL     1      -9.479  14.180  67.963  1.00  0.00    -0.213 A  
HETATM   16  C   UNL     1      -9.313  15.453  67.359  1.00  0.00    -0.205 A  
HETATM   17  C   UNL     1     -10.389  15.961  66.605  1.00  0.00    -0.300 A  
HETATM   18  S   UNL     1     -10.408  17.534  65.756  1.00  0.00    -0.101 SA 
HETATM   19  C   UNL     1     -11.562  15.198  66.455  1.00  0.00    -0.105 A  
HETATM   20  C   UNL     1      -8.951  18.336  66.456  1.00  0.00    -0.274 C  
HETATM   21  C   UNL     1     -11.687  13.936  67.038  1.00  0.00    -0.426 A  
HETATM   22  C   UNL     1      -7.793  17.360  66.537  1.00  0.00    -0.320 C  
HETATM   23  C   UNL     1      -7.999  16.220  67.566  1.00  0.00    -0.171 C  
HETATM   24  C   UNL     1      -7.980  16.797  68.999  1.00  0.00    -0.188 C  
HETATM   25  C   UNL     1      -6.770  15.287  67.407  1.00  0.00    -0.157 C  
ENDBRANCH  13  14
ENDBRANCH   9  12
ENDBRANCH   4   6
ENDBRANCH   3   4
ENDBRANCH   2   3
TORSDOF 5
ENDMDL
MODEL       46
REMARK 921   NORMALIZED FREE ENERGY PREDICTED BY IDOCK:   -4.90 KCAL/MOL
REMARK 922        TOTAL FREE ENERGY PREDICTED BY IDOCK:   -6.65 KCAL/MOL
REMARK 923 INTER-LIGAND FREE ENERGY PREDICTED BY IDOCK:   -6.18 KCAL/MOL
REMARK 924 INTRA-LIGAND FREE ENERGY PREDICTED BY IDOCK:   -0.48 KCAL/MOL
REMARK 927      BINDING AFFINITY PREDICTED BY RF-SCORE:    0.00 PKD
ROOT
HETATM    1  C   UNL     1      -9.111   4.303  69.531  1.00  0.00    -0.183 C  
HETATM    2  C   UNL     1      -9.443   3.501  68.284  1.00  0.00    -0.148 C  
ENDROOT
BRANCH   2   3
HETATM    3  O   UNL     1      -8.734   4.088  67.183  1.00  0.00    -0.106 OA 
BRANCH   3   4
HETATM    4  C   UNL     1      -9.511   4.675  66.242  1.00  0.00    -0.167 C  
HETATM    5  O   UNL     1     -10.222   4.103  65.431  1.00  0.00    -0.218 OA 
BRANCH   4   6
HETATM    6  C   UNL     1      -9.518   6.143  66.422  1.00  0.00    -0.172 A  
HETATM    7  C   UNL     1     -10.567   6.828  67.026  1.00  0.00    -0.335 A  
HETATM    8  N   UNL     1     -10.654   8.182  67.085  1.00  0.00    -0.324 NA 
HETATM    9  C   UNL     1      -9.648   8.880  66.515  1.00  0.00    -0.232 A  
HETATM   10  C   UNL     1      -8.541   8.289  65.920  1.00  0.00    -0.170 A  
HETATM   11  C   UNL     1      -8.478   6.898  65.875  1.00  0.00    -0.147 A  
BRANCH   9  12
HETATM   12  C   UNL     1      -9.811  10.299  66.510  1.00  0.00    -0.265 C  
HETATM   13  C   UNL     1      -9.937  11.496  66.466  1.00  0.00    -0.240 C  
BRANCH  13  14
HETATM   14  C   UNL     1     -10.058  12.921  66.405  1.00  0.00    -0.272 A  
HETATM   15  C   UNL     1      -9.742  13.708  67.519  1.00  0.00    -0.227 A  
HETATM   16  C   UNL     1      -9.788  15.125  67.478  1.00  0.00    -0.220 A  
HETATM   17  C   UNL     1     -10.214  15.729  66.279  1.00  0.00    -0.303 A  
HETATM   18  S   UNL     1     -10.350  17.489  65.997  1.00  0.00    -0.225 SA 
HETATM   19  C   UNL     1     -10.550  14.928  65.172  1.00  0.00    -0.450 A  
HETATM   20  C   UNL     1     -10.198  18.134  67.675  1.00  0.00    -0.374 C  
HETATM   21  C   UNL     1     -10.470  13.536  65.231  1.00  0.00    -0.345 A  
HETATM   22  C   UNL     1      -9.092  17.415  68.424  1.00  0.00    -0.274 C  
HETATM   23  C   UNL     1      -9.399  15.928  68.729  1.00  0.00    -0.220 C  
HETATM   24  C   UNL     1     -10.545  15.829  69.760  1.00  0.00    -0.312 C  
HETATM   25  C   UNL     1      -8.112  15.362  69.385  1.00  0.00    -0.249 C  
ENDBRANCH  13  14
ENDBRANCH   9  12
ENDBRANCH   4   6
ENDBRANCH   3   4
ENDBRANCH   2   3
TORSDOF 5
ENDMDL
MODEL       47
REMARK 921   NORMALIZED FREE ENERGY PREDICTED BY IDOCK:   -4.88 KCAL/MOL
REMARK 922        TOTAL FREE ENERGY PREDICTED BY IDOCK:   -6.63 KCAL/MOL
REMARK 923 INTER-LIGAND FREE ENERGY PREDICTED BY IDOCK:   -6.22 KCAL/MOL
REMARK 924 INTRA-LIGAND FREE ENERGY PREDICTED BY IDOCK:   -0.40 KCAL/MOL
REMARK 927      BINDING AFFINITY PREDICTED BY RF-SCORE:    0.00 PKD
ROOT
HETATM    1  C   UNL     1     -12.157  16.318  72.330  1.00  0.00    -0.598 C  
HETATM    2  C   UNL     1     -11.541  16.216  70.946  1.00  0.00    -0.371 C  
ENDROOT
BRANCH   2   3
HETATM    3  O   UNL     1     -12.300  15.256  70.196  1.00  0.00    -0.343 OA 
BRANCH   3   4
HETATM    4  C   UNL     1     -11.814  14.968  68.966  1.00  0.00    -0.300 C  
HETATM    5  O   UNL     1     -11.384  15.768  68.151  1.00  0.00    -0.350 OA 
BRANCH   4   6
HETATM    6  C   UNL     1     -11.717  13.504  68.782  1.00  0.00    -0.373 A  
HETATM    7  C   UNL     1     -11.615  12.611  69.843  1.00  0.00    -0.177 A  
HETATM    8  N   UNL     1     -11.393  11.279  69.695  1.00  0.00    -0.278 NA 
HETATM    9  C   UNL     1     -11.270  10.821  68.430  1.00  0.00    -0.284 A  
HETATM   10  C   UNL     1     -11.392  11.625  67.305  1.00  0.00    -0.372 A  
HETATM   11  C   UNL     1     -11.620  12.988  67.487  1.00  0.00    -0.405 A  
BRANCH   9  12
HETATM   12  C   UNL     1     -10.946   9.435  68.308  1.00  0.00    -0.085 C  
HETATM   13  C   UNL     1     -10.660   8.267  68.245  1.00  0.00    -0.157 C  
BRANCH  13  14
HETATM   14  C   UNL     1     -10.291   6.886  68.176  1.00  0.00    -0.223 A  
HETATM   15  C   UNL     1      -9.974   6.296  66.947  1.00  0.00    -0.215 A  
HETATM   16  C   UNL     1      -9.543   4.948  66.847  1.00  0.00    -0.171 A  
HETATM   17  C   UNL     1      -9.488   4.191  68.033  1.00  0.00    -0.160 A  
HETATM   18  S   UNL     1      -8.976   2.483  68.149  1.00  0.00    -0.172 SA 
HETATM   19  C   UNL     1      -9.829   4.788  69.261  1.00  0.00    -0.269 A  
HETATM   20  C   UNL     1      -8.975   1.990  66.413  1.00  0.00    -0.093 C  
HETATM   21  C   UNL     1     -10.224   6.124  69.335  1.00  0.00    -0.248 A  
HETATM   22  C   UNL     1      -8.348   3.071  65.554  1.00  0.00    -0.097 C  
HETATM   23  C   UNL     1      -9.182   4.374  65.469  1.00  0.00    -0.150 C  
HETATM   24  C   UNL     1     -10.485   4.111  64.682  1.00  0.00    -0.189 C  
HETATM   25  C   UNL     1      -8.319   5.369  64.650  1.00  0.00    -0.141 C  
ENDBRANCH  13  14
ENDBRANCH   9  12
ENDBRANCH   4   6
ENDBRANCH   3   4
ENDBRANCH   2   3
TORSDOF 5
ENDMDL
MODEL       48
REMARK 921   NORMALIZED FREE ENERGY PREDICTED BY IDOCK:   -4.86 KCAL/MOL
REMARK 922        TOTAL FREE ENERGY PREDICTED BY IDOCK:   -6.60 KCAL/MOL
REMARK 923 INTER-LIGAND FREE ENERGY PREDICTED BY IDOCK:   -6.05 KCAL/MOL
REMARK 924 INTRA-LIGAND FREE ENERGY PREDICTED BY IDOCK:   -0.55 KCAL/MOL
REMARK 927      BINDING AFFINITY PREDICTED BY RF-SCORE:    0.00 PKD
ROOT
HETATM    1  C   UNL     1      -9.649   4.886  74.287  1.00  0.00    -0.144 C  
HETATM    2  C   UNL     1      -9.769   3.561  73.555  1.00  0.00    -0.108 C  
ENDROOT
BRANCH   2   3
HETATM    3  O   UNL     1     -10.580   3.775  72.390  1.00  0.00    -0.109 OA 
BRANCH   3   4
HETATM    4  C   UNL     1      -9.908   3.798  71.214  1.00  0.00    -0.149 C  
HETATM    5  O   UNL     1      -9.312   2.864  70.702  1.00  0.00    -0.126 OA 
BRANCH   4   6
HETATM    6  C   UNL     1     -10.122   5.089  70.525  1.00  0.00    -0.323 A  
HETATM    7  C   UNL     1      -9.279   5.563  69.525  1.00  0.00    -0.121 A  
HETATM    8  N   UNL     1      -9.380   6.800  68.972  1.00  0.00    -0.135 NA 
HETATM    9  C   UNL     1     -10.367   7.596  69.441  1.00  0.00    -0.214 A  
HETATM   10  C   UNL     1     -11.279   7.201  70.410  1.00  0.00    -0.320 A  
HETATM   11  C   UNL     1     -11.152   5.926  70.959  1.00  0.00    -0.315 A  
BRANCH   9  12
HETATM   12  C   UNL     1     -10.392   8.921  68.908  1.00  0.00    -0.229 C  
HETATM   13  C   UNL     1     -10.453  10.035  68.455  1.00  0.00    -0.235 C  
BRANCH  13  14
HETATM   14  C   UNL     1     -10.539  11.347  67.890  1.00  0.00    -0.224 A  
HETATM   15  C   UNL     1     -10.994  11.528  66.579  1.00  0.00    -0.346 A  
HETATM   16  C   UNL     1     -11.153  12.816  66.007  1.00  0.00    -0.315 A  
HETATM   17  C   UNL     1     -10.787  13.927  66.790  1.00  0.00    -0.286 A  
HETATM   18  S   UNL     1     -10.901  15.637  66.281  1.00  0.00    -0.210 SA 
HETATM   19  C   UNL     1     -10.310  13.734  68.100  1.00  0.00    -0.252 A  
HETATM   20  C   UNL     1     -11.188  15.464  64.508  1.00  0.00    -0.299 C  
HETATM   21  C   UNL     1     -10.190  12.456  68.648  1.00  0.00    -0.169 A  
HETATM   22  C   UNL     1     -12.198  14.365  64.237  1.00  0.00    -0.450 C  
HETATM   23  C   UNL     1     -11.688  12.941  64.572  1.00  0.00    -0.416 C  
HETATM   24  C   UNL     1     -10.567  12.541  63.587  1.00  0.00    -0.446 C  
HETATM   25  C   UNL     1     -12.895  11.998  64.334  1.00  0.00    -0.114 C  
ENDBRANCH  13  14
ENDBRANCH   9  12
ENDBRANCH   4   6
ENDBRANCH   3   4
ENDBRANCH   2   3
TORSDOF 5
ENDMDL
MODEL       49
REMARK 921   NORMALIZED FREE ENERGY PREDICTED BY IDOCK:   -4.85 KCAL/MOL
REMARK 922        TOTAL FREE ENERGY PREDICTED BY IDOCK:   -6.59 KCAL/MOL
REMARK 923 INTER-LIGAND FREE ENERGY PREDICTED BY IDOCK:   -6.11 KCAL/MOL
REMARK 924 INTRA-LIGAND FREE ENERGY PREDICTED BY IDOCK:   -0.48 KCAL/MOL
REMARK 927      BINDING AFFINITY PREDICTED BY RF-SCORE:    0.00 PKD
ROOT
HETATM    1  C   UNL     1     -10.207   3.874  63.851  1.00  0.00    -0.204 C  
HETATM    2  C   UNL     1      -9.372   3.379  65.020  1.00  0.00    -0.154 C  
ENDROOT
BRANCH   2   3
HETATM    3  O   UNL     1      -8.501   4.448  65.421  1.00  0.00    -0.116 OA 
BRANCH   3   4
HETATM    4  C   UNL     1      -8.792   5.011  66.618  1.00  0.00    -0.111 C  
HETATM    5  O   UNL     1      -8.658   4.492  67.714  1.00  0.00    -0.102 OA 
BRANCH   4   6
HETATM    6  C   UNL     1      -9.154   6.434  66.441  1.00  0.00    -0.168 A  
HETATM    7  C   UNL     1      -8.320   7.357  65.820  1.00  0.00    -0.139 A  
HETATM    8  N   UNL     1      -8.573   8.691  65.764  1.00  0.00    -0.153 NA 
HETATM    9  C   UNL     1      -9.711   9.118  66.354  1.00  0.00    -0.262 A  
HETATM   10  C   UNL     1     -10.625   8.271  66.967  1.00  0.00    -0.328 A  
HETATM   11  C   UNL     1     -10.339   6.908  67.010  1.00  0.00    -0.348 A  
BRANCH   9  12
HETATM   12  C   UNL     1      -9.906  10.533  66.360  1.00  0.00    -0.260 C  
HETATM   13  C   UNL     1     -10.061  11.727  66.325  1.00  0.00    -0.248 C  
BRANCH  13  14
HETATM   14  C   UNL     1     -10.215  13.148  66.274  1.00  0.00    -0.294 A  
HETATM   15  C   UNL     1      -9.942  13.933  67.401  1.00  0.00    -0.240 A  
HETATM   16  C   UNL     1     -10.022  15.349  67.371  1.00  0.00    -0.229 A  
HETATM   17  C   UNL     1     -10.438  15.953  66.168  1.00  0.00    -0.326 A  
HETATM   18  S   UNL     1     -10.611  17.712  65.898  1.00  0.00    -0.069 SA 
HETATM   19  C   UNL     1     -10.731  15.154  65.048  1.00  0.00    -0.451 A  
HETATM   20  C   UNL     1     -10.511  18.345  67.584  1.00  0.00    -0.419 C  
HETATM   21  C   UNL     1     -10.617  13.764  65.097  1.00  0.00    -0.385 A  
HETATM   22  C   UNL     1      -9.403  17.647  68.350  1.00  0.00    -0.289 C  
HETATM   23  C   UNL     1      -9.679  16.150  68.636  1.00  0.00    -0.227 C  
HETATM   24  C   UNL     1     -10.844  16.014  69.642  1.00  0.00    -0.329 C  
HETATM   25  C   UNL     1      -8.393  15.610  69.314  1.00  0.00    -0.256 C  
ENDBRANCH  13  14
ENDBRANCH   9  12
ENDBRANCH   4   6
ENDBRANCH   3   4
ENDBRANCH   2   3
TORSDOF 5
ENDMDL
MODEL       50
REMARK 921   NORMALIZED FREE ENERGY PREDICTED BY IDOCK:   -4.82 KCAL/MOL
REMARK 922        TOTAL FREE ENERGY PREDICTED BY IDOCK:   -6.56 KCAL/MOL
REMARK 923 INTER-LIGAND FREE ENERGY PREDICTED BY IDOCK:   -6.04 KCAL/MOL
REMARK 924 INTRA-LIGAND FREE ENERGY PREDICTED BY IDOCK:   -0.52 KCAL/MOL
REMARK 927      BINDING AFFINITY PREDICTED BY RF-SCORE:    0.00 PKD
ROOT
HETATM    1  C   UNL     1     -11.724   7.185  70.648  1.00  0.00    -0.348 C  
HETATM    2  C   UNL     1     -11.199   6.090  69.734  1.00  0.00    -0.369 C  
ENDROOT
BRANCH   2   3
HETATM    3  O   UNL     1     -10.112   6.638  68.973  1.00  0.00    -0.153 OA 
BRANCH   3   4
HETATM    4  C   UNL     1     -10.450   7.136  67.759  1.00  0.00    -0.223 C  
HETATM    5  O   UNL     1     -11.228   6.637  66.963  1.00  0.00    -0.404 OA 
BRANCH   4   6
HETATM    6  C   UNL     1      -9.864   8.481  67.575  1.00  0.00    -0.231 A  
HETATM    7  C   UNL     1      -9.148   9.139  68.569  1.00  0.00    -0.132 A  
HETATM    8  N   UNL     1      -8.715  10.423  68.468  1.00  0.00    -0.128 NA 
HETATM    9  C   UNL     1      -9.011  11.075  67.323  1.00  0.00    -0.138 A  
HETATM   10  C   UNL     1      -9.689  10.494  66.260  1.00  0.00    -0.254 A  
HETATM   11  C   UNL     1     -10.120   9.176  66.390  1.00  0.00    -0.345 A  
BRANCH   9  12
HETATM   12  C   UNL     1      -8.625  12.450  67.282  1.00  0.00    -0.185 C  
HETATM   13  C   UNL     1      -8.299  13.609  67.289  1.00  0.00    -0.182 C  
BRANCH  13  14
HETATM   14  C   UNL     1      -7.938  14.994  67.313  1.00  0.00    -0.234 A  
HETATM   15  C   UNL     1      -8.925  15.986  67.294  1.00  0.00    -0.211 A  
HETATM   16  C   UNL     1      -8.609  17.366  67.381  1.00  0.00    -0.221 A  
HETATM   17  C   UNL     1      -7.247  17.720  67.439  1.00  0.00    -0.186 A  
HETATM   18  S   UNL     1      -6.614  19.388  67.553  1.00  0.00    -0.209 SA 
HETATM   19  C   UNL     1      -6.261  16.716  67.436  1.00  0.00    -0.191 A  
HETATM   20  C   UNL     1      -8.088  20.357  67.176  1.00  0.00    -0.329 C  
HETATM   21  C   UNL     1      -6.601  15.364  67.378  1.00  0.00    -0.150 A  
HETATM   22  C   UNL     1      -9.296  19.792  67.897  1.00  0.00    -0.440 C  
HETATM   23  C   UNL     1      -9.744  18.400  67.385  1.00  0.00    -0.307 C  
HETATM   24  C   UNL     1     -10.308  18.526  65.952  1.00  0.00    -0.344 C  
HETATM   25  C   UNL     1     -10.902  17.964  68.320  1.00  0.00    -0.127 C  
ENDBRANCH  13  14
ENDBRANCH   9  12
ENDBRANCH   4   6
ENDBRANCH   3   4
ENDBRANCH   2   3
TORSDOF 5
ENDMDL
MODEL       51
REMARK 921   NORMALIZED FREE ENERGY PREDICTED BY IDOCK:   -4.82 KCAL/MOL
REMARK 922        TOTAL FREE ENERGY PREDICTED BY IDOCK:   -6.55 KCAL/MOL
REMARK 923 INTER-LIGAND FREE ENERGY PREDICTED BY IDOCK:   -6.14 KCAL/MOL
REMARK 924 INTRA-LIGAND FREE ENERGY PREDICTED BY IDOCK:   -0.41 KCAL/MOL
REMARK 927      BINDING AFFINITY PREDICTED BY RF-SCORE:    0.00 PKD
ROOT
HETATM    1  C   UNL     1     -11.737   1.468  73.992  1.00  0.00    -0.149 C  
HETATM    2  C   UNL     1     -10.701   1.769  72.923  1.00  0.00    -0.149 C  
ENDROOT
BRANCH   2   3
HETATM    3  O   UNL     1     -10.729   3.181  72.669  1.00  0.00    -0.099 OA 
BRANCH   3   4
HETATM    4  C   UNL     1     -10.031   3.587  71.582  1.00  0.00    -0.119 C  
HETATM    5  O   UNL     1      -9.292   2.899  70.897  1.00  0.00    -0.125 OA 
BRANCH   4   6
HETATM    6  C   UNL     1     -10.407   4.971  71.217  1.00  0.00    -0.255 A  
HETATM    7  C   UNL     1     -10.282   5.475  69.927  1.00  0.00    -0.268 A  
HETATM    8  N   UNL     1     -10.496   6.776  69.598  1.00  0.00    -0.204 NA 
HETATM    9  C   UNL     1     -10.852   7.606  70.603  1.00  0.00    -0.237 A  
HETATM   10  C   UNL     1     -11.037   7.191  71.915  1.00  0.00    -0.268 A  
HETATM   11  C   UNL     1     -10.811   5.851  72.224  1.00  0.00    -0.292 A  
BRANCH   9  12
HETATM   12  C   UNL     1     -10.980   8.983  70.245  1.00  0.00    -0.274 C  
HETATM   13  C   UNL     1     -11.061  10.153  69.974  1.00  0.00    -0.368 C  
BRANCH  13  14
HETATM   14  C   UNL     1     -11.166  11.550  69.680  1.00  0.00    -0.276 A  
HETATM   15  C   UNL     1     -10.504  12.095  68.573  1.00  0.00    -0.248 A  
HETATM   16  C   UNL     1     -10.635  13.460  68.213  1.00  0.00    -0.264 A  
HETATM   17  C   UNL     1     -11.425  14.280  69.042  1.00  0.00    -0.284 A  
HETATM   18  S   UNL     1     -11.733  16.022  68.787  1.00  0.00    -0.179 SA 
HETATM   19  C   UNL     1     -12.069  13.728  70.165  1.00  0.00    -0.429 A  
HETATM   20  C   UNL     1     -10.503  16.422  67.528  1.00  0.00    -0.304 C  
HETATM   21  C   UNL     1     -11.945  12.374  70.480  1.00  0.00    -0.284 A  
HETATM   22  C   UNL     1     -10.458  15.341  66.466  1.00  0.00    -0.299 C  
HETATM   23  C   UNL     1      -9.904  13.984  66.968  1.00  0.00    -0.260 C  
HETATM   24  C   UNL     1      -8.400  14.120  67.294  1.00  0.00    -0.212 C  
HETATM   25  C   UNL     1     -10.051  13.006  65.774  1.00  0.00    -0.294 C  
ENDBRANCH  13  14
ENDBRANCH   9  12
ENDBRANCH   4   6
ENDBRANCH   3   4
ENDBRANCH   2   3
TORSDOF 5
ENDMDL
MODEL       52
REMARK 921   NORMALIZED FREE ENERGY PREDICTED BY IDOCK:   -4.80 KCAL/MOL
REMARK 922        TOTAL FREE ENERGY PREDICTED BY IDOCK:   -6.53 KCAL/MOL
REMARK 923 INTER-LIGAND FREE ENERGY PREDICTED BY IDOCK:   -6.08 KCAL/MOL
REMARK 924 INTRA-LIGAND FREE ENERGY PREDICTED BY IDOCK:   -0.44 KCAL/MOL
REMARK 927      BINDING AFFINITY PREDICTED BY RF-SCORE:    0.00 PKD
ROOT
HETATM    1  C   UNL     1     -14.307   7.921  71.600  1.00  0.00    -0.595 C  
HETATM    2  C   UNL     1     -12.892   8.329  71.973  1.00  0.00    -0.340 C  
ENDROOT
BRANCH   2   3
HETATM    3  O   UNL     1     -12.532   9.456  71.161  1.00  0.00    -0.308 OA 
BRANCH   3   4
HETATM    4  C   UNL     1     -11.479   9.259  70.332  1.00  0.00    -0.213 C  
HETATM    5  O   UNL     1     -11.001   8.183  70.012  1.00  0.00    -0.248 OA 
BRANCH   4   6
HETATM    6  C   UNL     1     -11.063  10.538  69.717  1.00  0.00    -0.354 A  
HETATM    7  C   UNL     1      -9.898  10.677  68.970  1.00  0.00    -0.205 A  
HETATM    8  N   UNL     1      -9.431  11.866  68.508  1.00  0.00    -0.182 NA 
HETATM    9  C   UNL     1     -10.161  12.962  68.806  1.00  0.00    -0.091 A  
HETATM   10  C   UNL     1     -11.355  12.923  69.514  1.00  0.00    -0.221 A  
HETATM   11  C   UNL     1     -11.811  11.690  69.975  1.00  0.00    -0.435 A  
BRANCH   9  12
HETATM   12  C   UNL     1      -9.599  14.207  68.388  1.00  0.00    -0.225 C  
HETATM   13  C   UNL     1      -9.108  15.261  68.073  1.00  0.00    -0.176 C  
BRANCH  13  14
HETATM   14  C   UNL     1      -8.542  16.527  67.722  1.00  0.00    -0.180 A  
HETATM   15  C   UNL     1      -7.707  17.205  68.618  1.00  0.00    -0.260 A  
HETATM   16  C   UNL     1      -7.077  18.431  68.281  1.00  0.00    -0.269 A  
HETATM   17  C   UNL     1      -7.357  18.982  67.016  1.00  0.00    -0.213 A  
HETATM   18  S   UNL     1      -6.681  20.509  66.379  1.00  0.00    -0.243 SA 
HETATM   19  C   UNL     1      -8.215  18.304  66.131  1.00  0.00    -0.171 A  
HETATM   20  C   UNL     1      -5.961  21.231  67.867  1.00  0.00    -0.331 C  
HETATM   21  C   UNL     1      -8.800  17.085  66.477  1.00  0.00    -0.295 A  
HETATM   22  C   UNL     1      -5.225  20.175  68.669  1.00  0.00    -0.226 C  
HETATM   23  C   UNL     1      -6.148  19.105  69.302  1.00  0.00    -0.286 C  
HETATM   24  C   UNL     1      -7.011  19.747  70.412  1.00  0.00     0.202 C  
HETATM   25  C   UNL     1      -5.199  18.075  69.968  1.00  0.00    -0.219 C  
ENDBRANCH  13  14
ENDBRANCH   9  12
ENDBRANCH   4   6
ENDBRANCH   3   4
ENDBRANCH   2   3
TORSDOF 5
ENDMDL
MODEL       53
REMARK 921   NORMALIZED FREE ENERGY PREDICTED BY IDOCK:   -4.74 KCAL/MOL
REMARK 922        TOTAL FREE ENERGY PREDICTED BY IDOCK:   -6.45 KCAL/MOL
REMARK 923 INTER-LIGAND FREE ENERGY PREDICTED BY IDOCK:   -6.02 KCAL/MOL
REMARK 924 INTRA-LIGAND FREE ENERGY PREDICTED BY IDOCK:   -0.43 KCAL/MOL
REMARK 927      BINDING AFFINITY PREDICTED BY RF-SCORE:    0.00 PKD
ROOT
HETATM    1  C   UNL     1     -12.144  14.522  64.753  1.00  0.00    -0.454 C  
HETATM    2  C   UNL     1     -11.082  15.460  65.300  1.00  0.00    -0.360 C  
ENDROOT
BRANCH   2   3
HETATM    3  O   UNL     1     -10.368  14.761  66.331  1.00  0.00    -0.278 OA 
BRANCH   3   4
HETATM    4  C   UNL     1     -11.058  14.565  67.480  1.00  0.00    -0.307 C  
HETATM    5  O   UNL     1     -11.877  15.323  67.972  1.00  0.00    -0.314 OA 
BRANCH   4   6
HETATM    6  C   UNL     1     -10.806  13.204  68.004  1.00  0.00    -0.261 A  
HETATM    7  C   UNL     1      -9.670  12.468  67.687  1.00  0.00    -0.196 A  
HETATM    8  N   UNL     1      -9.481  11.172  68.048  1.00  0.00    -0.168 NA 
HETATM    9  C   UNL     1     -10.471  10.589  68.758  1.00  0.00    -0.196 A  
HETATM   10  C   UNL     1     -11.627  11.251  69.154  1.00  0.00    -0.387 A  
HETATM   11  C   UNL     1     -11.793  12.579  68.769  1.00  0.00    -0.347 A  
BRANCH   9  12
HETATM   12  C   UNL     1     -10.287   9.202  69.045  1.00  0.00    -0.229 C  
HETATM   13  C   UNL     1     -10.097   8.042  69.305  1.00  0.00    -0.198 C  
BRANCH  13  14
HETATM   14  C   UNL     1      -9.843   6.665  69.599  1.00  0.00    -0.168 A  
HETATM   15  C   UNL     1     -10.059   6.162  70.888  1.00  0.00    -0.237 A  
HETATM   16  C   UNL     1      -9.880   4.790  71.202  1.00  0.00    -0.260 A  
HETATM   17  C   UNL     1      -9.424   3.940  70.176  1.00  0.00    -0.191 A  
HETATM   18  S   UNL     1      -9.128   2.185  70.339  1.00  0.00    -0.109 SA 
HETATM   19  C   UNL     1      -9.189   4.460  68.889  1.00  0.00    -0.199 A  
HETATM   20  C   UNL     1      -9.183   1.978  72.130  1.00  0.00    -0.083 C  
HETATM   21  C   UNL     1      -9.400   5.809  68.600  1.00  0.00    -0.136 A  
HETATM   22  C   UNL     1     -10.336   2.765  72.723  1.00  0.00    -0.236 C  
HETATM   23  C   UNL     1     -10.165   4.302  72.630  1.00  0.00    -0.232 C  
HETATM   24  C   UNL     1      -9.012   4.757  73.552  1.00  0.00    -0.107 C  
HETATM   25  C   UNL     1     -11.485   4.902  73.180  1.00  0.00    -0.362 C  
ENDBRANCH  13  14
ENDBRANCH   9  12
ENDBRANCH   4   6
ENDBRANCH   3   4
ENDBRANCH   2   3
TORSDOF 5
ENDMDL
MODEL       54
REMARK 921   NORMALIZED FREE ENERGY PREDICTED BY IDOCK:   -4.73 KCAL/MOL
REMARK 922        TOTAL FREE ENERGY PREDICTED BY IDOCK:   -6.43 KCAL/MOL
REMARK 923 INTER-LIGAND FREE ENERGY PREDICTED BY IDOCK:   -5.89 KCAL/MOL
REMARK 924 INTRA-LIGAND FREE ENERGY PREDICTED BY IDOCK:   -0.55 KCAL/MOL
REMARK 927      BINDING AFFINITY PREDICTED BY RF-SCORE:    0.00 PKD
ROOT
HETATM    1  C   UNL     1      -9.585   3.167  70.252  1.00  0.00    -0.180 C  
HETATM    2  C   UNL     1      -9.410   2.274  69.035  1.00  0.00    -0.132 C  
ENDROOT
BRANCH   2   3
HETATM    3  O   UNL     1      -9.711   3.057  67.870  1.00  0.00    -0.136 OA 
BRANCH   3   4
HETATM    4  C   UNL     1      -8.658   3.716  67.330  1.00  0.00    -0.108 C  
HETATM    5  O   UNL     1      -7.565   3.243  67.066  1.00  0.00    -0.073 OA 
BRANCH   4   6
HETATM    6  C   UNL     1      -9.055   5.087  66.940  1.00  0.00    -0.117 A  
HETATM    7  C   UNL     1      -8.294   5.884  66.092  1.00  0.00    -0.124 A  
HETATM    8  N   UNL     1      -8.572   7.187  65.826  1.00  0.00    -0.149 NA 
HETATM    9  C   UNL     1      -9.657   7.714  66.434  1.00  0.00    -0.153 A  
HETATM   10  C   UNL     1     -10.498   6.990  67.269  1.00  0.00    -0.363 A  
HETATM   11  C   UNL     1     -10.190   5.655  67.524  1.00  0.00    -0.246 A  
BRANCH   9  12
HETATM   12  C   UNL     1      -9.871   9.108  66.210  1.00  0.00    -0.359 C  
HETATM   13  C   UNL     1     -10.085  10.274  65.999  1.00  0.00    -0.311 C  
BRANCH  13  14
HETATM   14  C   UNL     1     -10.338  11.654  65.717  1.00  0.00    -0.292 A  
HETATM   15  C   UNL     1      -9.664  12.658  66.423  1.00  0.00    -0.259 A  
HETATM   16  C   UNL     1      -9.841  14.035  66.129  1.00  0.00    -0.319 A  
HETATM   17  C   UNL     1     -10.767  14.373  65.123  1.00  0.00    -0.398 A  
HETATM   18  S   UNL     1     -11.152  16.034  64.586  1.00  0.00    -0.162 SA 
HETATM   19  C   UNL     1     -11.455  13.357  64.435  1.00  0.00    -0.417 A  
HETATM   20  C   UNL     1     -10.386  17.019  65.889  1.00  0.00    -0.298 C  
HETATM   21  C   UNL     1     -11.242  12.009  64.725  1.00  0.00    -0.373 A  
HETATM   22  C   UNL     1      -9.016  16.470  66.235  1.00  0.00    -0.359 C  
HETATM   23  C   UNL     1      -9.046  15.082  66.923  1.00  0.00    -0.269 C  
HETATM   24  C   UNL     1      -9.662  15.210  68.334  1.00  0.00    -0.212 C  
HETATM   25  C   UNL     1      -7.562  14.662  67.083  1.00  0.00    -0.078 C  
ENDBRANCH  13  14
ENDBRANCH   9  12
ENDBRANCH   4   6
ENDBRANCH   3   4
ENDBRANCH   2   3
TORSDOF 5
ENDMDL
MODEL       55
REMARK 921   NORMALIZED FREE ENERGY PREDICTED BY IDOCK:   -4.72 KCAL/MOL
REMARK 922        TOTAL FREE ENERGY PREDICTED BY IDOCK:   -6.42 KCAL/MOL
REMARK 923 INTER-LIGAND FREE ENERGY PREDICTED BY IDOCK:   -5.94 KCAL/MOL
REMARK 924 INTRA-LIGAND FREE ENERGY PREDICTED BY IDOCK:   -0.48 KCAL/MOL
REMARK 927      BINDING AFFINITY PREDICTED BY RF-SCORE:    0.00 PKD
ROOT
HETATM    1  C   UNL     1      -9.128   1.484  65.007  1.00  0.00    -0.121 C  
HETATM    2  C   UNL     1      -8.921   2.986  65.105  1.00  0.00    -0.143 C  
ENDROOT
BRANCH   2   3
HETATM    3  O   UNL     1      -8.268   3.258  66.354  1.00  0.00    -0.094 OA 
BRANCH   3   4
HETATM    4  C   UNL     1      -9.084   3.665  67.356  1.00  0.00    -0.161 C  
HETATM    5  O   UNL     1      -9.458   2.994  68.303  1.00  0.00    -0.197 OA 
BRANCH   4   6
HETATM    6  C   UNL     1      -9.350   5.116  67.244  1.00  0.00    -0.129 A  
HETATM    7  C   UNL     1     -10.631   5.646  67.139  1.00  0.00    -0.270 A  
HETATM    8  N   UNL     1     -10.892   6.958  66.905  1.00  0.00    -0.354 NA 
HETATM    9  C   UNL     1      -9.824   7.775  66.769  1.00  0.00    -0.241 A  
HETATM   10  C   UNL     1      -8.509   7.348  66.892  1.00  0.00    -0.123 A  
HETATM   11  C   UNL     1      -8.271   5.997  67.133  1.00  0.00    -0.105 A  
BRANCH   9  12
HETATM   12  C   UNL     1     -10.126   9.129  66.432  1.00  0.00    -0.345 C  
HETATM   13  C   UNL     1     -10.342  10.276  66.131  1.00  0.00    -0.253 C  
BRANCH  13  14
HETATM   14  C   UNL     1     -10.576  11.646  65.792  1.00  0.00    -0.320 A  
HETATM   15  C   UNL     1      -9.956  12.672  66.514  1.00  0.00    -0.256 A  
HETATM   16  C   UNL     1     -10.112  14.039  66.169  1.00  0.00    -0.319 A  
HETATM   17  C   UNL     1     -10.963  14.345  65.089  1.00  0.00    -0.373 A  
HETATM   18  S   UNL     1     -11.309  15.988  64.476  1.00  0.00    -0.123 SA 
HETATM   19  C   UNL     1     -11.599  13.307  64.382  1.00  0.00    -0.423 A  
HETATM   20  C   UNL     1     -10.640  17.013  65.802  1.00  0.00    -0.211 C  
HETATM   21  C   UNL     1     -11.405  11.969  64.727  1.00  0.00    -0.369 A  
HETATM   22  C   UNL     1      -9.298  16.478  66.262  1.00  0.00    -0.334 C  
HETATM   23  C   UNL     1      -9.377  15.111  66.987  1.00  0.00    -0.244 C  
HETATM   24  C   UNL     1     -10.093  15.279  68.345  1.00  0.00    -0.220 C  
HETATM   25  C   UNL     1      -7.908  14.701  67.265  1.00  0.00    -0.213 C  
ENDBRANCH  13  14
ENDBRANCH   9  12
ENDBRANCH   4   6
ENDBRANCH   3   4
ENDBRANCH   2   3
TORSDOF 5
ENDMDL
MODEL       56
REMARK 921   NORMALIZED FREE ENERGY PREDICTED BY IDOCK:   -4.72 KCAL/MOL
REMARK 922        TOTAL FREE ENERGY PREDICTED BY IDOCK:   -6.42 KCAL/MOL
REMARK 923 INTER-LIGAND FREE ENERGY PREDICTED BY IDOCK:   -5.88 KCAL/MOL
REMARK 924 INTRA-LIGAND FREE ENERGY PREDICTED BY IDOCK:   -0.54 KCAL/MOL
REMARK 927      BINDING AFFINITY PREDICTED BY RF-SCORE:    0.00 PKD
ROOT
HETATM    1  C   UNL     1     -10.641   5.204  74.023  1.00  0.00    -0.335 C  
HETATM    2  C   UNL     1     -10.100   3.941  73.376  1.00  0.00    -0.138 C  
ENDROOT
BRANCH   2   3
HETATM    3  O   UNL     1     -10.417   3.995  71.977  1.00  0.00    -0.105 OA 
BRANCH   3   4
HETATM    4  C   UNL     1      -9.362   4.209  71.154  1.00  0.00    -0.150 C  
HETATM    5  O   UNL     1      -8.418   3.456  70.977  1.00  0.00    -0.065 OA 
BRANCH   4   6
HETATM    6  C   UNL     1      -9.577   5.431  70.350  1.00  0.00    -0.233 A  
HETATM    7  C   UNL     1      -8.538   6.143  69.760  1.00  0.00    -0.132 A  
HETATM    8  N   UNL     1      -8.698   7.336  69.130  1.00  0.00    -0.136 NA 
HETATM    9  C   UNL     1      -9.952   7.838  69.089  1.00  0.00    -0.182 A  
HETATM   10  C   UNL     1     -11.059   7.186  69.617  1.00  0.00    -0.206 A  
HETATM   11  C   UNL     1     -10.865   5.964  70.257  1.00  0.00    -0.391 A  
BRANCH   9  12
HETATM   12  C   UNL     1     -10.076   9.134  68.504  1.00  0.00    -0.212 C  
HETATM   13  C   UNL     1     -10.217  10.217  67.994  1.00  0.00    -0.205 C  
BRANCH  13  14
HETATM   14  C   UNL     1     -10.386  11.489  67.361  1.00  0.00    -0.235 A  
HETATM   15  C   UNL     1      -9.543  12.559  67.681  1.00  0.00    -0.190 A  
HETATM   16  C   UNL     1      -9.639  13.816  67.030  1.00  0.00    -0.251 A  
HETATM   17  C   UNL     1     -10.655  13.976  66.069  1.00  0.00    -0.297 A  
HETATM   18  S   UNL     1     -10.964  15.462  65.125  1.00  0.00    -0.418 SA 
HETATM   19  C   UNL     1     -11.512  12.900  65.769  1.00  0.00    -0.376 A  
HETATM   20  C   UNL     1      -9.954  16.665  66.011  1.00  0.00    -0.324 C  
HETATM   21  C   UNL     1     -11.378  11.666  66.406  1.00  0.00    -0.312 A  
HETATM   22  C   UNL     1      -8.602  16.073  66.358  1.00  0.00    -0.369 C  
HETATM   23  C   UNL     1      -8.660  14.937  67.410  1.00  0.00    -0.208 C  
HETATM   24  C   UNL     1      -9.074  15.515  68.782  1.00  0.00    -0.207 C  
HETATM   25  C   UNL     1      -7.209  14.404  67.530  1.00  0.00    -0.202 C  
ENDBRANCH  13  14
ENDBRANCH   9  12
ENDBRANCH   4   6
ENDBRANCH   3   4
ENDBRANCH   2   3
TORSDOF 5
ENDMDL
MODEL       57
REMARK 921   NORMALIZED FREE ENERGY PREDICTED BY IDOCK:   -4.70 KCAL/MOL
REMARK 922        TOTAL FREE ENERGY PREDICTED BY IDOCK:   -6.40 KCAL/MOL
REMARK 923 INTER-LIGAND FREE ENERGY PREDICTED BY IDOCK:   -5.87 KCAL/MOL
REMARK 924 INTRA-LIGAND FREE ENERGY PREDICTED BY IDOCK:   -0.52 KCAL/MOL
REMARK 927      BINDING AFFINITY PREDICTED BY RF-SCORE:    0.00 PKD
ROOT
HETATM    1  C   UNL     1     -12.915   8.848  71.878  1.00  0.00    -0.436 C  
HETATM    2  C   UNL     1     -12.731   7.378  71.539  1.00  0.00    -0.372 C  
ENDROOT
BRANCH   2   3
HETATM    3  O   UNL     1     -11.333   7.154  71.304  1.00  0.00    -0.253 OA 
BRANCH   3   4
HETATM    4  C   UNL     1     -10.984   6.990  70.005  1.00  0.00    -0.270 C  
HETATM    5  O   UNL     1     -11.254   6.032  69.299  1.00  0.00    -0.384 OA 
BRANCH   4   6
HETATM    6  C   UNL     1     -10.353   8.221  69.484  1.00  0.00    -0.219 A  
HETATM    7  C   UNL     1      -9.318   8.879  70.140  1.00  0.00    -0.180 A  
HETATM    8  N   UNL     1      -8.813  10.078  69.749  1.00  0.00    -0.203 NA 
HETATM    9  C   UNL     1      -9.368  10.642  68.654  1.00  0.00    -0.177 A  
HETATM   10  C   UNL     1     -10.380  10.049  67.912  1.00  0.00    -0.249 A  
HETATM   11  C   UNL     1     -10.878   8.818  68.335  1.00  0.00    -0.019 A  
BRANCH   9  12
HETATM   12  C   UNL     1      -8.882  11.943  68.321  1.00  0.00    -0.174 C  
HETATM   13  C   UNL     1      -8.497  13.056  68.069  1.00  0.00    -0.181 C  
BRANCH  13  14
HETATM   14  C   UNL     1      -8.068  14.387  67.764  1.00  0.00    -0.174 A  
HETATM   15  C   UNL     1      -9.002  15.422  67.633  1.00  0.00    -0.185 A  
HETATM   16  C   UNL     1      -8.612  16.764  67.394  1.00  0.00    -0.206 A  
HETATM   17  C   UNL     1      -7.236  17.026  67.240  1.00  0.00    -0.160 A  
HETATM   18  S   UNL     1      -6.515  18.632  66.935  1.00  0.00    -0.188 SA 
HETATM   19  C   UNL     1      -6.307  15.975  67.352  1.00  0.00    -0.206 A  
HETATM   20  C   UNL     1      -7.973  19.605  66.509  1.00  0.00    -0.304 C  
HETATM   21  C   UNL     1      -6.717  14.667  67.616  1.00  0.00    -0.196 A  
HETATM   22  C   UNL     1      -9.119  19.286  67.451  1.00  0.00    -0.345 C  
HETATM   23  C   UNL     1      -9.688  17.855  67.292  1.00  0.00    -0.289 C  
HETATM   24  C   UNL     1     -10.402  17.723  65.928  1.00  0.00    -0.257 C  
HETATM   25  C   UNL     1     -10.754  17.703  68.408  1.00  0.00    -0.246 C  
ENDBRANCH  13  14
ENDBRANCH   9  12
ENDBRANCH   4   6
ENDBRANCH   3   4
ENDBRANCH   2   3
TORSDOF 5
ENDMDL
MODEL       58
REMARK 921   NORMALIZED FREE ENERGY PREDICTED BY IDOCK:   -4.70 KCAL/MOL
REMARK 922        TOTAL FREE ENERGY PREDICTED BY IDOCK:   -6.39 KCAL/MOL
REMARK 923 INTER-LIGAND FREE ENERGY PREDICTED BY IDOCK:   -6.29 KCAL/MOL
REMARK 924 INTRA-LIGAND FREE ENERGY PREDICTED BY IDOCK:   -0.10 KCAL/MOL
REMARK 927      BINDING AFFINITY PREDICTED BY RF-SCORE:    0.00 PKD
ROOT
HETATM    1  C   UNL     1      -7.034   4.732  72.844  1.00  0.00    -0.076 C  
HETATM    2  C   UNL     1      -7.272   3.249  72.621  1.00  0.00    -0.048 C  
ENDROOT
BRANCH   2   3
HETATM    3  O   UNL     1      -8.596   2.943  73.085  1.00  0.00    -0.078 OA 
BRANCH   3   4
HETATM    4  C   UNL     1      -9.542   2.863  72.120  1.00  0.00    -0.140 C  
HETATM    5  O   UNL     1      -9.980   1.840  71.618  1.00  0.00    -0.148 OA 
BRANCH   4   6
HETATM    6  C   UNL     1     -10.115   4.199  71.849  1.00  0.00    -0.224 A  
HETATM    7  C   UNL     1      -9.699   5.002  70.792  1.00  0.00    -0.196 A  
HETATM    8  N   UNL     1     -10.116   6.281  70.602  1.00  0.00    -0.186 NA 
HETATM    9  C   UNL     1     -10.986   6.777  71.509  1.00  0.00    -0.240 A  
HETATM   10  C   UNL     1     -11.486   6.044  72.577  1.00  0.00    -0.336 A  
HETATM   11  C   UNL     1     -11.042   4.734  72.746  1.00  0.00    -0.248 A  
BRANCH   9  12
HETATM   12  C   UNL     1     -11.334   8.152  71.338  1.00  0.00    -0.299 C  
HETATM   13  C   UNL     1     -11.605   9.311  71.159  1.00  0.00    -0.397 C  
BRANCH  13  14
HETATM   14  C   UNL     1     -11.897  10.696  70.947  1.00  0.00    -0.433 A  
HETATM   15  C   UNL     1     -11.396  11.364  69.823  1.00  0.00    -0.332 A  
HETATM   16  C   UNL     1     -11.715  12.718  69.546  1.00  0.00    -0.383 A  
HETATM   17  C   UNL     1     -12.525  13.400  70.474  1.00  0.00    -0.279 A  
HETATM   18  S   UNL     1     -13.054  15.102  70.334  1.00  0.00    -0.111 SA 
HETATM   19  C   UNL     1     -13.006  12.726  71.612  1.00  0.00    -0.402 A  
HETATM   20  C   UNL     1     -11.987  15.700  69.008  1.00  0.00    -0.304 C  
HETATM   21  C   UNL     1     -12.699  11.385  71.846  1.00  0.00    -0.266 A  
HETATM   22  C   UNL     1     -11.903  14.679  67.890  1.00  0.00    -0.352 C  
HETATM   23  C   UNL     1     -11.155  13.379  68.277  1.00  0.00    -0.289 C  
HETATM   24  C   UNL     1      -9.655  13.682  68.494  1.00  0.00    -0.165 C  
HETATM   25  C   UNL     1     -11.283  12.442  67.048  1.00  0.00    -0.358 C  
ENDBRANCH  13  14
ENDBRANCH   9  12
ENDBRANCH   4   6
ENDBRANCH   3   4
ENDBRANCH   2   3
TORSDOF 5
ENDMDL
MODEL       59
REMARK 921   NORMALIZED FREE ENERGY PREDICTED BY IDOCK:   -4.69 KCAL/MOL
REMARK 922        TOTAL FREE ENERGY PREDICTED BY IDOCK:   -6.39 KCAL/MOL
REMARK 923 INTER-LIGAND FREE ENERGY PREDICTED BY IDOCK:   -5.91 KCAL/MOL
REMARK 924 INTRA-LIGAND FREE ENERGY PREDICTED BY IDOCK:   -0.48 KCAL/MOL
REMARK 927      BINDING AFFINITY PREDICTED BY RF-SCORE:    0.00 PKD
ROOT
HETATM    1  C   UNL     1     -12.477  11.912  63.171  1.00  0.00    -0.363 C  
HETATM    2  C   UNL     1     -12.149  13.363  63.479  1.00  0.00    -0.432 C  
ENDROOT
BRANCH   2   3
HETATM    3  O   UNL     1     -10.895  13.390  64.177  1.00  0.00    -0.390 OA 
BRANCH   3   4
HETATM    4  C   UNL     1     -10.898  14.080  65.344  1.00  0.00    -0.328 C  
HETATM    5  O   UNL     1     -11.231  15.244  65.495  1.00  0.00    -0.329 OA 
BRANCH   4   6
HETATM    6  C   UNL     1     -10.590  13.178  66.475  1.00  0.00    -0.290 A  
HETATM    7  C   UNL     1      -9.393  13.229  67.181  1.00  0.00    -0.240 A  
HETATM    8  N   UNL     1      -9.036  12.329  68.133  1.00  0.00    -0.193 NA 
HETATM    9  C   UNL     1      -9.915  11.335  68.390  1.00  0.00    -0.197 A  
HETATM   10  C   UNL     1     -11.149  11.219  67.764  1.00  0.00    -0.328 A  
HETATM   11  C   UNL     1     -11.490  12.157  66.792  1.00  0.00    -0.418 A  
BRANCH   9  12
HETATM   12  C   UNL     1      -9.474  10.353  69.328  1.00  0.00    -0.214 C  
HETATM   13  C   UNL     1      -9.141   9.519  70.131  1.00  0.00    -0.276 C  
BRANCH  13  14
HETATM   14  C   UNL     1      -8.758   8.546  71.107  1.00  0.00    -0.215 A  
HETATM   15  C   UNL     1      -9.449   7.333  71.211  1.00  0.00    -0.156 A  
HETATM   16  C   UNL     1      -9.060   6.318  72.122  1.00  0.00    -0.141 A  
HETATM   17  C   UNL     1      -7.969   6.588  72.971  1.00  0.00    -0.104 A  
HETATM   18  S   UNL     1      -7.303   5.465  74.192  1.00  0.00    -0.090 SA 
HETATM   19  C   UNL     1      -7.294   7.819  72.875  1.00  0.00    -0.106 A  
HETATM   20  C   UNL     1      -8.597   4.210  74.267  1.00  0.00    -0.096 C  
HETATM   21  C   UNL     1      -7.681   8.789  71.949  1.00  0.00    -0.058 A  
HETATM   22  C   UNL     1      -9.078   3.857  72.873  1.00  0.00    -0.122 C  
HETATM   23  C   UNL     1      -9.845   4.998  72.160  1.00  0.00    -0.220 C  
HETATM   24  C   UNL     1     -11.196   5.243  72.869  1.00  0.00    -0.375 C  
HETATM   25  C   UNL     1     -10.140   4.475  70.731  1.00  0.00    -0.233 C  
ENDBRANCH  13  14
ENDBRANCH   9  12
ENDBRANCH   4   6
ENDBRANCH   3   4
ENDBRANCH   2   3
TORSDOF 5
ENDMDL
MODEL       60
REMARK 921   NORMALIZED FREE ENERGY PREDICTED BY IDOCK:   -4.69 KCAL/MOL
REMARK 922        TOTAL FREE ENERGY PREDICTED BY IDOCK:   -6.39 KCAL/MOL
REMARK 923 INTER-LIGAND FREE ENERGY PREDICTED BY IDOCK:   -6.12 KCAL/MOL
REMARK 924 INTRA-LIGAND FREE ENERGY PREDICTED BY IDOCK:   -0.27 KCAL/MOL
REMARK 927      BINDING AFFINITY PREDICTED BY RF-SCORE:    0.00 PKD
ROOT
HETATM    1  C   UNL     1      -8.170  19.983  67.776  1.00  0.00    -0.330 C  
HETATM    2  C   UNL     1      -7.854  18.794  66.885  1.00  0.00    -0.242 C  
ENDROOT
BRANCH   2   3
HETATM    3  O   UNL     1      -8.978  18.585  66.018  1.00  0.00    -0.491 OA 
BRANCH   3   4
HETATM    4  C   UNL     1     -10.119  18.192  66.635  1.00  0.00    -0.373 C  
HETATM    5  O   UNL     1     -10.999  18.921  67.061  1.00  0.00    -0.373 OA 
BRANCH   4   6
HETATM    6  C   UNL     1     -10.247  16.720  66.587  1.00  0.00    -0.310 A  
HETATM    7  C   UNL     1     -10.137  15.912  67.715  1.00  0.00    -0.244 A  
HETATM    8  N   UNL     1     -10.121  14.555  67.676  1.00  0.00    -0.228 NA 
HETATM    9  C   UNL     1     -10.220  13.981  66.457  1.00  0.00    -0.279 A  
HETATM   10  C   UNL     1     -10.369  14.699  65.278  1.00  0.00    -0.425 A  
HETATM   11  C   UNL     1     -10.383  16.090  65.348  1.00  0.00    -0.386 A  
BRANCH   9  12
HETATM   12  C   UNL     1     -10.107  12.557  66.438  1.00  0.00    -0.255 C  
HETATM   13  C   UNL     1     -10.012  11.357  66.464  1.00  0.00    -0.243 C  
BRANCH  13  14
HETATM   14  C   UNL     1      -9.874   9.933  66.510  1.00  0.00    -0.274 A  
HETATM   15  C   UNL     1      -8.912   9.287  65.725  1.00  0.00    -0.234 A  
HETATM   16  C   UNL     1      -8.702   7.886  65.791  1.00  0.00    -0.163 A  
HETATM   17  C   UNL     1      -9.535   7.141  66.648  1.00  0.00    -0.170 A  
HETATM   18  S   UNL     1      -9.454   5.372  66.893  1.00  0.00    -0.145 SA 
HETATM   19  C   UNL     1     -10.514   7.797  67.417  1.00  0.00    -0.362 A  
HETATM   20  C   UNL     1      -8.383   4.871  65.530  1.00  0.00    -0.123 C  
HETATM   21  C   UNL     1     -10.681   9.181  67.353  1.00  0.00    -0.247 A  
HETATM   22  C   UNL     1      -7.213   5.825  65.394  1.00  0.00    -0.070 C  
HETATM   23  C   UNL     1      -7.607   7.247  64.923  1.00  0.00    -0.102 C  
HETATM   24  C   UNL     1      -8.099   7.196  63.459  1.00  0.00     0.001 C  
HETATM   25  C   UNL     1      -6.299   8.078  64.962  1.00  0.00    -0.048 C  
ENDBRANCH  13  14
ENDBRANCH   9  12
ENDBRANCH   4   6
ENDBRANCH   3   4
ENDBRANCH   2   3
TORSDOF 5
ENDMDL
MODEL       61
REMARK 921   NORMALIZED FREE ENERGY PREDICTED BY IDOCK:   -4.67 KCAL/MOL
REMARK 922        TOTAL FREE ENERGY PREDICTED BY IDOCK:   -6.36 KCAL/MOL
REMARK 923 INTER-LIGAND FREE ENERGY PREDICTED BY IDOCK:   -5.93 KCAL/MOL
REMARK 924 INTRA-LIGAND FREE ENERGY PREDICTED BY IDOCK:   -0.43 KCAL/MOL
REMARK 927      BINDING AFFINITY PREDICTED BY RF-SCORE:    0.00 PKD
ROOT
HETATM    1  C   UNL     1     -10.205   4.435  65.453  1.00  0.00    -0.247 C  
HETATM    2  C   UNL     1     -10.088   4.981  66.865  1.00  0.00    -0.228 C  
ENDROOT
BRANCH   2   3
HETATM    3  O   UNL     1     -10.953   6.122  66.967  1.00  0.00    -0.340 OA 
BRANCH   3   4
HETATM    4  C   UNL     1     -11.003   6.701  68.191  1.00  0.00    -0.243 C  
HETATM    5  O   UNL     1     -11.423   6.192  69.217  1.00  0.00    -0.404 OA 
BRANCH   4   6
HETATM    6  C   UNL     1     -10.319   8.013  68.166  1.00  0.00    -0.250 A  
HETATM    7  C   UNL     1      -9.645   8.537  69.264  1.00  0.00    -0.170 A  
HETATM    8  N   UNL     1      -9.124   9.791  69.306  1.00  0.00    -0.172 NA 
HETATM    9  C   UNL     1      -9.284  10.552  68.201  1.00  0.00    -0.148 A  
HETATM   10  C   UNL     1      -9.909  10.107  67.044  1.00  0.00    -0.238 A  
HETATM   11  C   UNL     1     -10.434   8.816  67.029  1.00  0.00    -0.338 A  
BRANCH   9  12
HETATM   12  C   UNL     1      -8.809  11.895  68.307  1.00  0.00    -0.174 C  
HETATM   13  C   UNL     1      -8.397  13.019  68.435  1.00  0.00    -0.118 C  
BRANCH  13  14
HETATM   14  C   UNL     1      -7.928  14.360  68.611  1.00  0.00    -0.145 A  
HETATM   15  C   UNL     1      -8.677  15.442  68.134  1.00  0.00    -0.161 A  
HETATM   16  C   UNL     1      -8.277  16.787  68.344  1.00  0.00    -0.224 A  
HETATM   17  C   UNL     1      -7.059  17.007  69.016  1.00  0.00    -0.233 A  
HETATM   18  S   UNL     1      -6.358  18.608  69.393  1.00  0.00    -0.245 SA 
HETATM   19  C   UNL     1      -6.303  15.912  69.473  1.00  0.00    -0.173 A  
HETATM   20  C   UNL     1      -7.378  19.693  68.375  1.00  0.00    -0.319 C  
HETATM   21  C   UNL     1      -6.734  14.599  69.277  1.00  0.00    -0.134 A  
HETATM   22  C   UNL     1      -8.838  19.295  68.469  1.00  0.00    -0.411 C  
HETATM   23  C   UNL     1      -9.163  17.927  67.820  1.00  0.00    -0.258 C  
HETATM   24  C   UNL     1      -8.997  18.021  66.287  1.00  0.00    -0.194 C  
HETATM   25  C   UNL     1     -10.661  17.664  68.125  1.00  0.00    -0.359 C  
ENDBRANCH  13  14
ENDBRANCH   9  12
ENDBRANCH   4   6
ENDBRANCH   3   4
ENDBRANCH   2   3
TORSDOF 5
ENDMDL
MODEL       62
REMARK 921   NORMALIZED FREE ENERGY PREDICTED BY IDOCK:   -4.67 KCAL/MOL
REMARK 922        TOTAL FREE ENERGY PREDICTED BY IDOCK:   -6.36 KCAL/MOL
REMARK 923 INTER-LIGAND FREE ENERGY PREDICTED BY IDOCK:   -6.00 KCAL/MOL
REMARK 924 INTRA-LIGAND FREE ENERGY PREDICTED BY IDOCK:   -0.36 KCAL/MOL
REMARK 927      BINDING AFFINITY PREDICTED BY RF-SCORE:    0.00 PKD
ROOT
HETATM    1  C   UNL     1     -11.785  15.776  70.624  1.00  0.00    -0.412 C  
HETATM    2  C   UNL     1     -10.874  16.035  69.436  1.00  0.00    -0.300 C  
ENDROOT
BRANCH   2   3
HETATM    3  O   UNL     1     -11.670  15.945  68.245  1.00  0.00    -0.327 OA 
BRANCH   3   4
HETATM    4  C   UNL     1     -11.105  15.257  67.223  1.00  0.00    -0.325 C  
HETATM    5  O   UNL     1     -10.668  15.729  66.187  1.00  0.00    -0.316 OA 
BRANCH   4   6
HETATM    6  C   UNL     1     -10.934  13.835  67.594  1.00  0.00    -0.278 A  
HETATM    7  C   UNL     1     -12.004  12.980  67.836  1.00  0.00    -0.291 A  
HETATM    8  N   UNL     1     -11.870  11.712  68.303  1.00  0.00    -0.516 NA 
HETATM    9  C   UNL     1     -10.612  11.281  68.539  1.00  0.00    -0.199 A  
HETATM   10  C   UNL     1      -9.479  12.046  68.296  1.00  0.00    -0.199 A  
HETATM   11  C   UNL     1      -9.646  13.343  67.815  1.00  0.00    -0.213 A  
BRANCH   9  12
HETATM   12  C   UNL     1     -10.507   9.979  69.116  1.00  0.00    -0.238 C  
HETATM   13  C   UNL     1     -10.384   8.894  69.624  1.00  0.00    -0.214 C  
BRANCH  13  14
HETATM   14  C   UNL     1     -10.211   7.602  70.215  1.00  0.00    -0.205 A  
HETATM   15  C   UNL     1      -9.463   7.452  71.389  1.00  0.00    -0.160 A  
HETATM   16  C   UNL     1      -9.322   6.199  72.039  1.00  0.00    -0.154 A  
HETATM   17  C   UNL     1      -9.924   5.080  71.433  1.00  0.00    -0.193 A  
HETATM   18  S   UNL     1      -9.880   3.409  72.068  1.00  0.00    -0.157 SA 
HETATM   19  C   UNL     1     -10.656   5.237  70.241  1.00  0.00    -0.288 A  
HETATM   20  C   UNL     1      -8.606   3.543  73.339  1.00  0.00    -0.086 C  
HETATM   21  C   UNL     1     -10.802   6.486  69.638  1.00  0.00    -0.359 A  
HETATM   22  C   UNL     1      -8.787   4.817  74.142  1.00  0.00    -0.113 C  
HETATM   23  C   UNL     1      -8.512   6.114  73.341  1.00  0.00    -0.119 C  
HETATM   24  C   UNL     1      -7.008   6.209  73.000  1.00  0.00    -0.079 C  
HETATM   25  C   UNL     1      -8.862   7.280  74.301  1.00  0.00    -0.254 C  
ENDBRANCH  13  14
ENDBRANCH   9  12
ENDBRANCH   4   6
ENDBRANCH   3   4
ENDBRANCH   2   3
TORSDOF 5
ENDMDL
MODEL       63
REMARK 921   NORMALIZED FREE ENERGY PREDICTED BY IDOCK:   -4.64 KCAL/MOL
REMARK 922        TOTAL FREE ENERGY PREDICTED BY IDOCK:   -6.32 KCAL/MOL
REMARK 923 INTER-LIGAND FREE ENERGY PREDICTED BY IDOCK:   -5.93 KCAL/MOL
REMARK 924 INTRA-LIGAND FREE ENERGY PREDICTED BY IDOCK:   -0.39 KCAL/MOL
REMARK 927      BINDING AFFINITY PREDICTED BY RF-SCORE:    0.00 PKD
ROOT
HETATM    1  C   UNL     1     -10.601   5.660  71.361  1.00  0.00    -0.317 C  
HETATM    2  C   UNL     1     -10.520   5.469  69.856  1.00  0.00    -0.316 C  
ENDROOT
BRANCH   2   3
HETATM    3  O   UNL     1     -11.173   6.587  69.236  1.00  0.00    -0.328 OA 
BRANCH   3   4
HETATM    4  C   UNL     1     -10.764   6.869  67.976  1.00  0.00    -0.218 C  
HETATM    5  O   UNL     1     -10.993   6.208  66.976  1.00  0.00    -0.340 OA 
BRANCH   4   6
HETATM    6  C   UNL     1     -10.121   8.199  67.931  1.00  0.00    -0.246 A  
HETATM    7  C   UNL     1      -9.058   8.556  68.754  1.00  0.00    -0.143 A  
HETATM    8  N   UNL     1      -8.539   9.809  68.821  1.00  0.00    -0.122 NA 
HETATM    9  C   UNL     1      -9.107  10.746  68.030  1.00  0.00    -0.150 A  
HETATM   10  C   UNL     1     -10.147  10.480  67.150  1.00  0.00    -0.253 A  
HETATM   11  C   UNL     1     -10.660   9.185  67.101  1.00  0.00    -0.286 A  
BRANCH   9  12
HETATM   12  C   UNL     1      -8.603  12.072  68.190  1.00  0.00    -0.173 C  
HETATM   13  C   UNL     1      -8.184  13.188  68.365  1.00  0.00    -0.130 C  
BRANCH  13  14
HETATM   14  C   UNL     1      -7.713  14.521  68.586  1.00  0.00    -0.137 A  
HETATM   15  C   UNL     1      -8.472  15.621  68.169  1.00  0.00    -0.147 A  
HETATM   16  C   UNL     1      -8.070  16.956  68.426  1.00  0.00    -0.237 A  
HETATM   17  C   UNL     1      -6.838  17.151  69.082  1.00  0.00    -0.236 A  
HETATM   18  S   UNL     1      -6.132  18.736  69.510  1.00  0.00    -0.264 SA 
HETATM   19  C   UNL     1      -6.072  16.039  69.478  1.00  0.00    -0.161 A  
HETATM   20  C   UNL     1      -7.173  19.861  68.558  1.00  0.00    -0.296 C  
HETATM   21  C   UNL     1      -6.506  14.735  69.237  1.00  0.00    -0.121 A  
HETATM   22  C   UNL     1      -8.630  19.456  68.665  1.00  0.00    -0.394 C  
HETATM   23  C   UNL     1      -8.967  18.115  67.967  1.00  0.00    -0.289 C  
HETATM   24  C   UNL     1      -8.832  18.273  66.436  1.00  0.00    -0.256 C  
HETATM   25  C   UNL     1     -10.458  17.838  68.291  1.00  0.00    -0.368 C  
ENDBRANCH  13  14
ENDBRANCH   9  12
ENDBRANCH   4   6
ENDBRANCH   3   4
ENDBRANCH   2   3
TORSDOF 5
ENDMDL
MODEL       64
REMARK 921   NORMALIZED FREE ENERGY PREDICTED BY IDOCK:   -4.59 KCAL/MOL
REMARK 922        TOTAL FREE ENERGY PREDICTED BY IDOCK:   -6.26 KCAL/MOL
REMARK 923 INTER-LIGAND FREE ENERGY PREDICTED BY IDOCK:   -5.88 KCAL/MOL
REMARK 924 INTRA-LIGAND FREE ENERGY PREDICTED BY IDOCK:   -0.38 KCAL/MOL
REMARK 927      BINDING AFFINITY PREDICTED BY RF-SCORE:    0.00 PKD
ROOT
HETATM    1  C   UNL     1     -10.907   5.811  70.179  1.00  0.00    -0.383 C  
HETATM    2  C   UNL     1      -9.890   6.763  69.574  1.00  0.00    -0.157 C  
ENDROOT
BRANCH   2   3
HETATM    3  O   UNL     1     -10.595   7.931  69.127  1.00  0.00    -0.219 OA 
BRANCH   3   4
HETATM    4  C   UNL     1     -10.362   8.291  67.842  1.00  0.00    -0.219 C  
HETATM    5  O   UNL     1     -10.709   7.680  66.845  1.00  0.00    -0.351 OA 
BRANCH   4   6
HETATM    6  C   UNL     1      -9.753   9.638  67.788  1.00  0.00    -0.173 A  
HETATM    7  C   UNL     1      -8.731  10.043  68.640  1.00  0.00    -0.127 A  
HETATM    8  N   UNL     1      -8.249  11.311  68.696  1.00  0.00    -0.149 NA 
HETATM    9  C   UNL     1      -8.813  12.213  67.864  1.00  0.00    -0.177 A  
HETATM   10  C   UNL     1      -9.813  11.899  66.953  1.00  0.00    -0.217 A  
HETATM   11  C   UNL     1     -10.288  10.589  66.917  1.00  0.00    -0.293 A  
BRANCH   9  12
HETATM   12  C   UNL     1      -8.351  13.556  68.009  1.00  0.00    -0.168 C  
HETATM   13  C   UNL     1      -7.929  14.675  68.153  1.00  0.00    -0.136 C  
BRANCH  13  14
HETATM   14  C   UNL     1      -7.429  16.001  68.355  1.00  0.00    -0.143 A  
HETATM   15  C   UNL     1      -7.734  17.021  67.446  1.00  0.00    -0.192 A  
HETATM   16  C   UNL     1      -7.309  18.360  67.645  1.00  0.00    -0.219 A  
HETATM   17  C   UNL     1      -6.517  18.631  68.778  1.00  0.00    -0.245 A  
HETATM   18  S   UNL     1      -5.871  20.235  69.230  1.00  0.00    -0.343 SA 
HETATM   19  C   UNL     1      -6.198  17.594  69.673  1.00  0.00    -0.220 A  
HETATM   20  C   UNL     1      -6.167  21.179  67.722  1.00  0.00    -0.361 C  
HETATM   21  C   UNL     1      -6.652  16.290  69.468  1.00  0.00    -0.202 A  
HETATM   22  C   UNL     1      -7.546  20.877  67.167  1.00  0.00    -0.295 C  
HETATM   23  C   UNL     1      -7.706  19.435  66.623  1.00  0.00    -0.280 C  
HETATM   24  C   UNL     1      -6.847  19.256  65.352  1.00  0.00    -0.255 C  
HETATM   25  C   UNL     1      -9.198  19.306  66.217  1.00  0.00    -0.362 C  
ENDBRANCH  13  14
ENDBRANCH   9  12
ENDBRANCH   4   6
ENDBRANCH   3   4
ENDBRANCH   2   3
TORSDOF 5
ENDMDL
MODEL       65
REMARK 921   NORMALIZED FREE ENERGY PREDICTED BY IDOCK:   -4.59 KCAL/MOL
REMARK 922        TOTAL FREE ENERGY PREDICTED BY IDOCK:   -6.26 KCAL/MOL
REMARK 923 INTER-LIGAND FREE ENERGY PREDICTED BY IDOCK:   -5.85 KCAL/MOL
REMARK 924 INTRA-LIGAND FREE ENERGY PREDICTED BY IDOCK:   -0.41 KCAL/MOL
REMARK 927      BINDING AFFINITY PREDICTED BY RF-SCORE:    0.00 PKD
ROOT
HETATM    1  C   UNL     1      -9.477   3.865  66.932  1.00  0.00    -0.225 C  
HETATM    2  C   UNL     1      -8.946   5.272  67.146  1.00  0.00    -0.112 C  
ENDROOT
BRANCH   2   3
HETATM    3  O   UNL     1      -9.117   5.599  68.533  1.00  0.00    -0.114 OA 
BRANCH   3   4
HETATM    4  C   UNL     1     -10.252   6.276  68.831  1.00  0.00    -0.181 C  
HETATM    5  O   UNL     1     -11.268   5.807  69.318  1.00  0.00    -0.300 OA 
BRANCH   4   6
HETATM    6  C   UNL     1     -10.051   7.728  68.635  1.00  0.00    -0.211 A  
HETATM    7  C   UNL     1      -9.404   8.536  69.565  1.00  0.00    -0.161 A  
HETATM    8  N   UNL     1      -9.324   9.888  69.468  1.00  0.00    -0.207 NA 
HETATM    9  C   UNL     1      -9.915  10.456  68.394  1.00  0.00    -0.162 A  
HETATM   10  C   UNL     1     -10.553   9.734  67.395  1.00  0.00    -0.330 A  
HETATM   11  C   UNL     1     -10.619   8.348  67.520  1.00  0.00    -0.285 A  
BRANCH   9  12
HETATM   12  C   UNL     1      -9.895  11.884  68.366  1.00  0.00    -0.201 C  
HETATM   13  C   UNL     1      -9.918  13.088  68.354  1.00  0.00    -0.216 C  
BRANCH  13  14
HETATM   14  C   UNL     1      -9.968  14.518  68.318  1.00  0.00    -0.229 A  
HETATM   15  C   UNL     1      -8.795  15.266  68.159  1.00  0.00    -0.171 A  
HETATM   16  C   UNL     1      -8.811  16.681  68.056  1.00  0.00    -0.206 A  
HETATM   17  C   UNL     1     -10.057  17.328  68.168  1.00  0.00    -0.325 A  
HETATM   18  S   UNL     1     -10.319  19.094  68.069  1.00  0.00    -0.375 SA 
HETATM   19  C   UNL     1     -11.227  16.569  68.349  1.00  0.00    -0.280 A  
HETATM   20  C   UNL     1      -8.630  19.714  68.198  1.00  0.00    -0.317 C  
HETATM   21  C   UNL     1     -11.186  15.176  68.420  1.00  0.00    -0.307 A  
HETATM   22  C   UNL     1      -7.691  18.885  67.344  1.00  0.00    -0.247 C  
HETATM   23  C   UNL     1      -7.489  17.436  67.851  1.00  0.00    -0.195 C  
HETATM   24  C   UNL     1      -6.713  17.451  69.187  1.00  0.00    -0.243 C  
HETATM   25  C   UNL     1      -6.600  16.740  66.788  1.00  0.00    -0.247 C  
ENDBRANCH  13  14
ENDBRANCH   9  12
ENDBRANCH   4   6
ENDBRANCH   3   4
ENDBRANCH   2   3
TORSDOF 5
ENDMDL
MODEL       66
REMARK 921   NORMALIZED FREE ENERGY PREDICTED BY IDOCK:   -4.58 KCAL/MOL
REMARK 922        TOTAL FREE ENERGY PREDICTED BY IDOCK:   -6.24 KCAL/MOL
REMARK 923 INTER-LIGAND FREE ENERGY PREDICTED BY IDOCK:   -5.74 KCAL/MOL
REMARK 924 INTRA-LIGAND FREE ENERGY PREDICTED BY IDOCK:   -0.50 KCAL/MOL
REMARK 927      BINDING AFFINITY PREDICTED BY RF-SCORE:    0.00 PKD
ROOT
HETATM    1  C   UNL     1      -9.308  15.567  66.322  1.00  0.00    -0.355 C  
HETATM    2  C   UNL     1     -10.624  15.998  65.696  1.00  0.00    -0.377 C  
ENDROOT
BRANCH   2   3
HETATM    3  O   UNL     1     -10.907  15.102  64.610  1.00  0.00    -0.377 OA 
BRANCH   3   4
HETATM    4  C   UNL     1     -11.867  14.180  64.858  1.00  0.00    -0.402 C  
HETATM    5  O   UNL     1     -13.072  14.373  64.864  1.00  0.00    -0.593 OA 
BRANCH   4   6
HETATM    6  C   UNL     1     -11.269  12.832  64.968  1.00  0.00    -0.333 A  
HETATM    7  C   UNL     1     -11.089  12.179  66.182  1.00  0.00    -0.312 A  
HETATM    8  N   UNL     1     -10.425  11.002  66.319  1.00  0.00    -0.255 NA 
HETATM    9  C   UNL     1      -9.920  10.455  65.192  1.00  0.00    -0.322 A  
HETATM   10  C   UNL     1     -10.077  11.011  63.930  1.00  0.00    -0.414 A  
HETATM   11  C   UNL     1     -10.763  12.218  63.819  1.00  0.00    -0.494 A  
BRANCH   9  12
HETATM   12  C   UNL     1      -9.148   9.268  65.378  1.00  0.00    -0.277 C  
HETATM   13  C   UNL     1      -8.532   8.247  65.548  1.00  0.00    -0.177 C  
BRANCH  13  14
HETATM   14  C   UNL     1      -7.808   7.035  65.779  1.00  0.00    -0.109 A  
HETATM   15  C   UNL     1      -8.476   5.806  65.826  1.00  0.00    -0.143 A  
HETATM   16  C   UNL     1      -7.786   4.577  65.990  1.00  0.00    -0.095 A  
HETATM   17  C   UNL     1      -6.389   4.632  66.156  1.00  0.00    -0.036 A  
HETATM   18  S   UNL     1      -5.316   3.220  66.378  1.00  0.00    -0.013 SA 
HETATM   19  C   UNL     1      -5.728   5.874  66.130  1.00  0.00    -0.013 A  
HETATM   20  C   UNL     1      -6.511   1.910  66.711  1.00  0.00    -0.027 C  
HETATM   21  C   UNL     1      -6.429   7.066  65.939  1.00  0.00    -0.051 A  
HETATM   22  C   UNL     1      -7.693   2.015  65.767  1.00  0.00    -0.072 C  
HETATM   23  C   UNL     1      -8.581   3.263  66.002  1.00  0.00    -0.120 C  
HETATM   24  C   UNL     1      -9.314   3.137  67.356  1.00  0.00    -0.232 C  
HETATM   25  C   UNL     1      -9.645   3.237  64.874  1.00  0.00    -0.140 C  
ENDBRANCH  13  14
ENDBRANCH   9  12
ENDBRANCH   4   6
ENDBRANCH   3   4
ENDBRANCH   2   3
TORSDOF 5
ENDMDL
MODEL       67
REMARK 921   NORMALIZED FREE ENERGY PREDICTED BY IDOCK:   -4.47 KCAL/MOL
REMARK 922        TOTAL FREE ENERGY PREDICTED BY IDOCK:   -6.10 KCAL/MOL
REMARK 923 INTER-LIGAND FREE ENERGY PREDICTED BY IDOCK:   -5.68 KCAL/MOL
REMARK 924 INTRA-LIGAND FREE ENERGY PREDICTED BY IDOCK:   -0.42 KCAL/MOL
REMARK 927      BINDING AFFINITY PREDICTED BY RF-SCORE:    0.00 PKD
ROOT
HETATM    1  C   UNL     1     -10.346  20.297  66.517  1.00  0.00    -0.420 C  
HETATM    2  C   UNL     1      -8.988  19.616  66.558  1.00  0.00    -0.369 C  
ENDROOT
BRANCH   2   3
HETATM    3  O   UNL     1      -9.110  18.354  65.886  1.00  0.00    -0.488 OA 
BRANCH   3   4
HETATM    4  C   UNL     1      -7.986  17.599  65.866  1.00  0.00    -0.042 C  
HETATM    5  O   UNL     1      -6.887  17.947  65.466  1.00  0.00    -0.417 OA 
BRANCH   4   6
HETATM    6  C   UNL     1      -8.219  16.312  66.556  1.00  0.00    -0.344 A  
HETATM    7  C   UNL     1      -7.274  15.711  67.381  1.00  0.00    -0.208 A  
HETATM    8  N   UNL     1      -7.414  14.471  67.918  1.00  0.00    -0.133 NA 
HETATM    9  C   UNL     1      -8.550  13.805  67.617  1.00  0.00    -0.187 A  
HETATM   10  C   UNL     1      -9.567  14.332  66.833  1.00  0.00    -0.268 A  
HETATM   11  C   UNL     1      -9.397  15.606  66.296  1.00  0.00    -0.358 A  
BRANCH   9  12
HETATM   12  C   UNL     1      -8.630  12.470  68.119  1.00  0.00    -0.189 C  
HETATM   13  C   UNL     1      -8.670  11.332  68.513  1.00  0.00    -0.156 C  
BRANCH  13  14
HETATM   14  C   UNL     1      -8.728   9.972  68.952  1.00  0.00    -0.146 A  
HETATM   15  C   UNL     1      -9.064   8.949  68.058  1.00  0.00    -0.143 A  
HETATM   16  C   UNL     1      -9.070   7.584  68.440  1.00  0.00    -0.133 A  
HETATM   17  C   UNL     1      -8.770   7.281  69.782  1.00  0.00    -0.142 A  
HETATM   18  S   UNL     1      -8.717   5.640  70.488  1.00  0.00    -0.139 SA 
HETATM   19  C   UNL     1      -8.454   8.318  70.680  1.00  0.00    -0.131 A  
HETATM   20  C   UNL     1      -9.500   4.666  69.187  1.00  0.00    -0.157 C  
HETATM   21  C   UNL     1      -8.429   9.652  70.270  1.00  0.00    -0.221 A  
HETATM   22  C   UNL     1      -8.986   5.086  67.824  1.00  0.00    -0.117 C  
HETATM   23  C   UNL     1      -9.420   6.511  67.397  1.00  0.00    -0.135 C  
HETATM   24  C   UNL     1     -10.944   6.541  67.144  1.00  0.00    -0.480 C  
HETATM   25  C   UNL     1      -8.703   6.780  66.049  1.00  0.00    -0.155 C  
ENDBRANCH  13  14
ENDBRANCH   9  12
ENDBRANCH   4   6
ENDBRANCH   3   4
ENDBRANCH   2   3
TORSDOF 5
ENDMDL
MODEL       68
REMARK 921   NORMALIZED FREE ENERGY PREDICTED BY IDOCK:   -4.42 KCAL/MOL
REMARK 922        TOTAL FREE ENERGY PREDICTED BY IDOCK:   -6.04 KCAL/MOL
REMARK 923 INTER-LIGAND FREE ENERGY PREDICTED BY IDOCK:   -5.74 KCAL/MOL
REMARK 924 INTRA-LIGAND FREE ENERGY PREDICTED BY IDOCK:   -0.29 KCAL/MOL
REMARK 927      BINDING AFFINITY PREDICTED BY RF-SCORE:    0.00 PKD
ROOT
HETATM    1  C   UNL     1     -11.489  15.975  71.239  1.00  0.00    -0.475 C  
HETATM    2  C   UNL     1     -12.261  15.030  70.335  1.00  0.00    -0.341 C  
ENDROOT
BRANCH   2   3
HETATM    3  O   UNL     1     -12.475  15.697  69.082  1.00  0.00    -0.126 OA 
BRANCH   3   4
HETATM    4  C   UNL     1     -11.433  15.651  68.218  1.00  0.00    -0.350 C  
HETATM    5  O   UNL     1     -10.749  16.594  67.857  1.00  0.00    -0.336 OA 
BRANCH   4   6
HETATM    6  C   UNL     1     -11.113  14.248  67.874  1.00  0.00    -0.293 A  
HETATM    7  C   UNL     1     -12.081  13.315  67.520  1.00  0.00    -0.264 A  
HETATM    8  N   UNL     1     -11.826  11.994  67.328  1.00  0.00    -0.598 NA 
HETATM    9  C   UNL     1     -10.548  11.591  67.497  1.00  0.00    -0.206 A  
HETATM   10  C   UNL     1      -9.506  12.452  67.815  1.00  0.00    -0.199 A  
HETATM   11  C   UNL     1      -9.796  13.801  68.005  1.00  0.00    -0.239 A  
BRANCH   9  12
HETATM   12  C   UNL     1     -10.327  10.185  67.381  1.00  0.00    -0.289 C  
HETATM   13  C   UNL     1     -10.130   8.998  67.322  1.00  0.00    -0.297 C  
BRANCH  13  14
HETATM   14  C   UNL     1      -9.868   7.593  67.262  1.00  0.00    -0.245 A  
HETATM   15  C   UNL     1      -8.586   7.098  67.527  1.00  0.00    -0.122 A  
HETATM   16  C   UNL     1      -8.301   5.708  67.540  1.00  0.00    -0.100 A  
HETATM   17  C   UNL     1      -9.352   4.825  67.225  1.00  0.00    -0.136 A  
HETATM   18  S   UNL     1      -9.229   3.042  67.179  1.00  0.00    -0.147 SA 
HETATM   19  C   UNL     1     -10.633   5.334  66.939  1.00  0.00    -0.283 A  
HETATM   20  C   UNL     1      -7.441   2.806  67.235  1.00  0.00    -0.065 C  
HETATM   21  C   UNL     1     -10.891   6.705  66.961  1.00  0.00    -0.467 A  
HETATM   22  C   UNL     1      -6.812   3.735  68.255  1.00  0.00    -0.047 C  
HETATM   23  C   UNL     1      -6.878   5.234  67.869  1.00  0.00    -0.060 C  
HETATM   24  C   UNL     1      -5.969   5.501  66.649  1.00  0.00    -0.019 C  
HETATM   25  C   UNL     1      -6.293   6.003  69.082  1.00  0.00    -0.041 C  
ENDBRANCH  13  14
ENDBRANCH   9  12
ENDBRANCH   4   6
ENDBRANCH   3   4
ENDBRANCH   2   3
TORSDOF 5
ENDMDL
MODEL       69
REMARK 921   NORMALIZED FREE ENERGY PREDICTED BY IDOCK:   -4.40 KCAL/MOL
REMARK 922        TOTAL FREE ENERGY PREDICTED BY IDOCK:   -6.01 KCAL/MOL
REMARK 923 INTER-LIGAND FREE ENERGY PREDICTED BY IDOCK:   -5.61 KCAL/MOL
REMARK 924 INTRA-LIGAND FREE ENERGY PREDICTED BY IDOCK:   -0.40 KCAL/MOL
REMARK 927      BINDING AFFINITY PREDICTED BY RF-SCORE:    0.00 PKD
ROOT
HETATM    1  C   UNL     1      -8.816  20.149  66.890  1.00  0.00    -0.426 C  
HETATM    2  C   UNL     1      -9.753  18.969  66.703  1.00  0.00    -0.341 C  
ENDROOT
BRANCH   2   3
HETATM    3  O   UNL     1      -9.155  17.829  67.338  1.00  0.00    -0.241 OA 
BRANCH   3   4
HETATM    4  C   UNL     1      -9.775  17.403  68.465  1.00  0.00    -0.304 C  
HETATM    5  O   UNL     1     -10.390  18.096  69.259  1.00  0.00    -0.235 OA 
BRANCH   4   6
HETATM    6  C   UNL     1      -9.750  15.926  68.538  1.00  0.00    -0.211 A  
HETATM    7  C   UNL     1      -8.676  15.163  68.092  1.00  0.00    -0.167 A  
HETATM    8  N   UNL     1      -8.685  13.806  68.028  1.00  0.00    -0.172 NA 
HETATM    9  C   UNL     1      -9.817  13.187  68.429  1.00  0.00    -0.206 A  
HETATM   10  C   UNL     1     -10.928  13.858  68.924  1.00  0.00    -0.290 A  
HETATM   11  C   UNL     1     -10.890  15.250  68.978  1.00  0.00    -0.244 A  
BRANCH   9  12
HETATM   12  C   UNL     1      -9.832  11.768  68.265  1.00  0.00    -0.198 C  
HETATM   13  C   UNL     1      -9.834  10.568  68.166  1.00  0.00    -0.169 C  
BRANCH  13  14
HETATM   14  C   UNL     1      -9.807   9.141  68.057  1.00  0.00    -0.197 A  
HETATM   15  C   UNL     1      -9.664   8.344  69.199  1.00  0.00    -0.171 A  
HETATM   16  C   UNL     1      -9.696   6.927  69.138  1.00  0.00    -0.155 A  
HETATM   17  C   UNL     1      -9.829   6.332  67.869  1.00  0.00    -0.124 A  
HETATM   18  S   UNL     1      -9.893   4.574  67.550  1.00  0.00    -0.102 SA 
HETATM   19  C   UNL     1      -9.949   7.142  66.725  1.00  0.00    -0.278 A  
HETATM   20  C   UNL     1      -9.362   3.903  69.139  1.00  0.00    -0.170 C  
HETATM   21  C   UNL     1      -9.942   8.534  66.816  1.00  0.00    -0.351 A  
HETATM   22  C   UNL     1     -10.029   4.645  70.280  1.00  0.00    -0.309 C  
HETATM   23  C   UNL     1      -9.565   6.115  70.435  1.00  0.00    -0.188 C  
HETATM   24  C   UNL     1      -8.092   6.153  70.900  1.00  0.00    -0.121 C  
HETATM   25  C   UNL     1     -10.441   6.713  71.567  1.00  0.00    -0.242 C  
ENDBRANCH  13  14
ENDBRANCH   9  12
ENDBRANCH   4   6
ENDBRANCH   3   4
ENDBRANCH   2   3
TORSDOF 5
ENDMDL
MODEL       70
REMARK 921   NORMALIZED FREE ENERGY PREDICTED BY IDOCK:   -4.38 KCAL/MOL
REMARK 922        TOTAL FREE ENERGY PREDICTED BY IDOCK:   -5.98 KCAL/MOL
REMARK 923 INTER-LIGAND FREE ENERGY PREDICTED BY IDOCK:   -5.47 KCAL/MOL
REMARK 924 INTRA-LIGAND FREE ENERGY PREDICTED BY IDOCK:   -0.51 KCAL/MOL
REMARK 927      BINDING AFFINITY PREDICTED BY RF-SCORE:    0.00 PKD
ROOT
HETATM    1  C   UNL     1     -10.521  19.728  65.737  1.00  0.00    -0.545 C  
HETATM    2  C   UNL     1      -9.120  19.773  66.322  1.00  0.00    -0.379 C  
ENDROOT
BRANCH   2   3
HETATM    3  O   UNL     1      -9.242  19.782  67.752  1.00  0.00    -0.321 OA 
BRANCH   3   4
HETATM    4  C   UNL     1      -8.239  19.164  68.422  1.00  0.00    -0.349 C  
HETATM    5  O   UNL     1      -7.337  19.708  69.038  1.00  0.00    -0.355 OA 
BRANCH   4   6
HETATM    6  C   UNL     1      -8.465  17.703  68.450  1.00  0.00    -0.287 A  
HETATM    7  C   UNL     1      -7.500  16.779  68.064  1.00  0.00    -0.167 A  
HETATM    8  N   UNL     1      -7.729  15.444  67.957  1.00  0.00    -0.120 NA 
HETATM    9  C   UNL     1      -8.976  15.016  68.251  1.00  0.00    -0.174 A  
HETATM   10  C   UNL     1      -9.996  15.855  68.680  1.00  0.00    -0.214 A  
HETATM   11  C   UNL     1      -9.733  17.219  68.781  1.00  0.00    -0.280 A  
BRANCH   9  12
HETATM   12  C   UNL     1      -9.212  13.623  68.042  1.00  0.00    -0.197 C  
HETATM   13  C   UNL     1      -9.439  12.449  67.896  1.00  0.00    -0.198 C  
BRANCH  13  14
HETATM   14  C   UNL     1      -9.699  11.050  67.753  1.00  0.00    -0.183 A  
HETATM   15  C   UNL     1      -8.833  10.239  67.009  1.00  0.00    -0.143 A  
HETATM   16  C   UNL     1      -9.023   8.838  66.897  1.00  0.00    -0.155 A  
HETATM   17  C   UNL     1     -10.153   8.280  67.525  1.00  0.00    -0.225 A  
HETATM   18  S   UNL     1     -10.593   6.548  67.518  1.00  0.00    -0.325 SA 
HETATM   19  C   UNL     1     -11.029   9.107  68.252  1.00  0.00    -0.010 A  
HETATM   20  C   UNL     1      -9.492   5.903  66.243  1.00  0.00    -0.139 C  
HETATM   21  C   UNL     1     -10.804  10.479  68.369  1.00  0.00    -0.284 A  
HETATM   22  C   UNL     1      -8.101   6.488  66.395  1.00  0.00    -0.113 C  
HETATM   23  C   UNL     1      -8.016   8.004  66.090  1.00  0.00    -0.103 C  
HETATM   24  C   UNL     1      -8.260   8.250  64.584  1.00  0.00    -0.145 C  
HETATM   25  C   UNL     1      -6.556   8.414  66.413  1.00  0.00    -0.058 C  
ENDBRANCH  13  14
ENDBRANCH   9  12
ENDBRANCH   4   6
ENDBRANCH   3   4
ENDBRANCH   2   3
TORSDOF 5
ENDMDL
MODEL       71
REMARK 921   NORMALIZED FREE ENERGY PREDICTED BY IDOCK:   -4.38 KCAL/MOL
REMARK 922        TOTAL FREE ENERGY PREDICTED BY IDOCK:   -5.98 KCAL/MOL
REMARK 923 INTER-LIGAND FREE ENERGY PREDICTED BY IDOCK:   -5.73 KCAL/MOL
REMARK 924 INTRA-LIGAND FREE ENERGY PREDICTED BY IDOCK:   -0.25 KCAL/MOL
REMARK 927      BINDING AFFINITY PREDICTED BY RF-SCORE:    0.00 PKD
ROOT
HETATM    1  C   UNL     1      -5.586  19.635  70.649  1.00  0.00    -0.284 C  
HETATM    2  C   UNL     1      -5.452  18.465  69.690  1.00  0.00    -0.209 C  
ENDROOT
BRANCH   2   3
HETATM    3  O   UNL     1      -5.751  18.944  68.370  1.00  0.00    -0.195 OA 
BRANCH   3   4
HETATM    4  C   UNL     1      -7.015  18.707  67.943  1.00  0.00    -0.221 C  
HETATM    5  O   UNL     1      -7.754  19.506  67.390  1.00  0.00    -0.242 OA 
BRANCH   4   6
HETATM    6  C   UNL     1      -7.346  17.273  68.088  1.00  0.00    -0.199 A  
HETATM    7  C   UNL     1      -6.594  16.258  67.506  1.00  0.00    -0.164 A  
HETATM    8  N   UNL     1      -6.952  14.948  67.517  1.00  0.00    -0.182 NA 
HETATM    9  C   UNL     1      -8.112  14.641  68.136  1.00  0.00    -0.137 A  
HETATM   10  C   UNL     1      -8.914  15.576  68.776  1.00  0.00    -0.204 A  
HETATM   11  C   UNL     1      -8.522  16.913  68.750  1.00  0.00    -0.244 A  
BRANCH   9  12
HETATM   12  C   UNL     1      -8.510  13.272  68.051  1.00  0.00    -0.170 C  
HETATM   13  C   UNL     1      -8.875  12.128  67.954  1.00  0.00    -0.177 C  
BRANCH  13  14
HETATM   14  C   UNL     1      -9.336  10.778  67.848  1.00  0.00    -0.154 A  
HETATM   15  C   UNL     1      -9.693  10.057  68.994  1.00  0.00    -0.204 A  
HETATM   16  C   UNL     1     -10.214   8.740  68.925  1.00  0.00    -0.221 A  
HETATM   17  C   UNL     1     -10.320   8.147  67.652  1.00  0.00    -0.247 A  
HETATM   18  S   UNL     1     -10.946   6.505  67.322  1.00  0.00    -0.361 SA 
HETATM   19  C   UNL     1      -9.939   8.872  66.508  1.00  0.00    -0.358 A  
HETATM   20  C   UNL     1     -10.981   5.796  68.980  1.00  0.00    -0.210 C  
HETATM   21  C   UNL     1      -9.455  10.177  66.602  1.00  0.00    -0.211 A  
HETATM   22  C   UNL     1     -11.534   6.797  69.977  1.00  0.00    -0.390 C  
HETATM   23  C   UNL     1     -10.614   8.019  70.221  1.00  0.00    -0.231 C  
HETATM   24  C   UNL     1      -9.331   7.570  70.957  1.00  0.00    -0.157 C  
HETATM   25  C   UNL     1     -11.408   8.957  71.167  1.00  0.00    -0.357 C  
ENDBRANCH  13  14
ENDBRANCH   9  12
ENDBRANCH   4   6
ENDBRANCH   3   4
ENDBRANCH   2   3
TORSDOF 5
ENDMDL
MODEL       72
REMARK 921   NORMALIZED FREE ENERGY PREDICTED BY IDOCK:   -4.34 KCAL/MOL
REMARK 922        TOTAL FREE ENERGY PREDICTED BY IDOCK:   -5.93 KCAL/MOL
REMARK 923 INTER-LIGAND FREE ENERGY PREDICTED BY IDOCK:   -5.46 KCAL/MOL
REMARK 924 INTRA-LIGAND FREE ENERGY PREDICTED BY IDOCK:   -0.47 KCAL/MOL
REMARK 927      BINDING AFFINITY PREDICTED BY RF-SCORE:    0.00 PKD
ROOT
HETATM    1  C   UNL     1      -8.413   2.475  70.709  1.00  0.00    -0.091 C  
HETATM    2  C   UNL     1      -9.207   2.471  72.004  1.00  0.00    -0.090 C  
ENDROOT
BRANCH   2   3
HETATM    3  O   UNL     1      -9.172   3.801  72.543  1.00  0.00    -0.103 OA 
BRANCH   3   4
HETATM    4  C   UNL     1     -10.376   4.415  72.644  1.00  0.00    -0.186 C  
HETATM    5  O   UNL     1     -11.317   4.054  73.332  1.00  0.00    -0.253 OA 
BRANCH   4   6
HETATM    6  C   UNL     1     -10.358   5.704  71.918  1.00  0.00    -0.266 A  
HETATM    7  C   UNL     1     -10.253   5.793  70.534  1.00  0.00    -0.221 A  
HETATM    8  N   UNL     1     -10.103   6.962  69.859  1.00  0.00    -0.185 NA 
HETATM    9  C   UNL     1     -10.056   8.090  70.602  1.00  0.00    -0.194 A  
HETATM   10  C   UNL     1     -10.188   8.107  71.984  1.00  0.00    -0.316 A  
HETATM   11  C   UNL     1     -10.341   6.893  72.650  1.00  0.00    -0.228 A  
BRANCH   9  12
HETATM   12  C   UNL     1      -9.805   9.293  69.875  1.00  0.00    -0.219 C  
HETATM   13  C   UNL     1      -9.570  10.321  69.293  1.00  0.00    -0.239 C  
BRANCH  13  14
HETATM   14  C   UNL     1      -9.302  11.559  68.626  1.00  0.00    -0.142 A  
HETATM   15  C   UNL     1     -10.314  12.512  68.464  1.00  0.00    -0.233 A  
HETATM   16  C   UNL     1     -10.072  13.775  67.865  1.00  0.00    -0.246 A  
HETATM   17  C   UNL     1      -8.774  14.030  67.384  1.00  0.00    -0.207 A  
HETATM   18  S   UNL     1      -8.239  15.543  66.597  1.00  0.00    -0.129 SA 
HETATM   19  C   UNL     1      -7.769  13.056  67.531  1.00  0.00    -0.168 A  
HETATM   20  C   UNL     1      -9.817  16.356  66.274  1.00  0.00    -0.314 C  
HETATM   21  C   UNL     1      -8.027  11.832  68.149  1.00  0.00    -0.146 A  
HETATM   22  C   UNL     1     -10.736  16.231  67.474  1.00  0.00    -0.300 C  
HETATM   23  C   UNL     1     -11.223  14.786  67.749  1.00  0.00    -0.323 C  
HETATM   24  C   UNL     1     -12.174  14.330  66.619  1.00  0.00    -0.411 C  
HETATM   25  C   UNL     1     -12.042  14.864  69.064  1.00  0.00    -0.248 C  
ENDBRANCH  13  14
ENDBRANCH   9  12
ENDBRANCH   4   6
ENDBRANCH   3   4
ENDBRANCH   2   3
TORSDOF 5
ENDMDL
MODEL       73
REMARK 921   NORMALIZED FREE ENERGY PREDICTED BY IDOCK:   -4.29 KCAL/MOL
REMARK 922        TOTAL FREE ENERGY PREDICTED BY IDOCK:   -5.86 KCAL/MOL
REMARK 923 INTER-LIGAND FREE ENERGY PREDICTED BY IDOCK:   -5.39 KCAL/MOL
REMARK 924 INTRA-LIGAND FREE ENERGY PREDICTED BY IDOCK:   -0.47 KCAL/MOL
REMARK 927      BINDING AFFINITY PREDICTED BY RF-SCORE:    0.00 PKD
ROOT
HETATM    1  C   UNL     1      -9.228   3.178  72.235  1.00  0.00    -0.157 C  
HETATM    2  C   UNL     1      -8.895   2.327  71.022  1.00  0.00    -0.069 C  
ENDROOT
BRANCH   2   3
HETATM    3  O   UNL     1      -9.796   2.696  69.967  1.00  0.00     0.011 OA 
BRANCH   3   4
HETATM    4  C   UNL     1      -9.205   3.153  68.836  1.00  0.00    -0.161 C  
HETATM    5  O   UNL     1      -8.697   2.474  67.959  1.00  0.00    -0.084 OA 
BRANCH   4   6
HETATM    6  C   UNL     1      -9.396   4.615  68.712  1.00  0.00    -0.197 A  
HETATM    7  C   UNL     1      -8.548   5.543  69.308  1.00  0.00    -0.104 A  
HETATM    8  N   UNL     1      -8.777   6.882  69.317  1.00  0.00    -0.135 NA 
HETATM    9  C   UNL     1      -9.903   7.310  68.703  1.00  0.00    -0.161 A  
HETATM   10  C   UNL     1     -10.791   6.466  68.051  1.00  0.00    -0.396 A  
HETATM   11  C   UNL     1     -10.531   5.097  68.057  1.00  0.00    -0.088 A  
BRANCH   9  12
HETATM   12  C   UNL     1     -10.165   8.710  68.808  1.00  0.00    -0.224 C  
HETATM   13  C   UNL     1     -10.413   9.882  68.928  1.00  0.00    -0.229 C  
BRANCH  13  14
HETATM   14  C   UNL     1     -10.737  11.269  69.063  1.00  0.00    -0.257 A  
HETATM   15  C   UNL     1     -10.159  12.221  68.215  1.00  0.00    -0.218 A  
HETATM   16  C   UNL     1     -10.503  13.595  68.277  1.00  0.00    -0.253 A  
HETATM   17  C   UNL     1     -11.423  13.993  69.266  1.00  0.00    -0.295 A  
HETATM   18  S   UNL     1     -12.003  15.663  69.530  1.00  0.00    -0.285 SA 
HETATM   19  C   UNL     1     -11.983  13.032  70.128  1.00  0.00    -0.374 A  
HETATM   20  C   UNL     1     -10.840  16.609  68.527  1.00  0.00    -0.356 C  
HETATM   21  C   UNL     1     -11.648  11.681  70.027  1.00  0.00    -0.338 A  
HETATM   22  C   UNL     1     -10.610  15.927  67.193  1.00  0.00    -0.316 C  
HETATM   23  C   UNL     1      -9.852  14.580  67.294  1.00  0.00    -0.236 C  
HETATM   24  C   UNL     1      -8.392  14.831  67.735  1.00  0.00    -0.166 C  
HETATM   25  C   UNL     1      -9.826  14.006  65.853  1.00  0.00    -0.302 C  
ENDBRANCH  13  14
ENDBRANCH   9  12
ENDBRANCH   4   6
ENDBRANCH   3   4
ENDBRANCH   2   3
TORSDOF 5
ENDMDL
MODEL       74
REMARK 921   NORMALIZED FREE ENERGY PREDICTED BY IDOCK:   -4.25 KCAL/MOL
REMARK 922        TOTAL FREE ENERGY PREDICTED BY IDOCK:   -5.82 KCAL/MOL
REMARK 923 INTER-LIGAND FREE ENERGY PREDICTED BY IDOCK:   -5.40 KCAL/MOL
REMARK 924 INTRA-LIGAND FREE ENERGY PREDICTED BY IDOCK:   -0.42 KCAL/MOL
REMARK 927      BINDING AFFINITY PREDICTED BY RF-SCORE:    0.00 PKD
ROOT
HETATM    1  C   UNL     1     -10.289  20.086  66.543  1.00  0.00    -0.572 C  
HETATM    2  C   UNL     1      -8.963  19.350  66.631  1.00  0.00    -0.346 C  
ENDROOT
BRANCH   2   3
HETATM    3  O   UNL     1      -9.129  18.069  66.006  1.00  0.00    -0.509 OA 
BRANCH   3   4
HETATM    4  C   UNL     1      -8.039  17.265  66.037  1.00  0.00    -0.151 C  
HETATM    5  O   UNL     1      -6.912  17.558  65.671  1.00  0.00    -0.317 OA 
BRANCH   4   6
HETATM    6  C   UNL     1      -8.354  16.000  66.736  1.00  0.00    -0.305 A  
HETATM    7  C   UNL     1      -7.442  15.338  67.551  1.00  0.00    -0.190 A  
HETATM    8  N   UNL     1      -7.663  14.113  68.096  1.00  0.00    -0.127 NA 
HETATM    9  C   UNL     1      -8.847  13.527  67.813  1.00  0.00    -0.198 A  
HETATM   10  C   UNL     1      -9.834  14.122  67.039  1.00  0.00    -0.258 A  
HETATM   11  C   UNL     1      -9.581  15.379  66.494  1.00  0.00    -0.298 A  
BRANCH   9  12
HETATM   12  C   UNL     1      -9.013  12.203  68.322  1.00  0.00    -0.186 C  
HETATM   13  C   UNL     1      -9.193  11.086  68.737  1.00  0.00    -0.167 C  
BRANCH  13  14
HETATM   14  C   UNL     1      -9.429   9.771  69.247  1.00  0.00    -0.201 A  
HETATM   15  C   UNL     1      -8.408   8.813  69.244  1.00  0.00    -0.120 A  
HETATM   16  C   UNL     1      -8.585   7.520  69.799  1.00  0.00    -0.140 A  
HETATM   17  C   UNL     1      -9.855   7.201  70.318  1.00  0.00    -0.176 A  
HETATM   18  S   UNL     1     -10.309   5.641  71.063  1.00  0.00    -0.244 SA 
HETATM   19  C   UNL     1     -10.882   8.164  70.296  1.00  0.00    -0.244 A  
HETATM   20  C   UNL     1      -8.912   4.601  70.593  1.00  0.00    -0.117 C  
HETATM   21  C   UNL     1     -10.672   9.439  69.770  1.00  0.00    -0.250 A  
HETATM   22  C   UNL     1      -7.605   5.350  70.774  1.00  0.00    -0.088 C  
HETATM   23  C   UNL     1      -7.411   6.529  69.789  1.00  0.00    -0.088 C  
HETATM   24  C   UNL     1      -7.228   5.989  68.354  1.00  0.00    -0.084 C  
HETATM   25  C   UNL     1      -6.089   7.217  70.217  1.00  0.00    -0.024 C  
ENDBRANCH  13  14
ENDBRANCH   9  12
ENDBRANCH   4   6
ENDBRANCH   3   4
ENDBRANCH   2   3
TORSDOF 5
ENDMDL
MODEL       75
REMARK 921   NORMALIZED FREE ENERGY PREDICTED BY IDOCK:   -4.22 KCAL/MOL
REMARK 922        TOTAL FREE ENERGY PREDICTED BY IDOCK:   -5.78 KCAL/MOL
REMARK 923 INTER-LIGAND FREE ENERGY PREDICTED BY IDOCK:   -5.40 KCAL/MOL
REMARK 924 INTRA-LIGAND FREE ENERGY PREDICTED BY IDOCK:   -0.39 KCAL/MOL
REMARK 927      BINDING AFFINITY PREDICTED BY RF-SCORE:    0.00 PKD
ROOT
HETATM    1  C   UNL     1      -9.701   4.147  69.481  1.00  0.00    -0.254 C  
HETATM    2  C   UNL     1      -9.391   4.428  68.020  1.00  0.00    -0.146 C  
ENDROOT
BRANCH   2   3
HETATM    3  O   UNL     1      -9.277   5.850  67.862  1.00  0.00    -0.111 OA 
BRANCH   3   4
HETATM    4  C   UNL     1      -9.392   6.300  66.589  1.00  0.00    -0.148 C  
HETATM    5  O   UNL     1      -9.656   5.630  65.605  1.00  0.00    -0.048 OA 
BRANCH   4   6
HETATM    6  C   UNL     1      -9.313   7.777  66.558  1.00  0.00    -0.243 A  
HETATM    7  C   UNL     1      -9.721   8.581  67.618  1.00  0.00    -0.160 A  
HETATM    8  N   UNL     1      -9.780   9.937  67.562  1.00  0.00    -0.156 NA 
HETATM    9  C   UNL     1      -9.414  10.513  66.396  1.00  0.00    -0.171 A  
HETATM   10  C   UNL     1      -8.959   9.799  65.294  1.00  0.00    -0.233 A  
HETATM   11  C   UNL     1      -8.909   8.410  65.381  1.00  0.00    -0.146 A  
BRANCH   9  12
HETATM   12  C   UNL     1      -9.574  11.930  66.334  1.00  0.00    -0.239 C  
HETATM   13  C   UNL     1      -9.749  13.121  66.282  1.00  0.00    -0.269 C  
BRANCH  13  14
HETATM   14  C   UNL     1      -9.973  14.531  66.193  1.00  0.00    -0.330 A  
HETATM   15  C   UNL     1      -9.533  15.386  67.210  1.00  0.00    -0.215 A  
HETATM   16  C   UNL     1      -9.680  16.795  67.128  1.00  0.00    -0.251 A  
HETATM   17  C   UNL     1     -10.336  17.317  65.997  1.00  0.00    -0.305 A  
HETATM   18  S   UNL     1     -10.634  19.050  65.680  1.00  0.00     0.021 SA 
HETATM   19  C   UNL     1     -10.794  16.447  64.990  1.00  0.00    -0.289 A  
HETATM   20  C   UNL     1     -10.253  19.779  67.286  1.00  0.00    -0.438 C  
HETATM   21  C   UNL     1     -10.612  15.067  65.083  1.00  0.00    -0.440 A  
HETATM   22  C   UNL     1      -8.993  19.163  67.865  1.00  0.00    -0.347 C  
HETATM   23  C   UNL     1      -9.145  17.675  68.268  1.00  0.00    -0.276 C  
HETATM   24  C   UNL     1     -10.098  17.555  69.478  1.00  0.00     0.059 C  
HETATM   25  C   UNL     1      -7.734  17.219  68.720  1.00  0.00    -0.261 C  
ENDBRANCH  13  14
ENDBRANCH   9  12
ENDBRANCH   4   6
ENDBRANCH   3   4
ENDBRANCH   2   3
TORSDOF 5
ENDMDL
MODEL       76
REMARK 921   NORMALIZED FREE ENERGY PREDICTED BY IDOCK:   -4.20 KCAL/MOL
REMARK 922        TOTAL FREE ENERGY PREDICTED BY IDOCK:   -5.75 KCAL/MOL
REMARK 923 INTER-LIGAND FREE ENERGY PREDICTED BY IDOCK:   -5.25 KCAL/MOL
REMARK 924 INTRA-LIGAND FREE ENERGY PREDICTED BY IDOCK:   -0.50 KCAL/MOL
REMARK 927      BINDING AFFINITY PREDICTED BY RF-SCORE:    0.00 PKD
ROOT
HETATM    1  C   UNL     1      -9.888  15.904  66.260  1.00  0.00    -0.325 C  
HETATM    2  C   UNL     1     -10.908  15.754  65.145  1.00  0.00    -0.428 C  
ENDROOT
BRANCH   2   3
HETATM    3  O   UNL     1     -10.971  14.364  64.792  1.00  0.00    -0.387 OA 
BRANCH   3   4
HETATM    4  C   UNL     1     -11.942  13.653  65.414  1.00  0.00    -0.378 C  
HETATM    5  O   UNL     1     -13.142  13.871  65.366  1.00  0.00    -0.752 OA 
BRANCH   4   6
HETATM    6  C   UNL     1     -11.368  12.448  66.051  1.00  0.00    -0.397 A  
HETATM    7  C   UNL     1     -11.528  12.156  67.401  1.00  0.00    -0.345 A  
HETATM    8  N   UNL     1     -10.903  11.128  68.033  1.00  0.00    -0.207 NA 
HETATM    9  C   UNL     1     -10.084  10.361  67.281  1.00  0.00    -0.200 A  
HETATM   10  C   UNL     1      -9.886  10.551  65.920  1.00  0.00    -0.291 A  
HETATM   11  C   UNL     1     -10.541  11.612  65.298  1.00  0.00    -0.333 A  
BRANCH   9  12
HETATM   12  C   UNL     1      -9.370   9.348  67.990  1.00  0.00    -0.140 C  
HETATM   13  C   UNL     1      -8.803   8.471  68.591  1.00  0.00    -0.136 C  
BRANCH  13  14
HETATM   14  C   UNL     1      -8.148   7.434  69.329  1.00  0.00    -0.123 A  
HETATM   15  C   UNL     1      -8.517   6.095  69.151  1.00  0.00    -0.119 A  
HETATM   16  C   UNL     1      -7.850   5.035  69.816  1.00  0.00    -0.071 A  
HETATM   17  C   UNL     1      -6.819   5.374  70.714  1.00  0.00    -0.051 A  
HETATM   18  S   UNL     1      -5.844   4.212  71.658  1.00  0.00    -0.013 SA 
HETATM   19  C   UNL     1      -6.471   6.724  70.902  1.00  0.00    -0.052 A  
HETATM   20  C   UNL     1      -6.787   2.690  71.438  1.00  0.00    -0.031 C  
HETATM   21  C   UNL     1      -7.125   7.747  70.214  1.00  0.00    -0.050 A  
HETATM   22  C   UNL     1      -7.232   2.543  69.996  1.00  0.00    -0.037 C  
HETATM   23  C   UNL     1      -8.287   3.586  69.550  1.00  0.00    -0.082 C  
HETATM   24  C   UNL     1      -9.622   3.327  70.282  1.00  0.00    -0.198 C  
HETATM   25  C   UNL     1      -8.511   3.333  68.037  1.00  0.00    -0.104 C  
ENDBRANCH  13  14
ENDBRANCH   9  12
ENDBRANCH   4   6
ENDBRANCH   3   4
ENDBRANCH   2   3
TORSDOF 5
ENDMDL
MODEL       77
REMARK 921   NORMALIZED FREE ENERGY PREDICTED BY IDOCK:   -4.19 KCAL/MOL
REMARK 922        TOTAL FREE ENERGY PREDICTED BY IDOCK:   -5.74 KCAL/MOL
REMARK 923 INTER-LIGAND FREE ENERGY PREDICTED BY IDOCK:   -5.28 KCAL/MOL
REMARK 924 INTRA-LIGAND FREE ENERGY PREDICTED BY IDOCK:   -0.46 KCAL/MOL
REMARK 927      BINDING AFFINITY PREDICTED BY RF-SCORE:    0.00 PKD
ROOT
HETATM    1  C   UNL     1      -8.618   4.318  69.224  1.00  0.00    -0.110 C  
HETATM    2  C   UNL     1      -9.672   4.796  70.207  1.00  0.00    -0.225 C  
ENDROOT
BRANCH   2   3
HETATM    3  O   UNL     1      -9.585   6.227  70.282  1.00  0.00    -0.162 OA 
BRANCH   3   4
HETATM    4  C   UNL     1     -10.490   6.901  69.532  1.00  0.00    -0.223 C  
HETATM    5  O   UNL     1     -11.657   6.592  69.353  1.00  0.00    -0.339 OA 
BRANCH   4   6
HETATM    6  C   UNL     1      -9.918   8.184  69.067  1.00  0.00    -0.191 A  
HETATM    7  C   UNL     1      -8.884   8.837  69.730  1.00  0.00    -0.142 A  
HETATM    8  N   UNL     1      -8.434  10.075  69.397  1.00  0.00    -0.157 NA 
HETATM    9  C   UNL     1      -9.044  10.684  68.358  1.00  0.00    -0.156 A  
HETATM   10  C   UNL     1     -10.060  10.101  67.612  1.00  0.00    -0.231 A  
HETATM   11  C   UNL     1     -10.501   8.830  67.975  1.00  0.00    -0.260 A  
BRANCH   9  12
HETATM   12  C   UNL     1      -8.614  12.020  68.090  1.00  0.00    -0.173 C  
HETATM   13  C   UNL     1      -8.245  13.151  67.905  1.00  0.00    -0.162 C  
BRANCH  13  14
HETATM   14  C   UNL     1      -7.830  14.505  67.703  1.00  0.00    -0.194 A  
HETATM   15  C   UNL     1      -8.772  15.540  67.668  1.00  0.00    -0.183 A  
HETATM   16  C   UNL     1      -8.394  16.900  67.534  1.00  0.00    -0.201 A  
HETATM   17  C   UNL     1      -7.023  17.185  67.385  1.00  0.00    -0.156 A  
HETATM   18  S   UNL     1      -6.317  18.816  67.202  1.00  0.00    -0.186 SA 
HETATM   19  C   UNL     1      -6.085  16.136  67.400  1.00  0.00    -0.187 A  
HETATM   20  C   UNL     1      -7.788  19.808  66.875  1.00  0.00    -0.284 C  
HETATM   21  C   UNL     1      -6.482  14.808  67.561  1.00  0.00    -0.090 A  
HETATM   22  C   UNL     1      -8.918  19.406  67.802  1.00  0.00    -0.365 C  
HETATM   23  C   UNL     1      -9.480  17.987  67.535  1.00  0.00    -0.262 C  
HETATM   24  C   UNL     1     -10.211  17.961  66.174  1.00  0.00    -0.343 C  
HETATM   25  C   UNL     1     -10.530  17.736  68.648  1.00  0.00    -0.295 C  
ENDBRANCH  13  14
ENDBRANCH   9  12
ENDBRANCH   4   6
ENDBRANCH   3   4
ENDBRANCH   2   3
TORSDOF 5
ENDMDL
MODEL       78
REMARK 921   NORMALIZED FREE ENERGY PREDICTED BY IDOCK:   -4.16 KCAL/MOL
REMARK 922        TOTAL FREE ENERGY PREDICTED BY IDOCK:   -5.70 KCAL/MOL
REMARK 923 INTER-LIGAND FREE ENERGY PREDICTED BY IDOCK:   -5.22 KCAL/MOL
REMARK 924 INTRA-LIGAND FREE ENERGY PREDICTED BY IDOCK:   -0.49 KCAL/MOL
REMARK 927      BINDING AFFINITY PREDICTED BY RF-SCORE:    0.00 PKD
ROOT
HETATM    1  C   UNL     1     -11.361  15.290  69.408  1.00  0.00    -0.304 C  
HETATM    2  C   UNL     1     -11.118  16.044  68.112  1.00  0.00    -0.344 C  
ENDROOT
BRANCH   2   3
HETATM    3  O   UNL     1     -11.545  15.203  67.029  1.00  0.00    -0.295 OA 
BRANCH   3   4
HETATM    4  C   UNL     1     -10.594  14.923  66.105  1.00  0.00    -0.318 C  
HETATM    5  O   UNL     1      -9.987  15.733  65.424  1.00  0.00    -0.346 OA 
BRANCH   4   6
HETATM    6  C   UNL     1     -10.257  13.484  66.135  1.00  0.00    -0.303 A  
HETATM    7  C   UNL     1     -10.784  12.563  65.235  1.00  0.00    -0.286 A  
HETATM    8  N   UNL     1     -10.593  11.221  65.324  1.00  0.00    -0.275 NA 
HETATM    9  C   UNL     1      -9.841  10.782  66.357  1.00  0.00    -0.209 A  
HETATM   10  C   UNL     1      -9.243  11.624  67.286  1.00  0.00    -0.170 A  
HETATM   11  C   UNL     1      -9.456  12.996  67.170  1.00  0.00    -0.230 A  
BRANCH   9  12
HETATM   12  C   UNL     1      -9.733   9.363  66.479  1.00  0.00    -0.299 C  
HETATM   13  C   UNL     1      -9.637   8.171  66.622  1.00  0.00    -0.295 C  
BRANCH  13  14
HETATM   14  C   UNL     1      -9.494   6.759  66.805  1.00  0.00    -0.199 A  
HETATM   15  C   UNL     1      -9.057   5.948  65.751  1.00  0.00    -0.101 A  
HETATM   16  C   UNL     1      -8.842   4.555  65.911  1.00  0.00    -0.121 A  
HETATM   17  C   UNL     1      -9.134   3.990  67.169  1.00  0.00    -0.150 A  
HETATM   18  S   UNL     1      -8.941   2.267  67.600  1.00  0.00    -0.171 SA 
HETATM   19  C   UNL     1      -9.594   4.811  68.215  1.00  0.00    -0.204 A  
HETATM   20  C   UNL     1      -8.699   1.516  65.978  1.00  0.00    -0.115 C  
HETATM   21  C   UNL     1      -9.769   6.184  68.038  1.00  0.00    -0.122 A  
HETATM   22  C   UNL     1      -7.754   2.354  65.139  1.00  0.00    -0.077 C  
HETATM   23  C   UNL     1      -8.331   3.730  64.721  1.00  0.00    -0.097 C  
HETATM   24  C   UNL     1      -9.491   3.529  63.720  1.00  0.00    -0.132 C  
HETATM   25  C   UNL     1      -7.180   4.459  63.981  1.00  0.00    -0.054 C  
ENDBRANCH  13  14
ENDBRANCH   9  12
ENDBRANCH   4   6
ENDBRANCH   3   4
ENDBRANCH   2   3
TORSDOF 5
ENDMDL
MODEL       79
REMARK 921   NORMALIZED FREE ENERGY PREDICTED BY IDOCK:   -4.16 KCAL/MOL
REMARK 922        TOTAL FREE ENERGY PREDICTED BY IDOCK:   -5.70 KCAL/MOL
REMARK 923 INTER-LIGAND FREE ENERGY PREDICTED BY IDOCK:   -5.19 KCAL/MOL
REMARK 924 INTRA-LIGAND FREE ENERGY PREDICTED BY IDOCK:   -0.52 KCAL/MOL
REMARK 927      BINDING AFFINITY PREDICTED BY RF-SCORE:    0.00 PKD
ROOT
HETATM    1  C   UNL     1      -6.908  18.905  65.653  1.00  0.00    -0.292 C  
HETATM    2  C   UNL     1      -8.106  19.775  65.992  1.00  0.00    -0.322 C  
ENDROOT
BRANCH   2   3
HETATM    3  O   UNL     1      -8.979  19.010  66.836  1.00  0.00    -0.283 OA 
BRANCH   3   4
HETATM    4  C   UNL     1     -10.083  18.514  66.228  1.00  0.00    -0.398 C  
HETATM    5  O   UNL     1     -10.872  19.139  65.538  1.00  0.00    -0.438 OA 
BRANCH   4   6
HETATM    6  C   UNL     1     -10.134  17.043  66.375  1.00  0.00    -0.325 A  
HETATM    7  C   UNL     1     -10.121  16.404  67.610  1.00  0.00    -0.263 A  
HETATM    8  N   UNL     1     -10.035  15.057  67.766  1.00  0.00    -0.228 NA 
HETATM    9  C   UNL     1      -9.960  14.319  66.637  1.00  0.00    -0.275 A  
HETATM   10  C   UNL     1     -10.001  14.861  65.359  1.00  0.00    -0.367 A  
HETATM   11  C   UNL     1     -10.090  16.245  65.230  1.00  0.00    -0.050 A  
BRANCH   9  12
HETATM   12  C   UNL     1      -9.777  12.916  66.832  1.00  0.00    -0.240 C  
HETATM   13  C   UNL     1      -9.583  11.739  66.999  1.00  0.00    -0.196 C  
BRANCH  13  14
HETATM   14  C   UNL     1      -9.333  10.341  67.171  1.00  0.00    -0.175 A  
HETATM   15  C   UNL     1      -8.112   9.895  67.690  1.00  0.00    -0.110 A  
HETATM   16  C   UNL     1      -7.852   8.523  67.935  1.00  0.00    -0.103 A  
HETATM   17  C   UNL     1      -8.856   7.597  67.590  1.00  0.00    -0.125 A  
HETATM   18  S   UNL     1      -8.752   5.826  67.807  1.00  0.00    -0.105 SA 
HETATM   19  C   UNL     1     -10.072   8.053  67.048  1.00  0.00    -0.350 A  
HETATM   20  C   UNL     1      -6.996   5.612  68.161  1.00  0.00    -0.065 C  
HETATM   21  C   UNL     1     -10.313   9.413  66.843  1.00  0.00    -0.308 A  
HETATM   22  C   UNL     1      -6.514   6.676  69.127  1.00  0.00    -0.040 C  
HETATM   23  C   UNL     1      -6.501   8.107  68.535  1.00  0.00    -0.054 C  
HETATM   24  C   UNL     1      -5.416   8.211  67.440  1.00  0.00    -0.037 C  
HETATM   25  C   UNL     1      -6.092   9.040  69.706  1.00  0.00    -0.038 C  
ENDBRANCH  13  14
ENDBRANCH   9  12
ENDBRANCH   4   6
ENDBRANCH   3   4
ENDBRANCH   2   3
TORSDOF 5
ENDMDL
MODEL       80
REMARK 921   NORMALIZED FREE ENERGY PREDICTED BY IDOCK:   -4.12 KCAL/MOL
REMARK 922        TOTAL FREE ENERGY PREDICTED BY IDOCK:   -5.65 KCAL/MOL
REMARK 923 INTER-LIGAND FREE ENERGY PREDICTED BY IDOCK:   -5.16 KCAL/MOL
REMARK 924 INTRA-LIGAND FREE ENERGY PREDICTED BY IDOCK:   -0.49 KCAL/MOL
REMARK 927      BINDING AFFINITY PREDICTED BY RF-SCORE:    0.00 PKD
ROOT
HETATM    1  C   UNL     1     -11.318   4.741  73.361  1.00  0.00    -0.397 C  
HETATM    2  C   UNL     1     -10.657   3.425  72.991  1.00  0.00    -0.152 C  
ENDROOT
BRANCH   2   3
HETATM    3  O   UNL     1     -10.342   3.471  71.591  1.00  0.00    -0.024 OA 
BRANCH   3   4
HETATM    4  C   UNL     1      -9.056   3.781  71.298  1.00  0.00    -0.116 C  
HETATM    5  O   UNL     1      -8.086   3.054  71.438  1.00  0.00    -0.057 OA 
BRANCH   4   6
HETATM    6  C   UNL     1      -8.986   5.092  70.617  1.00  0.00    -0.164 A  
HETATM    7  C   UNL     1      -7.840   5.880  70.605  1.00  0.00    -0.105 A  
HETATM    8  N   UNL     1      -7.792   7.140  70.101  1.00  0.00    -0.106 NA 
HETATM    9  C   UNL     1      -8.940   7.632  69.586  1.00  0.00    -0.140 A  
HETATM   10  C   UNL     1     -10.125   6.912  69.519  1.00  0.00    -0.183 A  
HETATM   11  C   UNL     1     -10.145   5.621  70.043  1.00  0.00    -0.295 A  
BRANCH   9  12
HETATM   12  C   UNL     1      -8.883   8.991  69.148  1.00  0.00    -0.142 C  
HETATM   13  C   UNL     1      -8.855  10.125  68.744  1.00  0.00    -0.146 C  
BRANCH  13  14
HETATM   14  C   UNL     1      -8.805  11.463  68.239  1.00  0.00    -0.167 A  
HETATM   15  C   UNL     1      -9.969  12.237  68.162  1.00  0.00    -0.210 A  
HETATM   16  C   UNL     1      -9.950  13.587  67.727  1.00  0.00    -0.232 A  
HETATM   17  C   UNL     1      -8.713  14.123  67.321  1.00  0.00    -0.218 A  
HETATM   18  S   UNL     1      -8.448  15.792  66.739  1.00  0.00    -0.292 SA 
HETATM   19  C   UNL     1      -7.552  13.330  67.382  1.00  0.00    -0.137 A  
HETATM   20  C   UNL     1     -10.142  16.350  66.467  1.00  0.00    -0.295 C  
HETATM   21  C   UNL     1      -7.595  12.013  67.840  1.00  0.00    -0.124 A  
HETATM   22  C   UNL     1     -11.036  15.917  67.613  1.00  0.00    -0.298 C  
HETATM   23  C   UNL     1     -11.261  14.387  67.696  1.00  0.00    -0.328 C  
HETATM   24  C   UNL     1     -12.104  13.915  66.491  1.00  0.00    -0.484 C  
HETATM   25  C   UNL     1     -12.093  14.156  68.984  1.00  0.00    -0.348 C  
ENDBRANCH  13  14
ENDBRANCH   9  12
ENDBRANCH   4   6
ENDBRANCH   3   4
ENDBRANCH   2   3
TORSDOF 5
ENDMDL
MODEL       81
REMARK 921   NORMALIZED FREE ENERGY PREDICTED BY IDOCK:   -4.10 KCAL/MOL
REMARK 922        TOTAL FREE ENERGY PREDICTED BY IDOCK:   -5.62 KCAL/MOL
REMARK 923 INTER-LIGAND FREE ENERGY PREDICTED BY IDOCK:   -5.22 KCAL/MOL
REMARK 924 INTRA-LIGAND FREE ENERGY PREDICTED BY IDOCK:   -0.40 KCAL/MOL
REMARK 927      BINDING AFFINITY PREDICTED BY RF-SCORE:    0.00 PKD
ROOT
HETATM    1  C   UNL     1      -8.603   4.304  63.775  1.00  0.00    -0.117 C  
HETATM    2  C   UNL     1      -9.547   3.512  64.665  1.00  0.00    -0.168 C  
ENDROOT
BRANCH   2   3
HETATM    3  O   UNL     1     -10.365   4.450  65.380  1.00  0.00    -0.252 OA 
BRANCH   3   4
HETATM    4  C   UNL     1      -9.856   4.880  66.559  1.00  0.00    -0.207 C  
HETATM    5  O   UNL     1      -9.424   4.179  67.459  1.00  0.00    -0.162 OA 
BRANCH   4   6
HETATM    6  C   UNL     1      -9.738   6.354  66.561  1.00  0.00    -0.177 A  
HETATM    7  C   UNL     1      -8.663   7.029  65.992  1.00  0.00    -0.144 A  
HETATM    8  N   UNL     1      -8.469   8.370  66.096  1.00  0.00    -0.124 NA 
HETATM    9  C   UNL     1      -9.391   9.064  66.799  1.00  0.00    -0.165 A  
HETATM   10  C   UNL     1     -10.515   8.487  67.373  1.00  0.00    -0.351 A  
HETATM   11  C   UNL     1     -10.689   7.110  67.250  1.00  0.00    -0.399 A  
BRANCH   9  12
HETATM   12  C   UNL     1      -9.113  10.454  66.971  1.00  0.00    -0.153 C  
HETATM   13  C   UNL     1      -8.846  11.623  67.089  1.00  0.00    -0.172 C  
BRANCH  13  14
HETATM   14  C   UNL     1      -8.502  13.004  67.240  1.00  0.00    -0.199 A  
HETATM   15  C   UNL     1      -9.489  13.994  67.170  1.00  0.00    -0.241 A  
HETATM   16  C   UNL     1      -9.196  15.366  67.378  1.00  0.00    -0.204 A  
HETATM   17  C   UNL     1      -7.853  15.718  67.611  1.00  0.00    -0.150 A  
HETATM   18  S   UNL     1      -7.251  17.377  67.898  1.00  0.00    -0.193 SA 
HETATM   19  C   UNL     1      -6.864  14.718  67.657  1.00  0.00    -0.205 A  
HETATM   20  C   UNL     1      -8.682  18.365  67.418  1.00  0.00    -0.260 C  
HETATM   21  C   UNL     1      -7.184  13.371  67.477  1.00  0.00    -0.163 A  
HETATM   22  C   UNL     1      -9.958  17.754  67.962  1.00  0.00    -0.333 C  
HETATM   23  C   UNL     1     -10.334  16.396  67.318  1.00  0.00    -0.287 C  
HETATM   24  C   UNL     1     -10.734  16.610  65.841  1.00  0.00    -0.179 C  
HETATM   25  C   UNL     1     -11.586  15.900  68.088  1.00  0.00    -0.224 C  
ENDBRANCH  13  14
ENDBRANCH   9  12
ENDBRANCH   4   6
ENDBRANCH   3   4
ENDBRANCH   2   3
TORSDOF 5
ENDMDL
MODEL       82
REMARK 921   NORMALIZED FREE ENERGY PREDICTED BY IDOCK:   -4.07 KCAL/MOL
REMARK 922        TOTAL FREE ENERGY PREDICTED BY IDOCK:   -5.59 KCAL/MOL
REMARK 923 INTER-LIGAND FREE ENERGY PREDICTED BY IDOCK:   -5.16 KCAL/MOL
REMARK 924 INTRA-LIGAND FREE ENERGY PREDICTED BY IDOCK:   -0.43 KCAL/MOL
REMARK 927      BINDING AFFINITY PREDICTED BY RF-SCORE:    0.00 PKD
ROOT
HETATM    1  C   UNL     1      -9.822  19.848  66.851  1.00  0.00    -0.540 C  
HETATM    2  C   UNL     1     -10.744  18.648  66.720  1.00  0.00    -0.280 C  
ENDROOT
BRANCH   2   3
HETATM    3  O   UNL     1     -10.179  17.766  65.738  1.00  0.00    -0.566 OA 
BRANCH   3   4
HETATM    4  C   UNL     1     -11.011  16.798  65.285  1.00  0.00    -0.078 C  
HETATM    5  O   UNL     1     -11.911  16.938  64.473  1.00  0.00    -0.283 OA 
BRANCH   4   6
HETATM    6  C   UNL     1     -10.582  15.475  65.790  1.00  0.00    -0.370 A  
HETATM    7  C   UNL     1     -11.467  14.425  66.011  1.00  0.00    -0.349 A  
HETATM    8  N   UNL     1     -11.118  13.250  66.595  1.00  0.00    -0.287 NA 
HETATM    9  C   UNL     1      -9.827  13.120  66.974  1.00  0.00    -0.244 A  
HETATM   10  C   UNL     1      -8.862  14.096  66.764  1.00  0.00    -0.190 A  
HETATM   11  C   UNL     1      -9.249  15.291  66.162  1.00  0.00    -0.345 A  
BRANCH   9  12
HETATM   12  C   UNL     1      -9.509  11.913  67.668  1.00  0.00    -0.182 C  
HETATM   13  C   UNL     1      -9.233  10.917  68.287  1.00  0.00    -0.161 C  
BRANCH  13  14
HETATM   14  C   UNL     1      -8.877   9.746  69.028  1.00  0.00    -0.153 A  
HETATM   15  C   UNL     1      -7.971   8.820  68.500  1.00  0.00    -0.112 A  
HETATM   16  C   UNL     1      -7.545   7.680  69.230  1.00  0.00    -0.096 A  
HETATM   17  C   UNL     1      -8.107   7.476  70.506  1.00  0.00    -0.106 A  
HETATM   18  S   UNL     1      -7.723   6.118  71.601  1.00  0.00    -0.102 SA 
HETATM   19  C   UNL     1      -9.034   8.402  71.019  1.00  0.00    -0.199 A  
HETATM   20  C   UNL     1      -6.826   5.009  70.496  1.00  0.00    -0.041 C  
HETATM   21  C   UNL     1      -9.414   9.530  70.290  1.00  0.00    -0.307 A  
HETATM   22  C   UNL     1      -5.849   5.789  69.638  1.00  0.00    -0.023 C  
HETATM   23  C   UNL     1      -6.523   6.721  68.601  1.00  0.00    -0.040 C  
HETATM   24  C   UNL     1      -7.234   5.876  67.520  1.00  0.00    -0.076 C  
HETATM   25  C   UNL     1      -5.366   7.497  67.921  1.00  0.00    -0.026 C  
ENDBRANCH  13  14
ENDBRANCH   9  12
ENDBRANCH   4   6
ENDBRANCH   3   4
ENDBRANCH   2   3
TORSDOF 5
ENDMDL
MODEL       83
REMARK 921   NORMALIZED FREE ENERGY PREDICTED BY IDOCK:   -4.04 KCAL/MOL
REMARK 922        TOTAL FREE ENERGY PREDICTED BY IDOCK:   -5.55 KCAL/MOL
REMARK 923 INTER-LIGAND FREE ENERGY PREDICTED BY IDOCK:   -5.24 KCAL/MOL
REMARK 924 INTRA-LIGAND FREE ENERGY PREDICTED BY IDOCK:   -0.31 KCAL/MOL
REMARK 927      BINDING AFFINITY PREDICTED BY RF-SCORE:    0.00 PKD
ROOT
HETATM    1  C   UNL     1     -13.191  11.803  63.765  1.00  0.00     0.109 C  
HETATM    2  C   UNL     1     -12.231  12.964  63.570  1.00  0.00    -0.512 C  
ENDROOT
BRANCH   2   3
HETATM    3  O   UNL     1     -12.326  13.811  64.725  1.00  0.00    -0.431 OA 
BRANCH   3   4
HETATM    4  C   UNL     1     -11.166  14.004  65.397  1.00  0.00    -0.319 C  
HETATM    5  O   UNL     1     -10.546  15.051  65.485  1.00  0.00    -0.312 OA 
BRANCH   4   6
HETATM    6  C   UNL     1     -10.812  12.792  66.168  1.00  0.00    -0.303 A  
HETATM    7  C   UNL     1      -9.932  11.823  65.696  1.00  0.00    -0.240 A  
HETATM    8  N   UNL     1      -9.694  10.644  66.327  1.00  0.00    -0.192 NA 
HETATM    9  C   UNL     1     -10.365  10.425  67.479  1.00  0.00    -0.224 A  
HETATM   10  C   UNL     1     -11.236  11.344  68.049  1.00  0.00    -0.346 A  
HETATM   11  C   UNL     1     -11.460  12.546  67.381  1.00  0.00    -0.404 A  
BRANCH   9  12
HETATM   12  C   UNL     1     -10.166   9.141  68.071  1.00  0.00    -0.258 C  
HETATM   13  C   UNL     1     -10.039   8.054  68.575  1.00  0.00    -0.218 C  
BRANCH  13  14
HETATM   14  C   UNL     1      -9.902   6.774  69.199  1.00  0.00    -0.161 A  
HETATM   15  C   UNL     1      -9.378   5.689  68.487  1.00  0.00    -0.139 A  
HETATM   16  C   UNL     1      -9.168   4.422  69.089  1.00  0.00    -0.202 A  
HETATM   17  C   UNL     1      -9.554   4.268  70.435  1.00  0.00    -0.195 A  
HETATM   18  S   UNL     1      -9.385   2.771  71.397  1.00  0.00    -0.145 SA 
HETATM   19  C   UNL     1     -10.099   5.359  71.136  1.00  0.00    -0.276 A  
HETATM   20  C   UNL     1      -9.012   1.560  70.112  1.00  0.00    -0.068 C  
HETATM   21  C   UNL     1     -10.269   6.603  70.527  1.00  0.00    -0.215 A  
HETATM   22  C   UNL     1      -8.009   2.124  69.124  1.00  0.00    -0.056 C  
HETATM   23  C   UNL     1      -8.561   3.283  68.256  1.00  0.00    -0.119 C  
HETATM   24  C   UNL     1      -9.638   2.746  67.287  1.00  0.00     0.050 C  
HETATM   25  C   UNL     1      -7.359   3.781  67.411  1.00  0.00    -0.067 C  
ENDBRANCH  13  14
ENDBRANCH   9  12
ENDBRANCH   4   6
ENDBRANCH   3   4
ENDBRANCH   2   3
TORSDOF 5
ENDMDL
MODEL       84
REMARK 921   NORMALIZED FREE ENERGY PREDICTED BY IDOCK:   -4.00 KCAL/MOL
REMARK 922        TOTAL FREE ENERGY PREDICTED BY IDOCK:   -5.50 KCAL/MOL
REMARK 923 INTER-LIGAND FREE ENERGY PREDICTED BY IDOCK:   -5.02 KCAL/MOL
REMARK 924 INTRA-LIGAND FREE ENERGY PREDICTED BY IDOCK:   -0.48 KCAL/MOL
REMARK 927      BINDING AFFINITY PREDICTED BY RF-SCORE:    0.00 PKD
ROOT
HETATM    1  C   UNL     1     -10.740  17.076  69.820  1.00  0.00     0.031 C  
HETATM    2  C   UNL     1     -10.566  17.154  68.313  1.00  0.00    -0.375 C  
ENDROOT
BRANCH   2   3
HETATM    3  O   UNL     1     -11.509  16.251  67.716  1.00  0.00    -0.162 OA 
BRANCH   3   4
HETATM    4  C   UNL     1     -10.984  15.364  66.837  1.00  0.00    -0.294 C  
HETATM    5  O   UNL     1     -10.547  15.617  65.726  1.00  0.00    -0.324 OA 
BRANCH   4   6
HETATM    6  C   UNL     1     -10.853  14.033  67.468  1.00  0.00    -0.277 A  
HETATM    7  C   UNL     1      -9.638  13.515  67.902  1.00  0.00    -0.218 A  
HETATM    8  N   UNL     1      -9.474  12.247  68.362  1.00  0.00    -0.203 NA 
HETATM    9  C   UNL     1     -10.575  11.464  68.388  1.00  0.00    -0.202 A  
HETATM   10  C   UNL     1     -11.838  11.900  68.010  1.00  0.00    -0.323 A  
HETATM   11  C   UNL     1     -11.976  13.205  67.543  1.00  0.00    -0.367 A  
BRANCH   9  12
HETATM   12  C   UNL     1     -10.357  10.111  68.788  1.00  0.00    -0.211 C  
HETATM   13  C   UNL     1     -10.198   8.957  69.095  1.00  0.00    -0.214 C  
BRANCH  13  14
HETATM   14  C   UNL     1     -10.039   7.584  69.464  1.00  0.00    -0.189 A  
HETATM   15  C   UNL     1      -9.551   6.652  68.540  1.00  0.00    -0.125 A  
HETATM   16  C   UNL     1      -9.320   5.296  68.887  1.00  0.00    -0.163 A  
HETATM   17  C   UNL     1      -9.647   4.893  70.196  1.00  0.00    -0.193 A  
HETATM   18  S   UNL     1      -9.443   3.244  70.854  1.00  0.00    -0.165 SA 
HETATM   19  C   UNL     1     -10.158   5.833  71.111  1.00  0.00    -0.257 A  
HETATM   20  C   UNL     1      -9.131   2.295  69.352  1.00  0.00    -0.117 C  
HETATM   21  C   UNL     1     -10.349   7.167  70.751  1.00  0.00    -0.219 A  
HETATM   22  C   UNL     1      -8.170   3.037  68.443  1.00  0.00    -0.079 C  
HETATM   23  C   UNL     1      -8.754   4.335  67.831  1.00  0.00    -0.119 C  
HETATM   24  C   UNL     1      -9.874   3.982  66.827  1.00  0.00    -0.163 C  
HETATM   25  C   UNL     1      -7.588   4.986  67.042  1.00  0.00    -0.088 C  
ENDBRANCH  13  14
ENDBRANCH   9  12
ENDBRANCH   4   6
ENDBRANCH   3   4
ENDBRANCH   2   3
TORSDOF 5
ENDMDL
MODEL       85
REMARK 921   NORMALIZED FREE ENERGY PREDICTED BY IDOCK:   -3.99 KCAL/MOL
REMARK 922        TOTAL FREE ENERGY PREDICTED BY IDOCK:   -5.49 KCAL/MOL
REMARK 923 INTER-LIGAND FREE ENERGY PREDICTED BY IDOCK:   -5.96 KCAL/MOL
REMARK 924 INTRA-LIGAND FREE ENERGY PREDICTED BY IDOCK:    0.48 KCAL/MOL
REMARK 927      BINDING AFFINITY PREDICTED BY RF-SCORE:    0.00 PKD
ROOT
HETATM    1  C   UNL     1      -8.030   2.264  72.203  1.00  0.00    -0.053 C  
HETATM    2  C   UNL     1      -8.472   3.263  73.259  1.00  0.00    -0.078 C  
ENDROOT
BRANCH   2   3
HETATM    3  O   UNL     1      -9.624   2.719  73.921  1.00  0.00    -0.087 OA 
BRANCH   3   4
HETATM    4  C   UNL     1     -10.818   3.079  73.392  1.00  0.00    -0.207 C  
HETATM    5  O   UNL     1     -11.866   2.461  73.482  1.00  0.00    -0.181 OA 
BRANCH   4   6
HETATM    6  C   UNL     1     -10.732   4.435  72.806  1.00  0.00    -0.235 A  
HETATM    7  C   UNL     1     -11.145   5.579  73.479  1.00  0.00    -0.167 A  
HETATM    8  N   UNL     1     -11.198   6.814  72.914  1.00  0.00    -0.234 NA 
HETATM    9  C   UNL     1     -10.821   6.906  71.620  1.00  0.00    -0.226 A  
HETATM   10  C   UNL     1     -10.360   5.829  70.875  1.00  0.00    -0.299 A  
HETATM   11  C   UNL     1     -10.316   4.575  71.480  1.00  0.00    -0.138 A  
BRANCH   9  12
HETATM   12  C   UNL     1     -10.974   8.196  71.027  1.00  0.00    -0.273 C  
HETATM   13  C   UNL     1     -11.063   9.284  70.519  1.00  0.00    -0.317 C  
BRANCH  13  14
HETATM   14  C   UNL     1     -11.149  10.589  69.937  1.00  0.00    -0.371 A  
HETATM   15  C   UNL     1     -10.454  10.888  68.759  1.00  0.00    -0.224 A  
HETATM   16  C   UNL     1     -10.564  12.149  68.118  1.00  0.00    -0.236 A  
HETATM   17  C   UNL     1     -11.368  13.127  68.737  1.00  0.00    -0.291 A  
HETATM   18  S   UNL     1     -11.654  14.778  68.115  1.00  0.00    -0.327 SA 
HETATM   19  C   UNL     1     -12.045  12.823  69.932  1.00  0.00    -0.329 A  
HETATM   20  C   UNL     1     -10.390  14.902  66.834  1.00  0.00    -0.264 C  
HETATM   21  C   UNL     1     -11.941  11.565  70.527  1.00  0.00    -0.439 A  
HETATM   22  C   UNL     1     -10.327  13.622  66.022  1.00  0.00    -0.305 C  
HETATM   23  C   UNL     1      -9.798  12.399  66.811  1.00  0.00    -0.228 C  
HETATM   24  C   UNL     1      -8.301  12.595  67.141  1.00  0.00    -0.172 C  
HETATM   25  C   UNL     1      -9.923  11.193  65.844  1.00  0.00    -0.285 C  
ENDBRANCH  13  14
ENDBRANCH   9  12
ENDBRANCH   4   6
ENDBRANCH   3   4
ENDBRANCH   2   3
TORSDOF 5
ENDMDL
MODEL       86
REMARK 921   NORMALIZED FREE ENERGY PREDICTED BY IDOCK:   -3.99 KCAL/MOL
REMARK 922        TOTAL FREE ENERGY PREDICTED BY IDOCK:   -5.49 KCAL/MOL
REMARK 923 INTER-LIGAND FREE ENERGY PREDICTED BY IDOCK:   -5.04 KCAL/MOL
REMARK 924 INTRA-LIGAND FREE ENERGY PREDICTED BY IDOCK:   -0.44 KCAL/MOL
REMARK 927      BINDING AFFINITY PREDICTED BY RF-SCORE:    0.00 PKD
ROOT
HETATM    1  C   UNL     1     -13.328  13.629  72.522  1.00  0.00    -0.638 C  
HETATM    2  C   UNL     1     -12.708  14.735  71.686  1.00  0.00    -0.330 C  
ENDROOT
BRANCH   2   3
HETATM    3  O   UNL     1     -12.839  14.366  70.305  1.00  0.00    -0.327 OA 
BRANCH   3   4
HETATM    4  C   UNL     1     -11.779  14.677  69.521  1.00  0.00    -0.324 C  
HETATM    5  O   UNL     1     -11.186  15.743  69.493  1.00  0.00    -0.269 OA 
BRANCH   4   6
HETATM    6  C   UNL     1     -11.311  13.478  68.791  1.00  0.00    -0.329 A  
HETATM    7  C   UNL     1     -12.052  12.304  68.709  1.00  0.00    -0.112 A  
HETATM    8  N   UNL     1     -11.588  11.152  68.158  1.00  0.00    -0.477 NA 
HETATM    9  C   UNL     1     -10.329  11.177  67.668  1.00  0.00    -0.192 A  
HETATM   10  C   UNL     1      -9.525  12.309  67.671  1.00  0.00    -0.188 A  
HETATM   11  C   UNL     1     -10.027  13.476  68.242  1.00  0.00    -0.237 A  
BRANCH   9  12
HETATM   12  C   UNL     1      -9.835   9.929  67.180  1.00  0.00    -0.235 C  
HETATM   13  C   UNL     1      -9.380   8.892  66.769  1.00  0.00    -0.224 C  
BRANCH  13  14
HETATM   14  C   UNL     1      -8.828   7.675  66.258  1.00  0.00    -0.182 A  
HETATM   15  C   UNL     1      -8.793   6.522  67.051  1.00  0.00    -0.116 A  
HETATM   16  C   UNL     1      -8.312   5.282  66.559  1.00  0.00    -0.108 A  
HETATM   17  C   UNL     1      -7.815   5.252  65.242  1.00  0.00    -0.095 A  
HETATM   18  S   UNL     1      -7.161   3.810  64.413  1.00  0.00    -0.059 SA 
HETATM   19  C   UNL     1      -7.834   6.422  64.460  1.00  0.00    -0.115 A  
HETATM   20  C   UNL     1      -6.971   2.661  65.791  1.00  0.00    -0.048 C  
HETATM   21  C   UNL     1      -8.339   7.623  64.960  1.00  0.00    -0.078 A  
HETATM   22  C   UNL     1      -8.183   2.716  66.701  1.00  0.00    -0.085 C  
HETATM   23  C   UNL     1      -8.332   4.049  67.475  1.00  0.00    -0.098 C  
HETATM   24  C   UNL     1      -7.195   4.182  68.513  1.00  0.00    -0.055 C  
HETATM   25  C   UNL     1      -9.674   3.938  68.244  1.00  0.00    -0.119 C  
ENDBRANCH  13  14
ENDBRANCH   9  12
ENDBRANCH   4   6
ENDBRANCH   3   4
ENDBRANCH   2   3
TORSDOF 5
ENDMDL
MODEL       87
REMARK 921   NORMALIZED FREE ENERGY PREDICTED BY IDOCK:   -3.95 KCAL/MOL
REMARK 922        TOTAL FREE ENERGY PREDICTED BY IDOCK:   -5.43 KCAL/MOL
REMARK 923 INTER-LIGAND FREE ENERGY PREDICTED BY IDOCK:   -4.92 KCAL/MOL
REMARK 924 INTRA-LIGAND FREE ENERGY PREDICTED BY IDOCK:   -0.51 KCAL/MOL
REMARK 927      BINDING AFFINITY PREDICTED BY RF-SCORE:    0.00 PKD
ROOT
HETATM    1  C   UNL     1      -9.344  15.152  66.318  1.00  0.00    -0.348 C  
HETATM    2  C   UNL     1     -10.351  14.706  65.272  1.00  0.00    -0.399 C  
ENDROOT
BRANCH   2   3
HETATM    3  O   UNL     1     -10.199  13.291  65.092  1.00  0.00    -0.307 OA 
BRANCH   3   4
HETATM    4  C   UNL     1     -11.214  12.534  65.576  1.00  0.00    -0.314 C  
HETATM    5  O   UNL     1     -12.350  12.480  65.136  1.00  0.00    -0.492 OA 
BRANCH   4   6
HETATM    6  C   UNL     1     -10.720  11.633  66.640  1.00  0.00    -0.310 A  
HETATM    7  C   UNL     1     -10.051  10.443  66.376  1.00  0.00    -0.228 A  
HETATM    8  N   UNL     1      -9.706   9.539  67.329  1.00  0.00    -0.160 NA 
HETATM    9  C   UNL     1     -10.045   9.841  68.602  1.00  0.00    -0.169 A  
HETATM   10  C   UNL     1     -10.681  11.019  68.971  1.00  0.00    -0.258 A  
HETATM   11  C   UNL     1     -11.022  11.928  67.972  1.00  0.00    -0.271 A  
BRANCH   9  12
HETATM   12  C   UNL     1      -9.753   8.832  69.570  1.00  0.00    -0.172 C  
HETATM   13  C   UNL     1      -9.536   7.958  70.370  1.00  0.00    -0.163 C  
BRANCH  13  14
HETATM   14  C   UNL     1      -9.307   6.921  71.329  1.00  0.00    -0.164 A  
HETATM   15  C   UNL     1      -9.045   5.611  70.910  1.00  0.00    -0.160 A  
HETATM   16  C   UNL     1      -8.751   4.570  71.827  1.00  0.00    -0.131 A  
HETATM   17  C   UNL     1      -8.779   4.884  73.200  1.00  0.00    -0.109 A  
HETATM   18  S   UNL     1      -8.443   3.740  74.531  1.00  0.00    -0.088 SA 
HETATM   19  C   UNL     1      -9.065   6.199  73.612  1.00  0.00    -0.129 A  
HETATM   20  C   UNL     1      -8.482   2.159  73.663  1.00  0.00    -0.062 C  
HETATM   21  C   UNL     1      -9.323   7.211  72.686  1.00  0.00    -0.165 A  
HETATM   22  C   UNL     1      -7.745   2.258  72.342  1.00  0.00    -0.052 C  
HETATM   23  C   UNL     1      -8.442   3.162  71.296  1.00  0.00    -0.093 C  
HETATM   24  C   UNL     1      -9.761   2.505  70.832  1.00  0.00    -0.128 C  
HETATM   25  C   UNL     1      -7.479   3.216  70.081  1.00  0.00    -0.044 C  
ENDBRANCH  13  14
ENDBRANCH   9  12
ENDBRANCH   4   6
ENDBRANCH   3   4
ENDBRANCH   2   3
TORSDOF 5
ENDMDL
MODEL       88
REMARK 921   NORMALIZED FREE ENERGY PREDICTED BY IDOCK:   -3.91 KCAL/MOL
REMARK 922        TOTAL FREE ENERGY PREDICTED BY IDOCK:   -5.38 KCAL/MOL
REMARK 923 INTER-LIGAND FREE ENERGY PREDICTED BY IDOCK:   -4.89 KCAL/MOL
REMARK 924 INTRA-LIGAND FREE ENERGY PREDICTED BY IDOCK:   -0.49 KCAL/MOL
REMARK 927      BINDING AFFINITY PREDICTED BY RF-SCORE:    0.00 PKD
ROOT
HETATM    1  C   UNL     1     -10.623  19.210  66.291  1.00  0.00    -0.521 C  
HETATM    2  C   UNL     1      -9.305  19.936  66.500  1.00  0.00    -0.401 C  
ENDROOT
BRANCH   2   3
HETATM    3  O   UNL     1      -8.969  19.844  67.892  1.00  0.00    -0.318 OA 
BRANCH   3   4
HETATM    4  C   UNL     1      -7.745  19.329  68.159  1.00  0.00    -0.297 C  
HETATM    5  O   UNL     1      -6.751  19.957  68.488  1.00  0.00    -0.282 OA 
BRANCH   4   6
HETATM    6  C   UNL     1      -7.797  17.851  68.156  1.00  0.00    -0.266 A  
HETATM    7  C   UNL     1      -8.780  17.126  68.822  1.00  0.00    -0.235 A  
HETATM    8  N   UNL     1      -8.774  15.773  68.942  1.00  0.00    -0.200 NA 
HETATM    9  C   UNL     1      -7.739  15.118  68.372  1.00  0.00    -0.118 A  
HETATM   10  C   UNL     1      -6.729  15.748  67.657  1.00  0.00    -0.198 A  
HETATM   11  C   UNL     1      -6.762  17.137  67.549  1.00  0.00    -0.160 A  
BRANCH   9  12
HETATM   12  C   UNL     1      -7.709  13.707  68.593  1.00  0.00    -0.107 C  
HETATM   13  C   UNL     1      -7.650  12.515  68.756  1.00  0.00    -0.024 C  
BRANCH  13  14
HETATM   14  C   UNL     1      -7.584  11.095  68.918  1.00  0.00    -0.133 A  
HETATM   15  C   UNL     1      -8.540  10.422  69.687  1.00  0.00    -0.060 A  
HETATM   16  C   UNL     1      -8.545   9.010  69.819  1.00  0.00    -0.138 A  
HETATM   17  C   UNL     1      -7.512   8.293  69.183  1.00  0.00    -0.086 A  
HETATM   18  S   UNL     1      -7.316   6.516  69.211  1.00  0.00    -0.095 SA 
HETATM   19  C   UNL     1      -6.542   8.980  68.431  1.00  0.00    -0.059 A  
HETATM   20  C   UNL     1      -8.474   6.048  70.512  1.00  0.00    -0.132 C  
HETATM   21  C   UNL     1      -6.578  10.369  68.294  1.00  0.00    -0.060 A  
HETATM   22  C   UNL     1      -9.773   6.817  70.371  1.00  0.00    -0.183 C  
HETATM   23  C   UNL     1      -9.643   8.335  70.653  1.00  0.00    -0.190 C  
HETATM   24  C   UNL     1      -9.343   8.565  72.151  1.00  0.00    -0.353 C  
HETATM   25  C   UNL     1     -11.038   8.938  70.344  1.00  0.00    -0.270 C  
ENDBRANCH  13  14
ENDBRANCH   9  12
ENDBRANCH   4   6
ENDBRANCH   3   4
ENDBRANCH   2   3
TORSDOF 5
ENDMDL
MODEL       89
REMARK 921   NORMALIZED FREE ENERGY PREDICTED BY IDOCK:   -3.90 KCAL/MOL
REMARK 922        TOTAL FREE ENERGY PREDICTED BY IDOCK:   -5.37 KCAL/MOL
REMARK 923 INTER-LIGAND FREE ENERGY PREDICTED BY IDOCK:   -4.89 KCAL/MOL
REMARK 924 INTRA-LIGAND FREE ENERGY PREDICTED BY IDOCK:   -0.47 KCAL/MOL
REMARK 927      BINDING AFFINITY PREDICTED BY RF-SCORE:    0.00 PKD
ROOT
HETATM    1  C   UNL     1      -7.853   3.136  67.868  1.00  0.00    -0.067 C  
HETATM    2  C   UNL     1      -8.563   2.852  69.181  1.00  0.00    -0.073 C  
ENDROOT
BRANCH   2   3
HETATM    3  O   UNL     1      -9.697   3.729  69.265  1.00  0.00    -0.176 OA 
BRANCH   3   4
HETATM    4  C   UNL     1      -9.945   4.236  70.496  1.00  0.00    -0.149 C  
HETATM    5  O   UNL     1      -9.917   3.622  71.551  1.00  0.00    -0.174 OA 
BRANCH   4   6
HETATM    6  C   UNL     1     -10.105   5.704  70.425  1.00  0.00    -0.284 A  
HETATM    7  C   UNL     1     -11.343   6.336  70.489  1.00  0.00    -0.361 A  
HETATM    8  N   UNL     1     -11.525   7.668  70.295  1.00  0.00    -0.190 NA 
HETATM    9  C   UNL     1     -10.421   8.399  70.024  1.00  0.00    -0.224 A  
HETATM   10  C   UNL     1      -9.139   7.867  69.974  1.00  0.00    -0.152 A  
HETATM   11  C   UNL     1      -8.982   6.497  70.178  1.00  0.00    -0.155 A  
BRANCH   9  12
HETATM   12  C   UNL     1     -10.653   9.777  69.733  1.00  0.00    -0.285 C  
HETATM   13  C   UNL     1     -10.821  10.938  69.457  1.00  0.00    -0.286 C  
BRANCH  13  14
HETATM   14  C   UNL     1     -10.991  12.321  69.135  1.00  0.00    -0.217 A  
HETATM   15  C   UNL     1     -10.335  12.880  68.032  1.00  0.00    -0.230 A  
HETATM   16  C   UNL     1     -10.527  14.230  67.643  1.00  0.00    -0.248 A  
HETATM   17  C   UNL     1     -11.375  15.023  68.441  1.00  0.00    -0.309 A  
HETATM   18  S   UNL     1     -11.765  16.743  68.146  1.00  0.00     0.740 SA 
HETATM   19  C   UNL     1     -12.013  14.459  69.561  1.00  0.00    -0.376 A  
HETATM   20  C   UNL     1     -10.531  17.182  66.905  1.00  0.00    -0.274 C  
HETATM   21  C   UNL     1     -11.828  13.119  69.904  1.00  0.00    -0.378 A  
HETATM   22  C   UNL     1     -10.409  16.086  65.865  1.00  0.00    -0.386 C  
HETATM   23  C   UNL     1      -9.798  14.768  66.403  1.00  0.00    -0.297 C  
HETATM   24  C   UNL     1      -8.310  14.987  66.756  1.00  0.00    -0.189 C  
HETATM   25  C   UNL     1      -9.870  13.762  65.225  1.00  0.00    -0.155 C  
ENDBRANCH  13  14
ENDBRANCH   9  12
ENDBRANCH   4   6
ENDBRANCH   3   4
ENDBRANCH   2   3
TORSDOF 5
ENDMDL
MODEL       90
REMARK 921   NORMALIZED FREE ENERGY PREDICTED BY IDOCK:   -3.88 KCAL/MOL
REMARK 922        TOTAL FREE ENERGY PREDICTED BY IDOCK:   -5.33 KCAL/MOL
REMARK 923 INTER-LIGAND FREE ENERGY PREDICTED BY IDOCK:   -4.83 KCAL/MOL
REMARK 924 INTRA-LIGAND FREE ENERGY PREDICTED BY IDOCK:   -0.50 KCAL/MOL
REMARK 927      BINDING AFFINITY PREDICTED BY RF-SCORE:    0.00 PKD
ROOT
HETATM    1  C   UNL     1      -8.171  16.020  69.136  1.00  0.00    -0.241 C  
HETATM    2  C   UNL     1      -9.357  16.598  68.384  1.00  0.00    -0.224 C  
ENDROOT
BRANCH   2   3
HETATM    3  O   UNL     1      -9.859  15.579  67.507  1.00  0.00    -0.219 OA 
BRANCH   3   4
HETATM    4  C   UNL     1     -10.928  14.890  67.974  1.00  0.00    -0.279 C  
HETATM    5  O   UNL     1     -12.013  15.357  68.280  1.00  0.00    -0.283 OA 
BRANCH   4   6
HETATM    6  C   UNL     1     -10.666  13.436  67.917  1.00  0.00    -0.259 A  
HETATM    7  C   UNL     1      -9.483  12.897  67.422  1.00  0.00    -0.198 A  
HETATM    8  N   UNL     1      -9.274  11.567  67.239  1.00  0.00    -0.165 NA 
HETATM    9  C   UNL     1     -10.293  10.742  67.565  1.00  0.00    -0.206 A  
HETATM   10  C   UNL     1     -11.497  11.180  68.099  1.00  0.00    -0.373 A  
HETATM   11  C   UNL     1     -11.684  12.549  68.277  1.00  0.00    -0.390 A  
BRANCH   9  12
HETATM   12  C   UNL     1     -10.079   9.360  67.276  1.00  0.00    -0.285 C  
HETATM   13  C   UNL     1      -9.860   8.202  67.024  1.00  0.00    -0.299 C  
BRANCH  13  14
HETATM   14  C   UNL     1      -9.589   6.836  66.697  1.00  0.00    -0.211 A  
HETATM   15  C   UNL     1      -8.271   6.386  66.555  1.00  0.00    -0.113 A  
HETATM   16  C   UNL     1      -7.962   5.027  66.294  1.00  0.00    -0.107 A  
HETATM   17  C   UNL     1      -9.038   4.134  66.129  1.00  0.00    -0.137 A  
HETATM   18  S   UNL     1      -8.890   2.384  65.795  1.00  0.00    -0.121 SA 
HETATM   19  C   UNL     1     -10.360   4.600  66.251  1.00  0.00    -0.293 A  
HETATM   20  C   UNL     1      -7.144   2.248  65.363  1.00  0.00    -0.056 C  
HETATM   21  C   UNL     1     -10.636   5.937  66.536  1.00  0.00    -0.266 A  
HETATM   22  C   UNL     1      -6.294   3.067  66.316  1.00  0.00    -0.028 C  
HETATM   23  C   UNL     1      -6.491   4.598  66.182  1.00  0.00    -0.041 C  
HETATM   24  C   UNL     1      -5.934   5.081  64.824  1.00  0.00    -0.021 C  
HETATM   25  C   UNL     1      -5.631   5.230  67.306  1.00  0.00    -0.013 C  
ENDBRANCH  13  14
ENDBRANCH   9  12
ENDBRANCH   4   6
ENDBRANCH   3   4
ENDBRANCH   2   3
TORSDOF 5
ENDMDL
MODEL       91
REMARK 921   NORMALIZED FREE ENERGY PREDICTED BY IDOCK:   -3.84 KCAL/MOL
REMARK 922        TOTAL FREE ENERGY PREDICTED BY IDOCK:   -5.28 KCAL/MOL
REMARK 923 INTER-LIGAND FREE ENERGY PREDICTED BY IDOCK:   -5.05 KCAL/MOL
REMARK 924 INTRA-LIGAND FREE ENERGY PREDICTED BY IDOCK:   -0.23 KCAL/MOL
REMARK 927      BINDING AFFINITY PREDICTED BY RF-SCORE:    0.00 PKD
ROOT
HETATM    1  C   UNL     1      -9.181   3.470  62.472  1.00  0.00    -0.090 C  
HETATM    2  C   UNL     1     -10.551   3.011  62.943  1.00  0.00    -0.188 C  
ENDROOT
BRANCH   2   3
HETATM    3  O   UNL     1     -10.882   3.759  64.122  1.00  0.00    -0.285 OA 
BRANCH   3   4
HETATM    4  C   UNL     1      -9.972   3.691  65.124  1.00  0.00    -0.083 C  
HETATM    5  O   UNL     1      -9.391   2.689  65.507  1.00  0.00    -0.131 OA 
BRANCH   4   6
HETATM    6  C   UNL     1      -9.641   5.048  65.610  1.00  0.00    -0.138 A  
HETATM    7  C   UNL     1     -10.513   5.813  66.377  1.00  0.00    -0.157 A  
HETATM    8  N   UNL     1     -10.284   7.106  66.722  1.00  0.00    -0.235 NA 
HETATM    9  C   UNL     1      -9.132   7.658  66.281  1.00  0.00    -0.162 A  
HETATM   10  C   UNL     1      -8.182   6.966  65.540  1.00  0.00    -0.135 A  
HETATM   11  C   UNL     1      -8.444   5.640  65.201  1.00  0.00    -0.144 A  
BRANCH   9  12
HETATM   12  C   UNL     1      -8.961   9.044  66.579  1.00  0.00    -0.177 C  
HETATM   13  C   UNL     1      -8.833  10.206  66.868  1.00  0.00    -0.142 C  
BRANCH  13  14
HETATM   14  C   UNL     1      -8.713  11.589  67.216  1.00  0.00    -0.151 A  
HETATM   15  C   UNL     1      -9.674  12.514  66.792  1.00  0.00    -0.234 A  
HETATM   16  C   UNL     1      -9.624  13.881  67.169  1.00  0.00    -0.247 A  
HETATM   17  C   UNL     1      -8.533  14.300  67.956  1.00  0.00    -0.164 A  
HETATM   18  S   UNL     1      -8.261  15.964  68.547  1.00  0.00    -0.180 SA 
HETATM   19  C   UNL     1      -7.560  13.366  68.358  1.00  0.00    -0.133 A  
HETATM   20  C   UNL     1      -9.457  16.893  67.566  1.00  0.00    -0.241 C  
HETATM   21  C   UNL     1      -7.649  12.022  67.996  1.00  0.00    -0.120 A  
HETATM   22  C   UNL     1     -10.781  16.155  67.502  1.00  0.00    -0.304 C  
HETATM   23  C   UNL     1     -10.730  14.834  66.694  1.00  0.00    -0.309 C  
HETATM   24  C   UNL     1     -10.509  15.145  65.196  1.00  0.00    -0.437 C  
HETATM   25  C   UNL     1     -12.133  14.194  66.850  1.00  0.00    -0.466 C  
ENDBRANCH  13  14
ENDBRANCH   9  12
ENDBRANCH   4   6
ENDBRANCH   3   4
ENDBRANCH   2   3
TORSDOF 5
ENDMDL
MODEL       92
REMARK 921   NORMALIZED FREE ENERGY PREDICTED BY IDOCK:   -3.82 KCAL/MOL
REMARK 922        TOTAL FREE ENERGY PREDICTED BY IDOCK:   -5.27 KCAL/MOL
REMARK 923 INTER-LIGAND FREE ENERGY PREDICTED BY IDOCK:   -4.86 KCAL/MOL
REMARK 924 INTRA-LIGAND FREE ENERGY PREDICTED BY IDOCK:   -0.41 KCAL/MOL
REMARK 927      BINDING AFFINITY PREDICTED BY RF-SCORE:    0.00 PKD
ROOT
HETATM    1  C   UNL     1     -10.048   5.764  69.223  1.00  0.00    -0.268 C  
HETATM    2  C   UNL     1     -11.044   6.429  70.159  1.00  0.00    -0.365 C  
ENDROOT
BRANCH   2   3
HETATM    3  O   UNL     1     -10.325   7.378  70.961  1.00  0.00    -0.196 OA 
BRANCH   3   4
HETATM    4  C   UNL     1     -11.089   8.320  71.565  1.00  0.00    -0.259 C  
HETATM    5  O   UNL     1     -11.584   8.245  72.678  1.00  0.00    -0.399 OA 
BRANCH   4   6
HETATM    6  C   UNL     1     -11.121   9.555  70.752  1.00  0.00    -0.390 A  
HETATM    7  C   UNL     1     -10.118   9.895  69.851  1.00  0.00    -0.257 A  
HETATM    8  N   UNL     1     -10.062  11.082  69.192  1.00  0.00    -0.185 NA 
HETATM    9  C   UNL     1     -11.052  11.966  69.448  1.00  0.00    -0.153 A  
HETATM   10  C   UNL     1     -12.114  11.705  70.303  1.00  0.00    -0.443 A  
HETATM   11  C   UNL     1     -12.147  10.479  70.964  1.00  0.00    -0.492 A  
BRANCH   9  12
HETATM   12  C   UNL     1     -10.917  13.238  68.814  1.00  0.00    -0.294 C  
HETATM   13  C   UNL     1     -10.776  14.295  68.253  1.00  0.00    -0.253 C  
BRANCH  13  14
HETATM   14  C   UNL     1     -10.579  15.549  67.593  1.00  0.00    -0.291 A  
HETATM   15  C   UNL     1      -9.838  16.566  68.207  1.00  0.00    -0.243 A  
HETATM   16  C   UNL     1      -9.568  17.799  67.559  1.00  0.00    -0.268 A  
HETATM   17  C   UNL     1     -10.115  17.995  66.277  1.00  0.00    -0.363 A  
HETATM   18  S   UNL     1      -9.907  19.460  65.275  1.00  0.00     1.447 SA 
HETATM   19  C   UNL     1     -10.876  16.975  65.677  1.00  0.00    -0.063 A  
HETATM   20  C   UNL     1      -9.221  20.620  66.474  1.00  0.00     0.020 C  
HETATM   21  C   UNL     1     -11.104  15.761  66.326  1.00  0.00    -0.073 A  
HETATM   22  C   UNL     1      -8.164  19.943  67.325  1.00  0.00    -0.350 C  
HETATM   23  C   UNL     1      -8.722  18.859  68.281  1.00  0.00    -0.367 C  
HETATM   24  C   UNL     1      -9.584  19.521  69.379  1.00  0.00    -0.162 C  
HETATM   25  C   UNL     1      -7.481  18.224  68.961  1.00  0.00    -0.189 C  
ENDBRANCH  13  14
ENDBRANCH   9  12
ENDBRANCH   4   6
ENDBRANCH   3   4
ENDBRANCH   2   3
TORSDOF 5
ENDMDL
MODEL       93
REMARK 921   NORMALIZED FREE ENERGY PREDICTED BY IDOCK:   -3.81 KCAL/MOL
REMARK 922        TOTAL FREE ENERGY PREDICTED BY IDOCK:   -5.25 KCAL/MOL
REMARK 923 INTER-LIGAND FREE ENERGY PREDICTED BY IDOCK:   -5.01 KCAL/MOL
REMARK 924 INTRA-LIGAND FREE ENERGY PREDICTED BY IDOCK:   -0.24 KCAL/MOL
REMARK 927      BINDING AFFINITY PREDICTED BY RF-SCORE:    0.00 PKD
ROOT
HETATM    1  C   UNL     1      -8.695   4.506  71.169  1.00  0.00    -0.141 C  
HETATM    2  C   UNL     1      -9.120   3.268  70.398  1.00  0.00    -0.121 C  
ENDROOT
BRANCH   2   3
HETATM    3  O   UNL     1      -8.185   3.076  69.327  1.00  0.00    -0.057 OA 
BRANCH   3   4
HETATM    4  C   UNL     1      -8.673   3.308  68.085  1.00  0.00    -0.105 C  
HETATM    5  O   UNL     1      -8.968   2.464  67.253  1.00  0.00    -0.129 OA 
BRANCH   4   6
HETATM    6  C   UNL     1      -8.965   4.747  67.907  1.00  0.00    -0.124 A  
HETATM    7  C   UNL     1     -10.252   5.244  67.728  1.00  0.00    -0.156 A  
HETATM    8  N   UNL     1     -10.529   6.540  67.434  1.00  0.00    -0.213 NA 
HETATM    9  C   UNL     1      -9.474   7.375  67.314  1.00  0.00    -0.146 A  
HETATM   10  C   UNL     1      -8.157   6.983  67.509  1.00  0.00    -0.113 A  
HETATM   11  C   UNL     1      -7.901   5.647  67.811  1.00  0.00    -0.097 A  
BRANCH   9  12
HETATM   12  C   UNL     1      -9.790   8.710  66.914  1.00  0.00    -0.305 C  
HETATM   13  C   UNL     1     -10.044   9.825  66.538  1.00  0.00    -0.307 C  
BRANCH  13  14
HETATM   14  C   UNL     1     -10.316  11.154  66.081  1.00  0.00    -0.302 A  
HETATM   15  C   UNL     1      -9.894  12.261  66.826  1.00  0.00    -0.218 A  
HETATM   16  C   UNL     1     -10.089  13.592  66.375  1.00  0.00    -0.294 A  
HETATM   17  C   UNL     1     -10.776  13.774  65.160  1.00  0.00    -0.358 A  
HETATM   18  S   UNL     1     -11.136  15.351  64.400  1.00  0.00     0.033 SA 
HETATM   19  C   UNL     1     -11.217  12.655  64.430  1.00  0.00    -0.391 A  
HETATM   20  C   UNL     1     -10.761  16.492  65.746  1.00  0.00    -0.225 C  
HETATM   21  C   UNL     1     -10.986  11.355  64.882  1.00  0.00    -0.284 A  
HETATM   22  C   UNL     1      -9.475  16.090  66.442  1.00  0.00    -0.322 C  
HETATM   23  C   UNL     1      -9.571  14.759  67.229  1.00  0.00    -0.223 C  
HETATM   24  C   UNL     1     -10.505  14.938  68.447  1.00  0.00    -0.243 C  
HETATM   25  C   UNL     1      -8.140  14.482  67.757  1.00  0.00    -0.166 C  
ENDBRANCH  13  14
ENDBRANCH   9  12
ENDBRANCH   4   6
ENDBRANCH   3   4
ENDBRANCH   2   3
TORSDOF 5
ENDMDL
MODEL       94
REMARK 921   NORMALIZED FREE ENERGY PREDICTED BY IDOCK:   -3.76 KCAL/MOL
REMARK 922        TOTAL FREE ENERGY PREDICTED BY IDOCK:   -5.19 KCAL/MOL
REMARK 923 INTER-LIGAND FREE ENERGY PREDICTED BY IDOCK:   -4.70 KCAL/MOL
REMARK 924 INTRA-LIGAND FREE ENERGY PREDICTED BY IDOCK:   -0.49 KCAL/MOL
REMARK 927      BINDING AFFINITY PREDICTED BY RF-SCORE:    0.00 PKD
ROOT
HETATM    1  C   UNL     1      -7.484   3.446  65.104  1.00  0.00    -0.073 C  
HETATM    2  C   UNL     1      -8.734   2.589  65.199  1.00  0.00    -0.114 C  
ENDROOT
BRANCH   2   3
HETATM    3  O   UNL     1      -9.739   3.353  65.881  1.00  0.00    -0.111 OA 
BRANCH   3   4
HETATM    4  C   UNL     1      -9.543   3.508  67.212  1.00  0.00    -0.122 C  
HETATM    5  O   UNL     1      -9.275   2.626  68.012  1.00  0.00    -0.170 OA 
BRANCH   4   6
HETATM    6  C   UNL     1      -9.538   4.944  67.567  1.00  0.00    -0.179 A  
HETATM    7  C   UNL     1     -10.324   5.888  66.916  1.00  0.00    -0.247 A  
HETATM    8  N   UNL     1     -10.239   7.226  67.136  1.00  0.00    -0.239 NA 
HETATM    9  C   UNL     1      -9.328   7.635  68.046  1.00  0.00    -0.140 A  
HETATM   10  C   UNL     1      -8.522   6.768  68.772  1.00  0.00    -0.124 A  
HETATM   11  C   UNL     1      -8.632   5.401  68.527  1.00  0.00    -0.098 A  
BRANCH   9  12
HETATM   12  C   UNL     1      -9.195   9.050  68.188  1.00  0.00    -0.141 C  
HETATM   13  C   UNL     1      -9.095  10.248  68.269  1.00  0.00    -0.139 C  
BRANCH  13  14
HETATM   14  C   UNL     1      -8.954  11.670  68.342  1.00  0.00    -0.176 A  
HETATM   15  C   UNL     1     -10.083  12.491  68.439  1.00  0.00    -0.216 A  
HETATM   16  C   UNL     1      -9.982  13.900  68.577  1.00  0.00    -0.221 A  
HETATM   17  C   UNL     1      -8.692  14.465  68.564  1.00  0.00    -0.180 A  
HETATM   18  S   UNL     1      -8.323  16.206  68.723  1.00  0.00    -0.243 SA 
HETATM   19  C   UNL     1      -7.564  13.632  68.444  1.00  0.00    -0.132 A  
HETATM   20  C   UNL     1      -9.954  16.941  68.494  1.00  0.00    -0.275 C  
HETATM   21  C   UNL     1      -7.691  12.247  68.338  1.00  0.00    -0.141 A  
HETATM   22  C   UNL     1     -11.003  16.160  69.263  1.00  0.00    -0.315 C  
HETATM   23  C   UNL     1     -11.263  14.737  68.709  1.00  0.00    -0.286 C  
HETATM   24  C   UNL     1     -11.942  14.830  67.325  1.00  0.00    -0.236 C  
HETATM   25  C   UNL     1     -12.266  14.082  69.694  1.00  0.00    -0.383 C  
ENDBRANCH  13  14
ENDBRANCH   9  12
ENDBRANCH   4   6
ENDBRANCH   3   4
ENDBRANCH   2   3
TORSDOF 5
ENDMDL
MODEL       95
REMARK 921   NORMALIZED FREE ENERGY PREDICTED BY IDOCK:   -3.63 KCAL/MOL
REMARK 922        TOTAL FREE ENERGY PREDICTED BY IDOCK:   -5.01 KCAL/MOL
REMARK 923 INTER-LIGAND FREE ENERGY PREDICTED BY IDOCK:   -4.70 KCAL/MOL
REMARK 924 INTRA-LIGAND FREE ENERGY PREDICTED BY IDOCK:   -0.31 KCAL/MOL
REMARK 927      BINDING AFFINITY PREDICTED BY RF-SCORE:    0.00 PKD
ROOT
HETATM    1  C   UNL     1      -7.371   3.996  65.856  1.00  0.00    -0.076 C  
HETATM    2  C   UNL     1      -8.660   3.197  65.940  1.00  0.00    -0.118 C  
ENDROOT
BRANCH   2   3
HETATM    3  O   UNL     1      -9.658   4.036  66.539  1.00  0.00    -0.189 OA 
BRANCH   3   4
HETATM    4  C   UNL     1      -9.332   4.549  67.750  1.00  0.00    -0.147 C  
HETATM    5  O   UNL     1      -8.911   3.926  68.710  1.00  0.00    -0.093 OA 
BRANCH   4   6
HETATM    6  C   UNL     1      -9.399   6.026  67.717  1.00  0.00    -0.106 A  
HETATM    7  C   UNL     1     -10.420   6.725  67.081  1.00  0.00    -0.293 A  
HETATM    8  N   UNL     1     -10.433   8.074  66.926  1.00  0.00    -0.341 NA 
HETATM    9  C   UNL     1      -9.379   8.753  67.429  1.00  0.00    -0.137 A  
HETATM   10  C   UNL     1      -8.330   8.151  68.110  1.00  0.00    -0.129 A  
HETATM   11  C   UNL     1      -8.343   6.765  68.255  1.00  0.00    -0.118 A  
BRANCH   9  12
HETATM   12  C   UNL     1      -9.374  10.158  67.170  1.00  0.00    -0.176 C  
HETATM   13  C   UNL     1      -9.392  11.348  66.986  1.00  0.00    -0.183 C  
BRANCH  13  14
HETATM   14  C   UNL     1      -9.445  12.761  66.766  1.00  0.00    -0.243 A  
HETATM   15  C   UNL     1      -8.493  13.607  67.346  1.00  0.00    -0.206 A  
HETATM   16  C   UNL     1      -8.475  15.003  67.100  1.00  0.00    -0.244 A  
HETATM   17  C   UNL     1      -9.489  15.534  66.280  1.00  0.00    -0.323 A  
HETATM   18  S   UNL     1      -9.666  17.256  65.833  1.00  0.00    -0.003 SA 
HETATM   19  C   UNL     1     -10.455  14.679  65.719  1.00  0.00    -0.338 A  
HETATM   20  C   UNL     1      -8.522  18.044  66.985  1.00  0.00    -0.237 C  
HETATM   21  C   UNL     1     -10.433  13.304  65.955  1.00  0.00    -0.289 A  
HETATM   22  C   UNL     1      -7.230  17.255  67.074  1.00  0.00    -0.218 C  
HETATM   23  C   UNL     1      -7.381  15.868  67.745  1.00  0.00    -0.162 C  
HETATM   24  C   UNL     1      -7.706  16.044  69.245  1.00  0.00    -0.223 C  
HETATM   25  C   UNL     1      -5.988  15.194  67.631  1.00  0.00    -0.104 C  
ENDBRANCH  13  14
ENDBRANCH   9  12
ENDBRANCH   4   6
ENDBRANCH   3   4
ENDBRANCH   2   3
TORSDOF 5
ENDMDL
MODEL       96
REMARK 921   NORMALIZED FREE ENERGY PREDICTED BY IDOCK:   -3.59 KCAL/MOL
REMARK 922        TOTAL FREE ENERGY PREDICTED BY IDOCK:   -4.96 KCAL/MOL
REMARK 923 INTER-LIGAND FREE ENERGY PREDICTED BY IDOCK:   -4.56 KCAL/MOL
REMARK 924 INTRA-LIGAND FREE ENERGY PREDICTED BY IDOCK:   -0.40 KCAL/MOL
REMARK 927      BINDING AFFINITY PREDICTED BY RF-SCORE:    0.00 PKD
ROOT
HETATM    1  C   UNL     1     -12.285  14.396  64.904  1.00  0.00    -0.440 C  
HETATM    2  C   UNL     1     -11.277  15.382  65.469  1.00  0.00    -0.234 C  
ENDROOT
BRANCH   2   3
HETATM    3  O   UNL     1     -10.530  14.708  66.492  1.00  0.00    -0.280 OA 
BRANCH   3   4
HETATM    4  C   UNL     1     -11.212  14.457  67.636  1.00  0.00    -0.313 C  
HETATM    5  O   UNL     1     -12.121  15.127  68.098  1.00  0.00    -0.205 OA 
BRANCH   4   6
HETATM    6  C   UNL     1     -10.814  13.147  68.194  1.00  0.00    -0.271 A  
HETATM    7  C   UNL     1      -9.601  12.533  67.900  1.00  0.00    -0.206 A  
HETATM    8  N   UNL     1      -9.272  11.276  68.295  1.00  0.00    -0.170 NA 
HETATM    9  C   UNL     1     -10.196  10.604  69.015  1.00  0.00    -0.215 A  
HETATM   10  C   UNL     1     -11.420  11.143  69.390  1.00  0.00    -0.368 A  
HETATM   11  C   UNL     1     -11.731  12.435  68.971  1.00  0.00    -0.372 A  
BRANCH   9  12
HETATM   12  C   UNL     1      -9.861   9.254  69.337  1.00  0.00    -0.177 C  
HETATM   13  C   UNL     1      -9.582   8.105  69.568  1.00  0.00    -0.168 C  
BRANCH  13  14
HETATM   14  C   UNL     1      -9.276   6.732  69.830  1.00  0.00    -0.147 A  
HETATM   15  C   UNL     1      -7.947   6.293  69.858  1.00  0.00    -0.115 A  
HETATM   16  C   UNL     1      -7.602   4.954  70.176  1.00  0.00    -0.059 A  
HETATM   17  C   UNL     1      -8.654   4.050  70.421  1.00  0.00    -0.072 A  
HETATM   18  S   UNL     1      -8.459   2.323  70.839  1.00  0.00    -0.052 SA 
HETATM   19  C   UNL     1      -9.987   4.497  70.369  1.00  0.00    -0.284 A  
HETATM   20  C   UNL     1      -6.715   2.058  70.462  1.00  0.00    -0.032 C  
HETATM   21  C   UNL     1     -10.298   5.826  70.081  1.00  0.00    -0.324 A  
HETATM   22  C   UNL     1      -5.878   3.216  70.970  1.00  0.00    -0.014 C  
HETATM   23  C   UNL     1      -6.121   4.548  70.218  1.00  0.00    -0.018 C  
HETATM   24  C   UNL     1      -5.594   4.436  68.770  1.00  0.00    -0.013 C  
HETATM   25  C   UNL     1      -5.266   5.608  70.960  1.00  0.00    -0.009 C  
ENDBRANCH  13  14
ENDBRANCH   9  12
ENDBRANCH   4   6
ENDBRANCH   3   4
ENDBRANCH   2   3
TORSDOF 5
ENDMDL
MODEL       97
REMARK 921   NORMALIZED FREE ENERGY PREDICTED BY IDOCK:   -3.59 KCAL/MOL
REMARK 922        TOTAL FREE ENERGY PREDICTED BY IDOCK:   -4.96 KCAL/MOL
REMARK 923 INTER-LIGAND FREE ENERGY PREDICTED BY IDOCK:   -4.60 KCAL/MOL
REMARK 924 INTRA-LIGAND FREE ENERGY PREDICTED BY IDOCK:   -0.36 KCAL/MOL
REMARK 927      BINDING AFFINITY PREDICTED BY RF-SCORE:    0.00 PKD
ROOT
HETATM    1  C   UNL     1      -9.047   4.130  67.438  1.00  0.00    -0.163 C  
HETATM    2  C   UNL     1      -9.392   5.552  67.030  1.00  0.00    -0.118 C  
ENDROOT
BRANCH   2   3
HETATM    3  O   UNL     1      -8.595   6.442  67.826  1.00  0.00    -0.117 OA 
BRANCH   3   4
HETATM    4  C   UNL     1      -7.502   6.948  67.207  1.00  0.00    -0.096 C  
HETATM    5  O   UNL     1      -6.739   6.341  66.473  1.00  0.00    -0.056 OA 
BRANCH   4   6
HETATM    6  C   UNL     1      -7.430   8.412  67.407  1.00  0.00    -0.093 A  
HETATM    7  C   UNL     1      -8.552   9.235  67.395  1.00  0.00    -0.122 A  
HETATM    8  N   UNL     1      -8.497  10.591  67.445  1.00  0.00    -0.122 NA 
HETATM    9  C   UNL     1      -7.268  11.147  67.510  1.00  0.00    -0.101 A  
HETATM   10  C   UNL     1      -6.092  10.411  67.563  1.00  0.00    -0.053 A  
HETATM   11  C   UNL     1      -6.178   9.022  67.511  1.00  0.00    -0.055 A  
BRANCH   9  12
HETATM   12  C   UNL     1      -7.237  12.575  67.468  1.00  0.00    -0.147 C  
HETATM   13  C   UNL     1      -7.232  13.779  67.468  1.00  0.00    -0.173 C  
BRANCH  13  14
HETATM   14  C   UNL     1      -7.257  15.210  67.469  1.00  0.00    -0.227 A  
HETATM   15  C   UNL     1      -8.475  15.899  67.468  1.00  0.00    -0.181 A  
HETATM   16  C   UNL     1      -8.541  17.315  67.533  1.00  0.00    -0.213 A  
HETATM   17  C   UNL     1      -7.324  18.024  67.549  1.00  0.00    -0.206 A  
HETATM   18  S   UNL     1      -7.162  19.802  67.629  1.00  0.00    -0.268 SA 
HETATM   19  C   UNL     1      -6.105  17.322  67.528  1.00  0.00    -0.165 A  
HETATM   20  C   UNL     1      -8.852  20.331  67.284  1.00  0.00    -0.355 C  
HETATM   21  C   UNL     1      -6.069  15.928  67.492  1.00  0.00    -0.174 A  
HETATM   22  C   UNL     1      -9.844  19.473  68.045  1.00  0.00    -0.500 C  
HETATM   23  C   UNL     1      -9.913  18.004  67.559  1.00  0.00    -0.330 C  
HETATM   24  C   UNL     1     -10.525  17.949  66.142  1.00  0.00    -0.321 C  
HETATM   25  C   UNL     1     -10.887  17.288  68.531  1.00  0.00    -0.240 C  
ENDBRANCH  13  14
ENDBRANCH   9  12
ENDBRANCH   4   6
ENDBRANCH   3   4
ENDBRANCH   2   3
TORSDOF 5
ENDMDL
MODEL       98
REMARK 921   NORMALIZED FREE ENERGY PREDICTED BY IDOCK:   -3.55 KCAL/MOL
REMARK 922        TOTAL FREE ENERGY PREDICTED BY IDOCK:   -4.91 KCAL/MOL
REMARK 923 INTER-LIGAND FREE ENERGY PREDICTED BY IDOCK:   -4.53 KCAL/MOL
REMARK 924 INTRA-LIGAND FREE ENERGY PREDICTED BY IDOCK:   -0.39 KCAL/MOL
REMARK 927      BINDING AFFINITY PREDICTED BY RF-SCORE:    0.00 PKD
ROOT
HETATM    1  C   UNL     1     -10.858  19.989  65.228  1.00  0.00     0.065 C  
HETATM    2  C   UNL     1      -9.945  19.932  66.441  1.00  0.00    -0.479 C  
ENDROOT
BRANCH   2   3
HETATM    3  O   UNL     1     -10.765  19.713  67.598  1.00  0.00    -0.445 OA 
BRANCH   3   4
HETATM    4  C   UNL     1     -10.113  19.242  68.688  1.00  0.00    -0.419 C  
HETATM    5  O   UNL     1     -10.017  19.797  69.770  1.00  0.00    -0.196 OA 
BRANCH   4   6
HETATM    6  C   UNL     1      -9.650  17.857  68.451  1.00  0.00    -0.320 A  
HETATM    7  C   UNL     1     -10.518  16.776  68.343  1.00  0.00    -0.339 A  
HETATM    8  N   UNL     1     -10.111  15.483  68.256  1.00  0.00    -0.216 NA 
HETATM    9  C   UNL     1      -8.778  15.263  68.278  1.00  0.00    -0.165 A  
HETATM   10  C   UNL     1      -7.832  16.277  68.347  1.00  0.00    -0.168 A  
HETATM   11  C   UNL     1      -8.279  17.594  68.434  1.00  0.00    -0.289 A  
BRANCH   9  12
HETATM   12  C   UNL     1      -8.382  13.891  68.279  1.00  0.00    -0.163 C  
HETATM   13  C   UNL     1      -8.043  12.736  68.321  1.00  0.00    -0.154 C  
BRANCH  13  14
HETATM   14  C   UNL     1      -7.613  11.373  68.384  1.00  0.00    -0.123 A  
HETATM   15  C   UNL     1      -8.417  10.350  67.867  1.00  0.00    -0.114 A  
HETATM   16  C   UNL     1      -7.998   8.995  67.853  1.00  0.00    -0.102 A  
HETATM   17  C   UNL     1      -6.749   8.693  68.429  1.00  0.00    -0.064 A  
HETATM   18  S   UNL     1      -6.018   7.065  68.524  1.00  0.00    -0.026 SA 
HETATM   19  C   UNL     1      -5.957   9.726  68.966  1.00  0.00    -0.034 A  
HETATM   20  C   UNL     1      -7.421   6.017  68.089  1.00  0.00    -0.089 C  
HETATM   21  C   UNL     1      -6.382  11.055  68.941  1.00  0.00    -0.051 A  
HETATM   22  C   UNL     1      -8.181   6.605  66.917  1.00  0.00    -0.113 C  
HETATM   23  C   UNL     1      -8.918   7.928  67.241  1.00  0.00    -0.137 C  
HETATM   24  C   UNL     1     -10.082   7.654  68.220  1.00  0.00    -0.214 C  
HETATM   25  C   UNL     1      -9.525   8.409  65.897  1.00  0.00    -0.169 C  
ENDBRANCH  13  14
ENDBRANCH   9  12
ENDBRANCH   4   6
ENDBRANCH   3   4
ENDBRANCH   2   3
TORSDOF 5
ENDMDL
MODEL       99
REMARK 921   NORMALIZED FREE ENERGY PREDICTED BY IDOCK:   -3.54 KCAL/MOL
REMARK 922        TOTAL FREE ENERGY PREDICTED BY IDOCK:   -4.89 KCAL/MOL
REMARK 923 INTER-LIGAND FREE ENERGY PREDICTED BY IDOCK:   -4.42 KCAL/MOL
REMARK 924 INTRA-LIGAND FREE ENERGY PREDICTED BY IDOCK:   -0.48 KCAL/MOL
REMARK 927      BINDING AFFINITY PREDICTED BY RF-SCORE:    0.00 PKD
ROOT
HETATM    1  C   UNL     1     -11.362  15.290  69.407  1.00  0.00    -0.304 C  
HETATM    2  C   UNL     1     -11.115  16.051  68.116  1.00  0.00    -0.344 C  
ENDROOT
BRANCH   2   3
HETATM    3  O   UNL     1     -11.559  15.225  67.029  1.00  0.00    -0.245 OA 
BRANCH   3   4
HETATM    4  C   UNL     1     -10.614  14.934  66.102  1.00  0.00    -0.318 C  
HETATM    5  O   UNL     1      -9.982  15.736  65.435  1.00  0.00    -0.346 OA 
BRANCH   4   6
HETATM    6  C   UNL     1     -10.319  13.484  66.108  1.00  0.00    -0.296 A  
HETATM    7  C   UNL     1      -9.237  12.934  66.786  1.00  0.00    -0.230 A  
HETATM    8  N   UNL     1      -8.872  11.628  66.699  1.00  0.00    -0.184 NA 
HETATM    9  C   UNL     1      -9.623  10.840  65.899  1.00  0.00    -0.208 A  
HETATM   10  C   UNL     1     -10.742  11.288  65.209  1.00  0.00    -0.302 A  
HETATM   11  C   UNL     1     -11.094  12.631  65.318  1.00  0.00    -0.330 A  
BRANCH   9  12
HETATM   12  C   UNL     1      -9.162   9.496  65.753  1.00  0.00    -0.267 C  
HETATM   13  C   UNL     1      -8.792   8.362  65.593  1.00  0.00    -0.196 C  
BRANCH  13  14
HETATM   14  C   UNL     1      -8.380   7.005  65.399  1.00  0.00    -0.121 A  
HETATM   15  C   UNL     1      -8.139   6.172  66.498  1.00  0.00    -0.110 A  
HETATM   16  C   UNL     1      -7.792   4.805  66.347  1.00  0.00    -0.099 A  
HETATM   17  C   UNL     1      -7.646   4.311  65.036  1.00  0.00    -0.077 A  
HETATM   18  S   UNL     1      -7.217   2.630  64.604  1.00  0.00    -0.055 SA 
HETATM   19  C   UNL     1      -7.870   5.162  63.938  1.00  0.00    -0.091 A  
HETATM   20  C   UNL     1      -6.677   1.978  66.197  1.00  0.00    -0.038 C  
HETATM   21  C   UNL     1      -8.237   6.496  64.115  1.00  0.00     0.029 A  
HETATM   22  C   UNL     1      -7.618   2.421  67.301  1.00  0.00    -0.061 C  
HETATM   23  C   UNL     1      -7.572   3.941  67.598  1.00  0.00    -0.068 C  
HETATM   24  C   UNL     1      -6.210   4.311  68.225  1.00  0.00    -0.032 C  
HETATM   25  C   UNL     1      -8.675   4.192  68.659  1.00  0.00    -0.126 C  
ENDBRANCH  13  14
ENDBRANCH   9  12
ENDBRANCH   4   6
ENDBRANCH   3   4
ENDBRANCH   2   3
TORSDOF 5
ENDMDL
MODEL      100
REMARK 921   NORMALIZED FREE ENERGY PREDICTED BY IDOCK:   -3.47 KCAL/MOL
REMARK 922        TOTAL FREE ENERGY PREDICTED BY IDOCK:   -4.81 KCAL/MOL
REMARK 923 INTER-LIGAND FREE ENERGY PREDICTED BY IDOCK:   -4.35 KCAL/MOL
REMARK 924 INTRA-LIGAND FREE ENERGY PREDICTED BY IDOCK:   -0.47 KCAL/MOL
REMARK 927      BINDING AFFINITY PREDICTED BY RF-SCORE:    0.00 PKD
ROOT
HETATM    1  C   UNL     1      -5.311  19.105  71.562  1.00  0.00    -0.325 C  
HETATM    2  C   UNL     1      -5.217  17.850  70.711  1.00  0.00    -0.279 C  
ENDROOT
BRANCH   2   3
HETATM    3  O   UNL     1      -5.534  18.212  69.359  1.00  0.00    -0.193 OA 
BRANCH   3   4
HETATM    4  C   UNL     1      -6.797  17.923  68.964  1.00  0.00    -0.242 C  
HETATM    5  O   UNL     1      -7.687  18.727  68.741  1.00  0.00    -0.326 OA 
BRANCH   4   6
HETATM    6  C   UNL     1      -6.927  16.479  68.674  1.00  0.00    -0.167 A  
HETATM    7  C   UNL     1      -6.062  15.796  67.824  1.00  0.00    -0.150 A  
HETATM    8  N   UNL     1      -6.240  14.504  67.441  1.00  0.00    -0.313 NA 
HETATM    9  C   UNL     1      -7.328  13.870  67.930  1.00  0.00    -0.154 A  
HETATM   10  C   UNL     1      -8.228  14.454  68.811  1.00  0.00    -0.126 A  
HETATM   11  C   UNL     1      -8.021  15.779  69.187  1.00  0.00    -0.231 A  
BRANCH   9  12
HETATM   12  C   UNL     1      -7.539  12.546  67.438  1.00  0.00    -0.156 C  
HETATM   13  C   UNL     1      -7.709  11.415  67.061  1.00  0.00    -0.154 C  
BRANCH  13  14
HETATM   14  C   UNL     1      -7.883  10.064  66.623  1.00  0.00    -0.111 A  
HETATM   15  C   UNL     1      -8.472   9.114  67.466  1.00  0.00    -0.116 A  
HETATM   16  C   UNL     1      -8.719   7.782  67.045  1.00  0.00    -0.131 A  
HETATM   17  C   UNL     1      -8.304   7.420  65.749  1.00  0.00    -0.139 A  
HETATM   18  S   UNL     1      -8.510   5.807  65.007  1.00  0.00    -0.085 SA 
HETATM   19  C   UNL     1      -7.693   8.377  64.917  1.00  0.00    -0.106 A  
HETATM   20  C   UNL     1      -8.969   4.811  66.439  1.00  0.00    -0.113 C  
HETATM   21  C   UNL     1      -7.487   9.688  65.347  1.00  0.00    -0.111 A  
HETATM   22  C   UNL     1      -9.973   5.549  67.302  1.00  0.00    -0.190 C  
HETATM   23  C   UNL     1      -9.397   6.800  68.012  1.00  0.00    -0.118 C  
HETATM   24  C   UNL     1      -8.371   6.368  69.083  1.00  0.00    -0.122 C  
HETATM   25  C   UNL     1     -10.599   7.460  68.736  1.00  0.00    -0.189 C  
ENDBRANCH  13  14
ENDBRANCH   9  12
ENDBRANCH   4   6
ENDBRANCH   3   4
ENDBRANCH   2   3
TORSDOF 5
ENDMDL
MODEL      101
REMARK 921   NORMALIZED FREE ENERGY PREDICTED BY IDOCK:   -3.47 KCAL/MOL
REMARK 922        TOTAL FREE ENERGY PREDICTED BY IDOCK:   -4.81 KCAL/MOL
REMARK 923 INTER-LIGAND FREE ENERGY PREDICTED BY IDOCK:   -5.02 KCAL/MOL
REMARK 924 INTRA-LIGAND FREE ENERGY PREDICTED BY IDOCK:    0.21 KCAL/MOL
REMARK 927      BINDING AFFINITY PREDICTED BY RF-SCORE:    0.00 PKD
ROOT
HETATM    1  C   UNL     1      -9.860  19.614  66.515  1.00  0.00    -0.523 C  
HETATM    2  C   UNL     1      -8.413  19.798  66.091  1.00  0.00    -0.341 C  
ENDROOT
BRANCH   2   3
HETATM    3  O   UNL     1      -7.803  20.724  67.002  1.00  0.00    -0.287 OA 
BRANCH   3   4
HETATM    4  C   UNL     1      -6.632  20.314  67.545  1.00  0.00    -0.234 C  
HETATM    5  O   UNL     1      -5.752  21.030  67.995  1.00  0.00    -0.284 OA 
BRANCH   4   6
HETATM    6  C   UNL     1      -6.614  18.841  67.676  1.00  0.00    -0.212 A  
HETATM    7  C   UNL     1      -5.984  18.005  66.759  1.00  0.00    -0.154 A  
HETATM    8  N   UNL     1      -6.066  16.650  66.788  1.00  0.00    -0.300 NA 
HETATM    9  C   UNL     1      -6.810  16.107  67.777  1.00  0.00    -0.145 A  
HETATM   10  C   UNL     1      -7.447  16.854  68.759  1.00  0.00    -0.237 A  
HETATM   11  C   UNL     1      -7.345  18.243  68.705  1.00  0.00    -0.298 A  
BRANCH   9  12
HETATM   12  C   UNL     1      -6.955  14.687  67.727  1.00  0.00    -0.194 C  
HETATM   13  C   UNL     1      -7.035  13.486  67.682  1.00  0.00    -0.176 C  
BRANCH  13  14
HETATM   14  C   UNL     1      -7.118  12.060  67.599  1.00  0.00    -0.118 A  
HETATM   15  C   UNL     1      -8.346  11.409  67.766  1.00  0.00    -0.127 A  
HETATM   16  C   UNL     1      -8.479  10.003  67.629  1.00  0.00    -0.114 A  
HETATM   17  C   UNL     1      -7.312   9.261  67.363  1.00  0.00    -0.087 A  
HETATM   18  S   UNL     1      -7.238   7.488  67.150  1.00  0.00    -0.088 SA 
HETATM   19  C   UNL     1      -6.079   9.923  67.218  1.00  0.00    -0.059 A  
HETATM   20  C   UNL     1      -8.866   6.988  67.745  1.00  0.00    -0.123 C  
HETATM   21  C   UNL     1      -5.981  11.310  67.331  1.00  0.00    -0.062 A  
HETATM   22  C   UNL     1      -9.937   7.923  67.217  1.00  0.00    -0.280 C  
HETATM   23  C   UNL     1      -9.863   9.358  67.795  1.00  0.00    -0.207 C  
HETATM   24  C   UNL     1     -10.225   9.338  69.297  1.00  0.00    -0.211 C  
HETATM   25  C   UNL     1     -10.956  10.166  67.049  1.00  0.00    -0.162 C  
ENDBRANCH  13  14
ENDBRANCH   9  12
ENDBRANCH   4   6
ENDBRANCH   3   4
ENDBRANCH   2   3
TORSDOF 5
ENDMDL
MODEL      102
REMARK 921   NORMALIZED FREE ENERGY PREDICTED BY IDOCK:   -3.43 KCAL/MOL
REMARK 922        TOTAL FREE ENERGY PREDICTED BY IDOCK:   -4.75 KCAL/MOL
REMARK 923 INTER-LIGAND FREE ENERGY PREDICTED BY IDOCK:   -4.36 KCAL/MOL
REMARK 924 INTRA-LIGAND FREE ENERGY PREDICTED BY IDOCK:   -0.39 KCAL/MOL
REMARK 927      BINDING AFFINITY PREDICTED BY RF-SCORE:    0.00 PKD
ROOT
HETATM    1  C   UNL     1     -11.938  15.705  64.214  1.00  0.00    -0.121 C  
HETATM    2  C   UNL     1     -10.755  16.098  65.083  1.00  0.00    -0.371 C  
ENDROOT
BRANCH   2   3
HETATM    3  O   UNL     1     -10.264  14.909  65.720  1.00  0.00    -0.294 OA 
BRANCH   3   4
HETATM    4  C   UNL     1      -9.074  15.042  66.353  1.00  0.00    -0.277 C  
HETATM    5  O   UNL     1      -8.429  16.070  66.473  1.00  0.00    -0.257 OA 
BRANCH   4   6
HETATM    6  C   UNL     1      -8.715  13.783  67.041  1.00  0.00    -0.212 A  
HETATM    7  C   UNL     1      -9.478  12.623  66.947  1.00  0.00    -0.229 A  
HETATM    8  N   UNL     1      -9.240  11.499  67.671  1.00  0.00    -0.168 NA 
HETATM    9  C   UNL     1      -8.193  11.537  68.525  1.00  0.00    -0.148 A  
HETATM   10  C   UNL     1      -7.353  12.633  68.664  1.00  0.00    -0.101 A  
HETATM   11  C   UNL     1      -7.620  13.772  67.908  1.00  0.00    -0.157 A  
BRANCH   9  12
HETATM   12  C   UNL     1      -8.023  10.376  69.340  1.00  0.00    -0.161 C  
HETATM   13  C   UNL     1      -7.908   9.412  70.053  1.00  0.00    -0.135 C  
BRANCH  13  14
HETATM   14  C   UNL     1      -7.763   8.285  70.923  1.00  0.00    -0.082 A  
HETATM   15  C   UNL     1      -8.725   7.268  70.935  1.00  0.00    -0.148 A  
HETATM   16  C   UNL     1      -8.584   6.107  71.736  1.00  0.00    -0.133 A  
HETATM   17  C   UNL     1      -7.454   6.024  72.573  1.00  0.00    -0.098 A  
HETATM   18  S   UNL     1      -7.069   4.662  73.664  1.00  0.00    -0.073 SA 
HETATM   19  C   UNL     1      -6.503   7.062  72.569  1.00  0.00    -0.053 A  
HETATM   20  C   UNL     1      -8.626   3.751  73.662  1.00  0.00    -0.090 C  
HETATM   21  C   UNL     1      -6.652   8.182  71.750  1.00  0.00    -0.058 A  
HETATM   22  C   UNL     1      -9.188   3.660  72.257  1.00  0.00    -0.164 C  
HETATM   23  C   UNL     1      -9.663   5.015  71.677  1.00  0.00    -0.226 C  
HETATM   24  C   UNL     1     -10.910   5.506  72.446  1.00  0.00    -0.301 C  
HETATM   25  C   UNL     1     -10.087   4.719  70.215  1.00  0.00    -0.304 C  
ENDBRANCH  13  14
ENDBRANCH   9  12
ENDBRANCH   4   6
ENDBRANCH   3   4
ENDBRANCH   2   3
TORSDOF 5
ENDMDL
MODEL      103
REMARK 921   NORMALIZED FREE ENERGY PREDICTED BY IDOCK:   -3.38 KCAL/MOL
REMARK 922        TOTAL FREE ENERGY PREDICTED BY IDOCK:   -4.69 KCAL/MOL
REMARK 923 INTER-LIGAND FREE ENERGY PREDICTED BY IDOCK:   -4.23 KCAL/MOL
REMARK 924 INTRA-LIGAND FREE ENERGY PREDICTED BY IDOCK:   -0.46 KCAL/MOL
REMARK 927      BINDING AFFINITY PREDICTED BY RF-SCORE:    0.00 PKD
ROOT
HETATM    1  C   UNL     1      -8.711   2.284  63.124  1.00  0.00    -0.085 C  
HETATM    2  C   UNL     1      -8.869   3.539  63.966  1.00  0.00    -0.097 C  
ENDROOT
BRANCH   2   3
HETATM    3  O   UNL     1      -7.810   3.553  64.934  1.00  0.00    -0.084 OA 
BRANCH   3   4
HETATM    4  C   UNL     1      -6.829   4.459  64.705  1.00  0.00    -0.046 C  
HETATM    5  O   UNL     1      -5.808   4.273  64.063  1.00  0.00    -0.014 OA 
BRANCH   4   6
HETATM    6  C   UNL     1      -7.231   5.790  65.209  1.00  0.00    -0.070 A  
HETATM    7  C   UNL     1      -7.573   6.027  66.536  1.00  0.00    -0.094 A  
HETATM    8  N   UNL     1      -8.070   7.206  66.992  1.00  0.00    -0.115 NA 
HETATM    9  C   UNL     1      -8.229   8.191  66.081  1.00  0.00    -0.117 A  
HETATM   10  C   UNL     1      -7.883   8.064  64.742  1.00  0.00    -0.131 A  
HETATM   11  C   UNL     1      -7.375   6.843  64.302  1.00  0.00    -0.085 A  
BRANCH   9  12
HETATM   12  C   UNL     1      -8.838   9.387  66.569  1.00  0.00    -0.155 C  
HETATM   13  C   UNL     1      -9.347  10.381  67.020  1.00  0.00    -0.176 C  
BRANCH  13  14
HETATM   14  C   UNL     1      -9.974  11.544  67.568  1.00  0.00    -0.207 A  
HETATM   15  C   UNL     1      -9.270  12.751  67.667  1.00  0.00    -0.192 A  
HETATM   16  C   UNL     1      -9.877  13.940  68.145  1.00  0.00    -0.240 A  
HETATM   17  C   UNL     1     -11.216  13.863  68.573  1.00  0.00    -0.270 A  
HETATM   18  S   UNL     1     -12.181  15.226  69.210  1.00  0.00    -0.118 SA 
HETATM   19  C   UNL     1     -11.908  12.640  68.490  1.00  0.00    -0.342 A  
HETATM   20  C   UNL     1     -10.903  16.467  69.494  1.00  0.00    -0.315 C  
HETATM   21  C   UNL     1     -11.296  11.491  67.989  1.00  0.00    -0.368 A  
HETATM   22  C   UNL     1      -9.931  16.506  68.331  1.00  0.00    -0.250 C  
HETATM   23  C   UNL     1      -9.054  15.236  68.197  1.00  0.00    -0.174 C  
HETATM   24  C   UNL     1      -8.068  15.153  69.384  1.00  0.00    -0.200 C  
HETATM   25  C   UNL     1      -8.228  15.434  66.900  1.00  0.00    -0.281 C  
ENDBRANCH  13  14
ENDBRANCH   9  12
ENDBRANCH   4   6
ENDBRANCH   3   4
ENDBRANCH   2   3
TORSDOF 5
ENDMDL
MODEL      104
REMARK 921   NORMALIZED FREE ENERGY PREDICTED BY IDOCK:   -3.33 KCAL/MOL
REMARK 922        TOTAL FREE ENERGY PREDICTED BY IDOCK:   -4.62 KCAL/MOL
REMARK 923 INTER-LIGAND FREE ENERGY PREDICTED BY IDOCK:   -4.18 KCAL/MOL
REMARK 924 INTRA-LIGAND FREE ENERGY PREDICTED BY IDOCK:   -0.44 KCAL/MOL
REMARK 927      BINDING AFFINITY PREDICTED BY RF-SCORE:    0.00 PKD
ROOT
HETATM    1  C   UNL     1      -5.797  20.142  71.136  1.00  0.00    -0.337 C  
HETATM    2  C   UNL     1      -5.609  18.933  70.235  1.00  0.00    -0.238 C  
ENDROOT
BRANCH   2   3
HETATM    3  O   UNL     1      -5.975  19.319  68.901  1.00  0.00    -0.217 OA 
BRANCH   3   4
HETATM    4  C   UNL     1      -7.205  18.917  68.501  1.00  0.00    -0.290 C  
HETATM    5  O   UNL     1      -8.136  19.639  68.186  1.00  0.00    -0.309 OA 
BRANCH   4   6
HETATM    6  C   UNL     1      -7.235  17.447  68.334  1.00  0.00    -0.223 A  
HETATM    7  C   UNL     1      -6.452  16.774  67.402  1.00  0.00    -0.162 A  
HETATM    8  N   UNL     1      -6.559  15.445  67.142  1.00  0.00    -0.282 NA 
HETATM    9  C   UNL     1      -7.488  14.761  67.844  1.00  0.00    -0.145 A  
HETATM   10  C   UNL     1      -8.293  15.336  68.819  1.00  0.00    -0.179 A  
HETATM   11  C   UNL     1      -8.161  16.701  69.066  1.00  0.00    -0.190 A  
BRANCH   9  12
HETATM   12  C   UNL     1      -7.642  13.388  67.484  1.00  0.00    -0.176 C  
HETATM   13  C   UNL     1      -7.782  12.221  67.220  1.00  0.00    -0.161 C  
BRANCH  13  14
HETATM   14  C   UNL     1      -7.927  10.828  66.927  1.00  0.00    -0.133 A  
HETATM   15  C   UNL     1      -7.722  10.350  65.628  1.00  0.00    -0.150 A  
HETATM   16  C   UNL     1      -7.794   8.969  65.312  1.00  0.00    -0.102 A  
HETATM   17  C   UNL     1      -8.133   8.079  66.350  1.00  0.00    -0.107 A  
HETATM   18  S   UNL     1      -8.282   6.306  66.187  1.00  0.00    -0.127 SA 
HETATM   19  C   UNL     1      -8.359   8.572  67.648  1.00  0.00    -0.129 A  
HETATM   20  C   UNL     1      -8.283   6.109  64.394  1.00  0.00    -0.063 C  
HETATM   21  C   UNL     1      -8.254   9.933  67.937  1.00  0.00    -0.113 A  
HETATM   22  C   UNL     1      -7.227   6.995  63.760  1.00  0.00    -0.067 C  
HETATM   23  C   UNL     1      -7.526   8.511  63.870  1.00  0.00    -0.118 C  
HETATM   24  C   UNL     1      -8.751   8.868  62.999  1.00  0.00    -0.075 C  
HETATM   25  C   UNL     1      -6.286   9.225  63.272  1.00  0.00    -0.091 C  
ENDBRANCH  13  14
ENDBRANCH   9  12
ENDBRANCH   4   6
ENDBRANCH   3   4
ENDBRANCH   2   3
TORSDOF 5
ENDMDL
MODEL      105
REMARK 921   NORMALIZED FREE ENERGY PREDICTED BY IDOCK:   -3.31 KCAL/MOL
REMARK 922        TOTAL FREE ENERGY PREDICTED BY IDOCK:   -4.60 KCAL/MOL
REMARK 923 INTER-LIGAND FREE ENERGY PREDICTED BY IDOCK:   -4.12 KCAL/MOL
REMARK 924 INTRA-LIGAND FREE ENERGY PREDICTED BY IDOCK:   -0.49 KCAL/MOL
REMARK 927      BINDING AFFINITY PREDICTED BY RF-SCORE:    0.00 PKD
ROOT
HETATM    1  C   UNL     1     -12.194  15.246  70.723  1.00  0.00    -0.411 C  
HETATM    2  C   UNL     1     -11.355  16.144  69.831  1.00  0.00    -0.317 C  
ENDROOT
BRANCH   2   3
HETATM    3  O   UNL     1     -11.883  16.057  68.499  1.00  0.00    -0.343 OA 
BRANCH   3   4
HETATM    4  C   UNL     1     -10.965  16.150  67.507  1.00  0.00    -0.238 C  
HETATM    5  O   UNL     1     -10.549  17.179  67.000  1.00  0.00    -0.306 OA 
BRANCH   4   6
HETATM    6  C   UNL     1     -10.392  14.819  67.210  1.00  0.00    -0.247 A  
HETATM    7  C   UNL     1     -11.156  13.658  67.165  1.00  0.00    -0.297 A  
HETATM    8  N   UNL     1     -10.634  12.412  67.025  1.00  0.00    -0.223 NA 
HETATM    9  C   UNL     1      -9.289  12.325  66.925  1.00  0.00    -0.210 A  
HETATM   10  C   UNL     1      -8.445  13.427  66.923  1.00  0.00    -0.066 A  
HETATM   11  C   UNL     1      -9.008  14.693  67.068  1.00  0.00    -0.258 A  
BRANCH   9  12
HETATM   12  C   UNL     1      -8.762  10.998  66.872  1.00  0.00    -0.148 C  
HETATM   13  C   UNL     1      -8.326   9.876  66.867  1.00  0.00    -0.124 C  
BRANCH  13  14
HETATM   14  C   UNL     1      -7.786   8.551  66.883  1.00  0.00    -0.091 A  
HETATM   15  C   UNL     1      -8.033   7.696  67.963  1.00  0.00    -0.122 A  
HETATM   16  C   UNL     1      -7.569   6.356  67.987  1.00  0.00    -0.103 A  
HETATM   17  C   UNL     1      -6.797   5.914  66.895  1.00  0.00    -0.063 A  
HETATM   18  S   UNL     1      -6.109   4.275  66.708  1.00  0.00    -0.032 SA 
HETATM   19  C   UNL     1      -6.535   6.788  65.824  1.00  0.00    -0.050 A  
HETATM   20  C   UNL     1      -6.335   3.600  68.365  1.00  0.00    -0.033 C  
HETATM   21  C   UNL     1      -7.027   8.094  65.814  1.00  0.00    -0.064 A  
HETATM   22  C   UNL     1      -7.709   3.954  68.902  1.00  0.00    -0.053 C  
HETATM   23  C   UNL     1      -7.904   5.464  69.191  1.00  0.00    -0.090 C  
HETATM   24  C   UNL     1      -7.020   5.887  70.385  1.00  0.00    -0.058 C  
HETATM   25  C   UNL     1      -9.388   5.619  69.614  1.00  0.00    -0.171 C  
ENDBRANCH  13  14
ENDBRANCH   9  12
ENDBRANCH   4   6
ENDBRANCH   3   4
ENDBRANCH   2   3
TORSDOF 5
ENDMDL
MODEL      106
REMARK 921   NORMALIZED FREE ENERGY PREDICTED BY IDOCK:   -3.26 KCAL/MOL
REMARK 922        TOTAL FREE ENERGY PREDICTED BY IDOCK:   -4.54 KCAL/MOL
REMARK 923 INTER-LIGAND FREE ENERGY PREDICTED BY IDOCK:   -4.07 KCAL/MOL
REMARK 924 INTRA-LIGAND FREE ENERGY PREDICTED BY IDOCK:   -0.47 KCAL/MOL
REMARK 927      BINDING AFFINITY PREDICTED BY RF-SCORE:    0.00 PKD
ROOT
HETATM    1  C   UNL     1      -5.472  11.025  63.146  1.00  0.00     0.049 C  
HETATM    2  C   UNL     1      -6.683  10.589  62.340  1.00  0.00    -0.133 C  
ENDROOT
BRANCH   2   3
HETATM    3  O   UNL     1      -7.384   9.595  63.104  1.00  0.00    -0.108 OA 
BRANCH   3   4
HETATM    4  C   UNL     1      -8.552  10.006  63.653  1.00  0.00    -0.202 C  
HETATM    5  O   UNL     1      -9.415  10.672  63.106  1.00  0.00    -0.269 OA 
BRANCH   4   6
HETATM    6  C   UNL     1      -8.732   9.399  64.990  1.00  0.00    -0.216 A  
HETATM    7  C   UNL     1      -7.840   8.479  65.531  1.00  0.00    -0.104 A  
HETATM    8  N   UNL     1      -8.053   7.812  66.695  1.00  0.00    -0.109 NA 
HETATM    9  C   UNL     1      -9.206   8.078  67.346  1.00  0.00    -0.134 A  
HETATM   10  C   UNL     1     -10.142   9.005  66.905  1.00  0.00    -0.338 A  
HETATM   11  C   UNL     1      -9.897   9.675  65.709  1.00  0.00    -0.373 A  
BRANCH   9  12
HETATM   12  C   UNL     1      -9.446   7.296  68.517  1.00  0.00    -0.140 C  
HETATM   13  C   UNL     1      -9.618   6.610  69.491  1.00  0.00    -0.150 C  
BRANCH  13  14
HETATM   14  C   UNL     1      -9.830   5.770  70.631  1.00  0.00    -0.240 A  
HETATM   15  C   UNL     1      -9.050   4.624  70.824  1.00  0.00    -0.181 A  
HETATM   16  C   UNL     1      -9.188   3.803  71.972  1.00  0.00    -0.175 A  
HETATM   17  C   UNL     1     -10.182   4.151  72.907  1.00  0.00    -0.165 A  
HETATM   18  S   UNL     1     -10.535   3.269  74.421  1.00  0.00    -0.163 SA 
HETATM   19  C   UNL     1     -10.976   5.293  72.693  1.00  0.00    -0.316 A  
HETATM   20  C   UNL     1      -9.611   1.740  74.168  1.00  0.00    -0.068 C  
HETATM   21  C   UNL     1     -10.801   6.099  71.568  1.00  0.00    -0.313 A  
HETATM   22  C   UNL     1      -8.243   2.035  73.585  1.00  0.00    -0.054 C  
HETATM   23  C   UNL     1      -8.277   2.577  72.135  1.00  0.00    -0.054 C  
HETATM   24  C   UNL     1      -8.758   1.468  71.172  1.00  0.00    -0.090 C  
HETATM   25  C   UNL     1      -6.806   2.915  71.780  1.00  0.00    -0.026 C  
ENDBRANCH  13  14
ENDBRANCH   9  12
ENDBRANCH   4   6
ENDBRANCH   3   4
ENDBRANCH   2   3
TORSDOF 5
ENDMDL
MODEL      107
REMARK 921   NORMALIZED FREE ENERGY PREDICTED BY IDOCK:   -3.25 KCAL/MOL
REMARK 922        TOTAL FREE ENERGY PREDICTED BY IDOCK:   -4.53 KCAL/MOL
REMARK 923 INTER-LIGAND FREE ENERGY PREDICTED BY IDOCK:   -4.27 KCAL/MOL
REMARK 924 INTRA-LIGAND FREE ENERGY PREDICTED BY IDOCK:   -0.25 KCAL/MOL
REMARK 927      BINDING AFFINITY PREDICTED BY RF-SCORE:    0.00 PKD
ROOT
HETATM    1  C   UNL     1     -10.602  16.042  69.563  1.00  0.00    -0.290 C  
HETATM    2  C   UNL     1      -9.134  16.299  69.271  1.00  0.00    -0.185 C  
ENDROOT
BRANCH   2   3
HETATM    3  O   UNL     1      -9.037  16.820  67.937  1.00  0.00    -0.218 OA 
BRANCH   3   4
HETATM    4  C   UNL     1      -7.994  16.353  67.209  1.00  0.00    -0.168 C  
HETATM    5  O   UNL     1      -7.071  17.012  66.760  1.00  0.00    -0.188 OA 
BRANCH   4   6
HETATM    6  C   UNL     1      -8.027  14.875  67.154  1.00  0.00    -0.227 A  
HETATM    7  C   UNL     1      -9.077  14.161  66.587  1.00  0.00    -0.216 A  
HETATM    8  N   UNL     1      -9.191  12.808  66.642  1.00  0.00    -0.228 NA 
HETATM    9  C   UNL     1      -8.212  12.143  67.293  1.00  0.00    -0.180 A  
HETATM   10  C   UNL     1      -7.106  12.762  67.860  1.00  0.00    -0.118 A  
HETATM   11  C   UNL     1      -7.015  14.150  67.788  1.00  0.00    -0.189 A  
BRANCH   9  12
HETATM   12  C   UNL     1      -8.404  10.733  67.415  1.00  0.00    -0.119 C  
HETATM   13  C   UNL     1      -8.536   9.543  67.546  1.00  0.00    -0.126 C  
BRANCH  13  14
HETATM   14  C   UNL     1      -8.663   8.125  67.693  1.00  0.00    -0.130 A  
HETATM   15  C   UNL     1      -8.832   7.554  68.960  1.00  0.00    -0.132 A  
HETATM   16  C   UNL     1      -9.025   6.161  69.140  1.00  0.00    -0.126 A  
HETATM   17  C   UNL     1      -8.993   5.345  67.993  1.00  0.00    -0.108 A  
HETATM   18  S   UNL     1      -9.212   3.571  67.976  1.00  0.00    -0.184 SA 
HETATM   19  C   UNL     1      -8.801   5.926  66.726  1.00  0.00    -0.118 A  
HETATM   20  C   UNL     1      -9.068   3.176  69.731  1.00  0.00    -0.131 C  
HETATM   21  C   UNL     1      -8.641   7.304  66.574  1.00  0.00    -0.134 A  
HETATM   22  C   UNL     1      -9.839   4.180  70.567  1.00  0.00    -0.252 C  
HETATM   23  C   UNL     1      -9.235   5.606  70.557  1.00  0.00    -0.175 C  
HETATM   24  C   UNL     1      -7.879   5.607  71.298  1.00  0.00    -0.111 C  
HETATM   25  C   UNL     1     -10.225   6.484  71.366  1.00  0.00    -0.221 C  
ENDBRANCH  13  14
ENDBRANCH   9  12
ENDBRANCH   4   6
ENDBRANCH   3   4
ENDBRANCH   2   3
TORSDOF 5
ENDMDL
MODEL      108
REMARK 921   NORMALIZED FREE ENERGY PREDICTED BY IDOCK:   -3.24 KCAL/MOL
REMARK 922        TOTAL FREE ENERGY PREDICTED BY IDOCK:   -4.51 KCAL/MOL
REMARK 923 INTER-LIGAND FREE ENERGY PREDICTED BY IDOCK:   -4.07 KCAL/MOL
REMARK 924 INTRA-LIGAND FREE ENERGY PREDICTED BY IDOCK:   -0.43 KCAL/MOL
REMARK 927      BINDING AFFINITY PREDICTED BY RF-SCORE:    0.00 PKD
ROOT
HETATM    1  C   UNL     1      -8.658   7.985  72.983  1.00  0.00    -0.265 C  
HETATM    2  C   UNL     1      -8.370   6.720  72.193  1.00  0.00    -0.107 C  
ENDROOT
BRANCH   2   3
HETATM    3  O   UNL     1      -7.107   6.893  71.532  1.00  0.00    -0.072 OA 
BRANCH   3   4
HETATM    4  C   UNL     1      -7.179   7.133  70.201  1.00  0.00    -0.078 C  
HETATM    5  O   UNL     1      -7.309   6.298  69.321  1.00  0.00    -0.086 OA 
BRANCH   4   6
HETATM    6  C   UNL     1      -7.243   8.588  69.944  1.00  0.00    -0.051 A  
HETATM    7  C   UNL     1      -8.304   9.196  69.282  1.00  0.00    -0.123 A  
HETATM    8  N   UNL     1      -8.322  10.505  68.920  1.00  0.00    -0.138 NA 
HETATM    9  C   UNL     1      -7.231  11.237  69.235  1.00  0.00    -0.094 A  
HETATM   10  C   UNL     1      -6.138  10.731  69.925  1.00  0.00    -0.094 A  
HETATM   11  C   UNL     1      -6.147   9.385  70.284  1.00  0.00    -0.049 A  
BRANCH   9  12
HETATM   12  C   UNL     1      -7.239  12.585  68.761  1.00  0.00    -0.089 C  
HETATM   13  C   UNL     1      -7.215  13.711  68.335  1.00  0.00    -0.109 C  
BRANCH  13  14
HETATM   14  C   UNL     1      -7.157  15.051  67.837  1.00  0.00    -0.165 A  
HETATM   15  C   UNL     1      -8.291  15.871  67.871  1.00  0.00    -0.158 A  
HETATM   16  C   UNL     1      -8.256  17.224  67.445  1.00  0.00    -0.204 A  
HETATM   17  C   UNL     1      -7.040  17.715  66.932  1.00  0.00    -0.185 A  
HETATM   18  S   UNL     1      -6.761  19.378  66.340  1.00  0.00    -0.202 SA 
HETATM   19  C   UNL     1      -5.911  16.876  66.882  1.00  0.00    -0.215 A  
HETATM   20  C   UNL     1      -8.449  20.005  66.226  1.00  0.00    -0.288 C  
HETATM   21  C   UNL     1      -5.966  15.557  67.333  1.00  0.00    -0.010 A  
HETATM   22  C   UNL     1      -9.252  19.597  67.446  1.00  0.00    -0.412 C  
HETATM   23  C   UNL     1      -9.531  18.076  67.539  1.00  0.00    -0.262 C  
HETATM   24  C   UNL     1     -10.498  17.651  66.411  1.00  0.00    -0.286 C  
HETATM   25  C   UNL     1     -10.252  17.865  68.895  1.00  0.00    -0.331 C  
ENDBRANCH  13  14
ENDBRANCH   9  12
ENDBRANCH   4   6
ENDBRANCH   3   4
ENDBRANCH   2   3
TORSDOF 5
ENDMDL
MODEL      109
REMARK 921   NORMALIZED FREE ENERGY PREDICTED BY IDOCK:   -3.20 KCAL/MOL
REMARK 922        TOTAL FREE ENERGY PREDICTED BY IDOCK:   -4.45 KCAL/MOL
REMARK 923 INTER-LIGAND FREE ENERGY PREDICTED BY IDOCK:   -4.04 KCAL/MOL
REMARK 924 INTRA-LIGAND FREE ENERGY PREDICTED BY IDOCK:   -0.42 KCAL/MOL
REMARK 927      BINDING AFFINITY PREDICTED BY RF-SCORE:    0.00 PKD
ROOT
HETATM    1  C   UNL     1      -8.707   2.502  63.207  1.00  0.00    -0.085 C  
HETATM    2  C   UNL     1      -8.570   2.970  64.646  1.00  0.00    -0.100 C  
ENDROOT
BRANCH   2   3
HETATM    3  O   UNL     1      -7.643   4.066  64.664  1.00  0.00    -0.075 OA 
BRANCH   3   4
HETATM    4  C   UNL     1      -7.286   4.501  65.896  1.00  0.00    -0.077 C  
HETATM    5  O   UNL     1      -6.829   3.820  66.800  1.00  0.00    -0.052 OA 
BRANCH   4   6
HETATM    6  C   UNL     1      -7.371   5.976  65.965  1.00  0.00    -0.077 A  
HETATM    7  C   UNL     1      -6.376   6.767  66.528  1.00  0.00    -0.045 A  
HETATM    8  N   UNL     1      -6.490   8.107  66.720  1.00  0.00    -0.055 NA 
HETATM    9  C   UNL     1      -7.651   8.679  66.331  1.00  0.00    -0.091 A  
HETATM   10  C   UNL     1      -8.688   7.981  65.727  1.00  0.00    -0.175 A  
HETATM   11  C   UNL     1      -8.543   6.608  65.542  1.00  0.00    -0.101 A  
BRANCH   9  12
HETATM   12  C   UNL     1      -7.780  10.070  66.629  1.00  0.00    -0.104 C  
HETATM   13  C   UNL     1      -7.900  11.250  66.841  1.00  0.00    -0.156 C  
BRANCH  13  14
HETATM   14  C   UNL     1      -8.021  12.657  67.071  1.00  0.00    -0.063 A  
HETATM   15  C   UNL     1      -9.181  13.341  66.690  1.00  0.00    -0.222 A  
HETATM   16  C   UNL     1      -9.365  14.722  66.958  1.00  0.00    -0.245 A  
HETATM   17  C   UNL     1      -8.309  15.410  67.587  1.00  0.00    -0.161 A  
HETATM   18  S   UNL     1      -8.315  17.144  68.022  1.00  0.00    -0.224 SA 
HETATM   19  C   UNL     1      -7.138  14.717  67.947  1.00  0.00    -0.171 A  
HETATM   20  C   UNL     1      -9.757  17.735  67.113  1.00  0.00    -0.288 C  
HETATM   21  C   UNL     1      -6.995  13.352  67.696  1.00  0.00    -0.168 A  
HETATM   22  C   UNL     1     -10.910  16.759  67.249  1.00  0.00    -0.137 C  
HETATM   23  C   UNL     1     -10.676  15.403  66.539  1.00  0.00    -0.308 C  
HETATM   24  C   UNL     1     -10.663  15.609  65.007  1.00  0.00    -0.458 C  
HETATM   25  C   UNL     1     -11.906  14.527  66.895  1.00  0.00    -0.399 C  
ENDBRANCH  13  14
ENDBRANCH   9  12
ENDBRANCH   4   6
ENDBRANCH   3   4
ENDBRANCH   2   3
TORSDOF 5
ENDMDL
MODEL      110
REMARK 921   NORMALIZED FREE ENERGY PREDICTED BY IDOCK:   -3.16 KCAL/MOL
REMARK 922        TOTAL FREE ENERGY PREDICTED BY IDOCK:   -4.41 KCAL/MOL
REMARK 923 INTER-LIGAND FREE ENERGY PREDICTED BY IDOCK:   -3.88 KCAL/MOL
REMARK 924 INTRA-LIGAND FREE ENERGY PREDICTED BY IDOCK:   -0.53 KCAL/MOL
REMARK 927      BINDING AFFINITY PREDICTED BY RF-SCORE:    0.00 PKD
ROOT
HETATM    1  C   UNL     1     -10.112  15.838  68.856  1.00  0.00    -0.222 C  
HETATM    2  C   UNL     1      -8.846  16.453  68.284  1.00  0.00    -0.202 C  
ENDROOT
BRANCH   2   3
HETATM    3  O   UNL     1      -8.401  15.616  67.206  1.00  0.00    -0.157 OA 
BRANCH   3   4
HETATM    4  C   UNL     1      -7.123  15.177  67.305  1.00  0.00    -0.126 C  
HETATM    5  O   UNL     1      -6.114  15.841  67.131  1.00  0.00    -0.322 OA 
BRANCH   4   6
HETATM    6  C   UNL     1      -7.094  13.791  67.821  1.00  0.00    -0.175 A  
HETATM    7  C   UNL     1      -7.789  12.745  67.224  1.00  0.00    -0.146 A  
HETATM    8  N   UNL     1      -7.883  11.498  67.753  1.00  0.00    -0.120 NA 
HETATM    9  C   UNL     1      -7.253  11.288  68.930  1.00  0.00    -0.112 A  
HETATM   10  C   UNL     1      -6.505  12.257  69.586  1.00  0.00    -0.073 A  
HETATM   11  C   UNL     1      -6.426  13.528  69.019  1.00  0.00    -0.107 A  
BRANCH   9  12
HETATM   12  C   UNL     1      -7.445   9.997  69.508  1.00  0.00    -0.123 C  
HETATM   13  C   UNL     1      -7.570   8.911  70.013  1.00  0.00    -0.066 C  
BRANCH  13  14
HETATM   14  C   UNL     1      -7.693   7.611  70.599  1.00  0.00    -0.088 A  
HETATM   15  C   UNL     1      -8.820   7.278  71.360  1.00  0.00    -0.130 A  
HETATM   16  C   UNL     1      -9.007   5.981  71.904  1.00  0.00    -0.138 A  
HETATM   17  C   UNL     1      -7.987   5.033  71.694  1.00  0.00    -0.113 A  
HETATM   18  S   UNL     1      -8.005   3.345  72.281  1.00  0.00    -0.064 SA 
HETATM   19  C   UNL     1      -6.848   5.384  70.946  1.00  0.00    -0.048 A  
HETATM   20  C   UNL     1      -9.380   3.386  73.448  1.00  0.00    -0.100 C  
HETATM   21  C   UNL     1      -6.702   6.659  70.399  1.00  0.00    -0.057 A  
HETATM   22  C   UNL     1     -10.548   4.160  72.867  1.00  0.00    -0.245 C  
HETATM   23  C   UNL     1     -10.283   5.677  72.703  1.00  0.00    -0.216 C  
HETATM   24  C   UNL     1     -10.170   6.342  74.093  1.00  0.00    -0.361 C  
HETATM   25  C   UNL     1     -11.541   6.248  71.998  1.00  0.00    -0.372 C  
ENDBRANCH  13  14
ENDBRANCH   9  12
ENDBRANCH   4   6
ENDBRANCH   3   4
ENDBRANCH   2   3
TORSDOF 5
ENDMDL
MODEL      111
REMARK 921   NORMALIZED FREE ENERGY PREDICTED BY IDOCK:   -3.10 KCAL/MOL
REMARK 922        TOTAL FREE ENERGY PREDICTED BY IDOCK:   -4.33 KCAL/MOL
REMARK 923 INTER-LIGAND FREE ENERGY PREDICTED BY IDOCK:   -3.86 KCAL/MOL
REMARK 924 INTRA-LIGAND FREE ENERGY PREDICTED BY IDOCK:   -0.47 KCAL/MOL
REMARK 927      BINDING AFFINITY PREDICTED BY RF-SCORE:    0.00 PKD
ROOT
HETATM    1  C   UNL     1      -5.517   4.170  67.896  1.00  0.00    -0.016 C  
HETATM    2  C   UNL     1      -6.937   4.571  68.255  1.00  0.00    -0.056 C  
ENDROOT
BRANCH   2   3
HETATM    3  O   UNL     1      -6.973   6.002  68.368  1.00  0.00    -0.071 OA 
BRANCH   3   4
HETATM    4  C   UNL     1      -7.329   6.476  69.586  1.00  0.00    -0.084 C  
HETATM    5  O   UNL     1      -7.752   5.820  70.523  1.00  0.00    -0.094 OA 
BRANCH   4   6
HETATM    6  C   UNL     1      -6.985   7.910  69.699  1.00  0.00    -0.053 A  
HETATM    7  C   UNL     1      -7.654   8.786  70.547  1.00  0.00    -0.085 A  
HETATM    8  N   UNL     1      -7.443  10.128  70.571  1.00  0.00    -0.250 NA 
HETATM    9  C   UNL     1      -6.522  10.613  69.710  1.00  0.00    -0.110 A  
HETATM   10  C   UNL     1      -5.777   9.816  68.851  1.00  0.00    -0.035 A  
HETATM   11  C   UNL     1      -6.014   8.443  68.848  1.00  0.00    -0.043 A  
BRANCH   9  12
HETATM   12  C   UNL     1      -6.387  12.035  69.692  1.00  0.00    -0.120 C  
HETATM   13  C   UNL     1      -6.303  13.235  69.648  1.00  0.00    -0.089 C  
BRANCH  13  14
HETATM   14  C   UNL     1      -6.198  14.660  69.566  1.00  0.00    -0.120 A  
HETATM   15  C   UNL     1      -7.096  15.395  68.783  1.00  0.00    -0.125 A  
HETATM   16  C   UNL     1      -7.063  16.812  68.727  1.00  0.00    -0.202 A  
HETATM   17  C   UNL     1      -6.053  17.470  69.455  1.00  0.00    -0.252 A  
HETATM   18  S   UNL     1      -5.818  19.240  69.534  1.00  0.00    -0.260 SA 
HETATM   19  C   UNL     1      -5.141  16.721  70.222  1.00  0.00    -0.200 A  
HETATM   20  C   UNL     1      -6.891  19.803  68.198  1.00  0.00    -0.284 C  
HETATM   21  C   UNL     1      -5.214  15.329  70.282  1.00  0.00    -0.120 A  
HETATM   22  C   UNL     1      -8.212  19.059  68.227  1.00  0.00    -0.364 C  
HETATM   23  C   UNL     1      -8.099  17.556  67.871  1.00  0.00    -0.230 C  
HETATM   24  C   UNL     1      -7.720  17.397  66.382  1.00  0.00    -0.343 C  
HETATM   25  C   UNL     1      -9.521  16.971  68.070  1.00  0.00    -0.256 C  
ENDBRANCH  13  14
ENDBRANCH   9  12
ENDBRANCH   4   6
ENDBRANCH   3   4
ENDBRANCH   2   3
TORSDOF 5
ENDMDL
MODEL      112
REMARK 921   NORMALIZED FREE ENERGY PREDICTED BY IDOCK:   -2.98 KCAL/MOL
REMARK 922        TOTAL FREE ENERGY PREDICTED BY IDOCK:   -4.17 KCAL/MOL
REMARK 923 INTER-LIGAND FREE ENERGY PREDICTED BY IDOCK:   -3.77 KCAL/MOL
REMARK 924 INTRA-LIGAND FREE ENERGY PREDICTED BY IDOCK:   -0.40 KCAL/MOL
REMARK 927      BINDING AFFINITY PREDICTED BY RF-SCORE:    0.00 PKD
ROOT
HETATM    1  C   UNL     1      -7.564   3.472  69.611  1.00  0.00    -0.051 C  
HETATM    2  C   UNL     1      -8.225   4.212  68.462  1.00  0.00    -0.083 C  
ENDROOT
BRANCH   2   3
HETATM    3  O   UNL     1      -7.841   5.593  68.551  1.00  0.00    -0.094 OA 
BRANCH   3   4
HETATM    4  C   UNL     1      -7.315   6.120  67.420  1.00  0.00    -0.077 C  
HETATM    5  O   UNL     1      -6.856   5.498  66.476  1.00  0.00    -0.056 OA 
BRANCH   4   6
HETATM    6  C   UNL     1      -7.512   7.586  67.396  1.00  0.00    -0.104 A  
HETATM    7  C   UNL     1      -6.531   8.489  67.792  1.00  0.00    -0.061 A  
HETATM    8  N   UNL     1      -6.734   9.828  67.903  1.00  0.00    -0.065 NA 
HETATM    9  C   UNL     1      -7.971  10.281  67.605  1.00  0.00    -0.102 A  
HETATM   10  C   UNL     1      -9.005   9.465  67.167  1.00  0.00    -0.144 A  
HETATM   11  C   UNL     1      -8.768   8.096  67.061  1.00  0.00    -0.136 A  
BRANCH   9  12
HETATM   12  C   UNL     1      -8.181  11.678  67.819  1.00  0.00    -0.141 C  
HETATM   13  C   UNL     1      -8.330  12.863  67.971  1.00  0.00    -0.169 C  
BRANCH  13  14
HETATM   14  C   UNL     1      -8.477  14.274  68.158  1.00  0.00    -0.167 A  
HETATM   15  C   UNL     1      -7.376  15.127  68.022  1.00  0.00    -0.133 A  
HETATM   16  C   UNL     1      -7.494  16.536  68.137  1.00  0.00    -0.161 A  
HETATM   17  C   UNL     1      -8.764  17.060  68.446  1.00  0.00    -0.247 A  
HETATM   18  S   UNL     1      -9.151  18.795  68.639  1.00  0.00    -0.304 SA 
HETATM   19  C   UNL     1      -9.861  16.193  68.602  1.00  0.00    -0.226 A  
HETATM   20  C   UNL     1      -7.501  19.521  68.726  1.00  0.00    -0.352 C  
HETATM   21  C   UNL     1      -9.722  14.812  68.456  1.00  0.00    -0.218 A  
HETATM   22  C   UNL     1      -6.591  18.903  67.683  1.00  0.00    -0.212 C  
HETATM   23  C   UNL     1      -6.249  17.415  67.946  1.00  0.00    -0.156 C  
HETATM   24  C   UNL     1      -5.358  17.295  69.202  1.00  0.00    -0.155 C  
HETATM   25  C   UNL     1      -5.417  16.955  66.720  1.00  0.00    -0.154 C  
ENDBRANCH  13  14
ENDBRANCH   9  12
ENDBRANCH   4   6
ENDBRANCH   3   4
ENDBRANCH   2   3
TORSDOF 5
ENDMDL
MODEL      113
REMARK 921   NORMALIZED FREE ENERGY PREDICTED BY IDOCK:   -2.97 KCAL/MOL
REMARK 922        TOTAL FREE ENERGY PREDICTED BY IDOCK:   -4.16 KCAL/MOL
REMARK 923 INTER-LIGAND FREE ENERGY PREDICTED BY IDOCK:   -4.68 KCAL/MOL
REMARK 924 INTRA-LIGAND FREE ENERGY PREDICTED BY IDOCK:    0.52 KCAL/MOL
REMARK 927      BINDING AFFINITY PREDICTED BY RF-SCORE:    0.00 PKD
ROOT
HETATM    1  C   UNL     1      -9.371  11.574  62.679  1.00  0.00    -0.119 C  
HETATM    2  C   UNL     1      -9.863  12.322  63.905  1.00  0.00    -0.179 C  
ENDROOT
BRANCH   2   3
HETATM    3  O   UNL     1     -11.189  12.797  63.627  1.00  0.00    -0.436 OA 
BRANCH   3   4
HETATM    4  C   UNL     1     -12.047  12.763  64.675  1.00  0.00    -0.423 C  
HETATM    5  O   UNL     1     -13.188  13.195  64.691  1.00  0.00    -0.588 OA 
BRANCH   4   6
HETATM    6  C   UNL     1     -11.472  11.971  65.784  1.00  0.00    -0.377 A  
HETATM    7  C   UNL     1     -11.149  10.624  65.666  1.00  0.00     0.320 A  
HETATM    8  N   UNL     1     -10.744   9.848  66.705  1.00  0.00    -0.105 NA 
HETATM    9  C   UNL     1     -10.658  10.446  67.913  1.00  0.00    -0.232 A  
HETATM   10  C   UNL     1     -10.924  11.792  68.125  1.00  0.00    -0.275 A  
HETATM   11  C   UNL     1     -11.337  12.565  67.042  1.00  0.00    -0.386 A  
BRANCH   9  12
HETATM   12  C   UNL     1     -10.320   9.586  69.002  1.00  0.00    -0.219 C  
HETATM   13  C   UNL     1      -9.995   8.861  69.907  1.00  0.00    -0.197 C  
BRANCH  13  14
HETATM   14  C   UNL     1      -9.599   7.979  70.962  1.00  0.00    -0.184 A  
HETATM   15  C   UNL     1      -8.566   7.056  70.766  1.00  0.00    -0.143 A  
HETATM   16  C   UNL     1      -8.103   6.209  71.806  1.00  0.00    -0.110 A  
HETATM   17  C   UNL     1      -8.756   6.290  73.052  1.00  0.00    -0.124 A  
HETATM   18  S   UNL     1      -8.346   5.327  74.500  1.00  0.00    -0.102 SA 
HETATM   19  C   UNL     1      -9.808   7.207  73.233  1.00  0.00    -0.275 A  
HETATM   20  C   UNL     1      -7.254   4.074  73.800  1.00  0.00    -0.062 C  
HETATM   21  C   UNL     1     -10.225   8.048  72.200  1.00  0.00    -0.308 A  
HETATM   22  C   UNL     1      -6.281   4.702  72.821  1.00  0.00    -0.025 C  
HETATM   23  C   UNL     1      -6.944   5.241  71.529  1.00  0.00    -0.065 C  
HETATM   24  C   UNL     1      -7.472   4.062  70.681  1.00  0.00    -0.041 C  
HETATM   25  C   UNL     1      -5.807   5.933  70.733  1.00  0.00    -0.021 C  
ENDBRANCH  13  14
ENDBRANCH   9  12
ENDBRANCH   4   6
ENDBRANCH   3   4
ENDBRANCH   2   3
TORSDOF 5
ENDMDL
MODEL      114
REMARK 921   NORMALIZED FREE ENERGY PREDICTED BY IDOCK:   -2.92 KCAL/MOL
REMARK 922        TOTAL FREE ENERGY PREDICTED BY IDOCK:   -4.10 KCAL/MOL
REMARK 923 INTER-LIGAND FREE ENERGY PREDICTED BY IDOCK:   -3.59 KCAL/MOL
REMARK 924 INTRA-LIGAND FREE ENERGY PREDICTED BY IDOCK:   -0.51 KCAL/MOL
REMARK 927      BINDING AFFINITY PREDICTED BY RF-SCORE:    0.00 PKD
ROOT
HETATM    1  C   UNL     1     -11.697  12.854  63.369  1.00  0.00    -0.526 C  
HETATM    2  C   UNL     1     -11.301  14.239  63.852  1.00  0.00     0.310 C  
ENDROOT
BRANCH   2   3
HETATM    3  O   UNL     1     -11.757  14.379  65.205  1.00  0.00    -0.344 OA 
BRANCH   3   4
HETATM    4  C   UNL     1     -10.859  14.918  66.065  1.00  0.00    -0.328 C  
HETATM    5  O   UNL     1     -10.540  16.093  66.136  1.00  0.00    -0.313 OA 
BRANCH   4   6
HETATM    6  C   UNL     1     -10.414  13.903  67.045  1.00  0.00    -0.278 A  
HETATM    7  C   UNL     1      -9.090  13.769  67.448  1.00  0.00    -0.221 A  
HETATM    8  N   UNL     1      -8.638  12.765  68.244  1.00  0.00    -0.180 NA 
HETATM    9  C   UNL     1      -9.551  11.857  68.653  1.00  0.00    -0.093 A  
HETATM   10  C   UNL     1     -10.900  11.925  68.334  1.00  0.00    -0.263 A  
HETATM   11  C   UNL     1     -11.336  12.966  67.517  1.00  0.00    -0.354 A  
BRANCH   9  12
HETATM   12  C   UNL     1      -9.032  10.763  69.410  1.00  0.00     0.020 C  
HETATM   13  C   UNL     1      -8.590   9.819  70.014  1.00  0.00    -0.229 C  
BRANCH  13  14
HETATM   14  C   UNL     1      -8.088   8.680  70.720  1.00  0.00    -0.141 A  
HETATM   15  C   UNL     1      -7.864   7.471  70.051  1.00  0.00    -0.099 A  
HETATM   16  C   UNL     1      -7.308   6.340  70.702  1.00  0.00    -0.082 A  
HETATM   17  C   UNL     1      -7.029   6.452  72.078  1.00  0.00    -0.073 A  
HETATM   18  S   UNL     1      -6.329   5.164  73.101  1.00  0.00    -0.053 SA 
HETATM   19  C   UNL     1      -7.278   7.664  72.746  1.00  0.00    -0.087 A  
HETATM   20  C   UNL     1      -6.488   3.725  72.024  1.00  0.00    -0.015 C  
HETATM   21  C   UNL     1      -7.800   8.771  72.075  1.00  0.00    -0.040 A  
HETATM   22  C   UNL     1      -6.089   4.076  70.604  1.00  0.00    -0.018 C  
HETATM   23  C   UNL     1      -7.060   5.055  69.898  1.00  0.00    -0.054 C  
HETATM   24  C   UNL     1      -8.415   4.357  69.644  1.00  0.00    -0.089 C  
HETATM   25  C   UNL     1      -6.413   5.365  68.523  1.00  0.00    -0.040 C  
ENDBRANCH  13  14
ENDBRANCH   9  12
ENDBRANCH   4   6
ENDBRANCH   3   4
ENDBRANCH   2   3
TORSDOF 5
ENDMDL
MODEL      115
REMARK 921   NORMALIZED FREE ENERGY PREDICTED BY IDOCK:   -2.73 KCAL/MOL
REMARK 922        TOTAL FREE ENERGY PREDICTED BY IDOCK:   -3.86 KCAL/MOL
REMARK 923 INTER-LIGAND FREE ENERGY PREDICTED BY IDOCK:   -3.47 KCAL/MOL
REMARK 924 INTRA-LIGAND FREE ENERGY PREDICTED BY IDOCK:   -0.39 KCAL/MOL
REMARK 927      BINDING AFFINITY PREDICTED BY RF-SCORE:    0.00 PKD
ROOT
HETATM    1  C   UNL     1      -6.250   4.098  64.250  1.00  0.00    -0.026 C  
HETATM    2  C   UNL     1      -6.968   4.537  65.514  1.00  0.00    -0.062 C  
ENDROOT
BRANCH   2   3
HETATM    3  O   UNL     1      -6.799   5.956  65.645  1.00  0.00    -0.053 OA 
BRANCH   3   4
HETATM    4  C   UNL     1      -7.802   6.707  65.131  1.00  0.00    -0.115 C  
HETATM    5  O   UNL     1      -8.817   6.292  64.596  1.00  0.00     0.163 OA 
BRANCH   4   6
HETATM    6  C   UNL     1      -7.587   8.137  65.446  1.00  0.00    -0.089 A  
HETATM    7  C   UNL     1      -6.469   8.602  66.131  1.00  0.00    -0.057 A  
HETATM    8  N   UNL     1      -6.314   9.886  66.544  1.00  0.00    -0.068 NA 
HETATM    9  C   UNL     1      -7.320  10.742  66.260  1.00  0.00    -0.138 A  
HETATM   10  C   UNL     1      -8.459  10.382  65.551  1.00  0.00    -0.171 A  
HETATM   11  C   UNL     1      -8.591   9.058  65.138  1.00  0.00    -0.204 A  
BRANCH   9  12
HETATM   12  C   UNL     1      -7.172  12.061  66.787  1.00  0.00     0.036 C  
HETATM   13  C   UNL     1      -7.014  13.178  67.208  1.00  0.00    -0.021 C  
BRANCH  13  14
HETATM   14  C   UNL     1      -6.797  14.497  67.720  1.00  0.00    -0.193 A  
HETATM   15  C   UNL     1      -7.679  15.536  67.402  1.00  0.00    -0.222 A  
HETATM   16  C   UNL     1      -7.534  16.840  67.940  1.00  0.00    -0.169 A  
HETATM   17  C   UNL     1      -6.429  17.079  68.780  1.00  0.00    -0.181 A  
HETATM   18  S   UNL     1      -6.045  18.636  69.568  1.00  0.00    -0.258 SA 
HETATM   19  C   UNL     1      -5.535  16.033  69.076  1.00  0.00    -0.112 A  
HETATM   20  C   UNL     1      -7.152  19.762  68.695  1.00  0.00    -0.331 C  
HETATM   21  C   UNL     1      -5.718  14.752  68.555  1.00  0.00    -0.099 A  
HETATM   22  C   UNL     1      -8.525  19.140  68.532  1.00  0.00    -0.399 C  
HETATM   23  C   UNL     1      -8.558  17.925  67.572  1.00  0.00    -0.239 C  
HETATM   24  C   UNL     1      -8.288  18.393  66.124  1.00  0.00    -0.161 C  
HETATM   25  C   UNL     1     -10.008  17.379  67.639  1.00  0.00    -0.300 C  
ENDBRANCH  13  14
ENDBRANCH   9  12
ENDBRANCH   4   6
ENDBRANCH   3   4
ENDBRANCH   2   3
TORSDOF 5
ENDMDL
MODEL      116
REMARK 921   NORMALIZED FREE ENERGY PREDICTED BY IDOCK:   -2.58 KCAL/MOL
REMARK 922        TOTAL FREE ENERGY PREDICTED BY IDOCK:   -3.66 KCAL/MOL
REMARK 923 INTER-LIGAND FREE ENERGY PREDICTED BY IDOCK:   -3.24 KCAL/MOL
REMARK 924 INTRA-LIGAND FREE ENERGY PREDICTED BY IDOCK:   -0.43 KCAL/MOL
REMARK 927      BINDING AFFINITY PREDICTED BY RF-SCORE:    0.00 PKD
ROOT
HETATM    1  C   UNL     1      -9.315   9.595  62.340  1.00  0.00    -0.142 C  
HETATM    2  C   UNL     1      -9.264  11.013  62.882  1.00  0.00    -0.345 C  
ENDROOT
BRANCH   2   3
HETATM    3  O   UNL     1     -10.267  11.129  63.902  1.00  0.00    -0.300 OA 
BRANCH   3   4
HETATM    4  C   UNL     1      -9.990  12.018  64.886  1.00  0.00    -0.227 C  
HETATM    5  O   UNL     1     -10.173  13.224  64.845  1.00  0.00    -0.325 OA 
BRANCH   4   6
HETATM    6  C   UNL     1      -9.572  11.310  66.116  1.00  0.00    -0.241 A  
HETATM    7  C   UNL     1      -8.247  10.996  66.397  1.00  0.00    -0.166 A  
HETATM    8  N   UNL     1      -7.855  10.234  67.451  1.00  0.00    -0.102 NA 
HETATM    9  C   UNL     1      -8.833   9.767  68.259  1.00  0.00    -0.119 A  
HETATM   10  C   UNL     1     -10.179  10.055  68.083  1.00  0.00    -0.205 A  
HETATM   11  C   UNL     1     -10.552  10.839  66.993  1.00  0.00    -0.312 A  
BRANCH   9  12
HETATM   12  C   UNL     1      -8.401   8.895  69.304  1.00  0.00    -0.119 C  
HETATM   13  C   UNL     1      -8.001   8.154  70.165  1.00  0.00    -0.107 C  
BRANCH  13  14
HETATM   14  C   UNL     1      -7.522   7.251  71.167  1.00  0.00    -0.079 A  
HETATM   15  C   UNL     1      -7.214   5.926  70.840  1.00  0.00    -0.077 A  
HETATM   16  C   UNL     1      -6.677   5.019  71.790  1.00  0.00    -0.044 A  
HETATM   17  C   UNL     1      -6.505   5.484  73.109  1.00  0.00    -0.066 A  
HETATM   18  S   UNL     1      -5.849   4.525  74.467  1.00  0.00    -0.030 SA 
HETATM   19  C   UNL     1      -6.839   6.812  73.433  1.00  0.00    -0.075 A  
HETATM   20  C   UNL     1      -5.886   2.858  73.780  1.00  0.00     0.000 C  
HETATM   21  C   UNL     1      -7.339   7.691  72.471  1.00  0.00    -0.089 A  
HETATM   22  C   UNL     1      -5.391   2.861  72.347  1.00  0.00     0.000 C  
HETATM   23  C   UNL     1      -6.333   3.587  71.355  1.00  0.00    -0.015 C  
HETATM   24  C   UNL     1      -7.644   2.786  71.196  1.00  0.00    -0.036 C  
HETATM   25  C   UNL     1      -5.594   3.574  69.991  1.00  0.00    -0.017 C  
ENDBRANCH  13  14
ENDBRANCH   9  12
ENDBRANCH   4   6
ENDBRANCH   3   4
ENDBRANCH   2   3
TORSDOF 5
ENDMDL
MODEL      117
REMARK 921   NORMALIZED FREE ENERGY PREDICTED BY IDOCK:   -2.48 KCAL/MOL
REMARK 922        TOTAL FREE ENERGY PREDICTED BY IDOCK:   -3.53 KCAL/MOL
REMARK 923 INTER-LIGAND FREE ENERGY PREDICTED BY IDOCK:   -4.27 KCAL/MOL
REMARK 924 INTRA-LIGAND FREE ENERGY PREDICTED BY IDOCK:    0.74 KCAL/MOL
REMARK 927      BINDING AFFINITY PREDICTED BY RF-SCORE:    0.00 PKD
ROOT
HETATM    1  C   UNL     1     -11.382  13.830  67.005  1.00  0.00    -0.345 C  
HETATM    2  C   UNL     1     -10.695  12.604  66.428  1.00  0.00    -0.255 C  
ENDROOT
BRANCH   2   3
HETATM    3  O   UNL     1     -10.360  12.891  65.062  1.00  0.00    -0.304 OA 
BRANCH   3   4
HETATM    4  C   UNL     1      -9.855  11.848  64.359  1.00  0.00    -0.178 C  
HETATM    5  O   UNL     1      -9.519  11.861  63.187  1.00  0.00    -0.323 OA 
BRANCH   4   6
HETATM    6  C   UNL     1      -9.605  10.698  65.255  1.00  0.00    -0.293 A  
HETATM    7  C   UNL     1     -10.623  10.012  65.910  1.00  0.00     0.071 A  
HETATM    8  N   UNL     1     -10.409   9.041  66.835  1.00  0.00    -0.263 NA 
HETATM    9  C   UNL     1      -9.121   8.744  67.117  1.00  0.00    -0.132 A  
HETATM   10  C   UNL     1      -8.038   9.347  66.492  1.00  0.00    -0.111 A  
HETATM   11  C   UNL     1      -8.287  10.339  65.546  1.00  0.00    -0.165 A  
BRANCH   9  12
HETATM   12  C   UNL     1      -8.925   7.787  68.158  1.00  0.00    -0.127 C  
HETATM   13  C   UNL     1      -8.752   6.951  69.008  1.00  0.00    -0.131 C  
BRANCH  13  14
HETATM   14  C   UNL     1      -8.569   5.941  70.005  1.00  0.00    -0.130 A  
HETATM   15  C   UNL     1      -9.363   5.928  71.158  1.00  0.00    -0.170 A  
HETATM   16  C   UNL     1      -9.255   4.908  72.137  1.00  0.00    -0.159 A  
HETATM   17  C   UNL     1      -8.274   3.916  71.939  1.00  0.00    -0.083 A  
HETATM   18  S   UNL     1      -7.957   2.539  73.034  1.00  0.00    -0.051 SA 
HETATM   19  C   UNL     1      -7.466   3.950  70.788  1.00  0.00    -0.041 A  
HETATM   20  C   UNL     1      -8.891   3.025  74.500  1.00  0.00    -0.078 C  
HETATM   21  C   UNL     1      -7.613   4.950  69.826  1.00  0.00    -0.056 A  
HETATM   22  C   UNL     1     -10.246   3.582  74.108  1.00  0.00    -0.222 C  
HETATM   23  C   UNL     1     -10.180   4.939  73.363  1.00  0.00    -0.212 C  
HETATM   24  C   UNL     1      -9.691   6.043  74.327  1.00  0.00    -0.221 C  
HETATM   25  C   UNL     1     -11.641   5.266  72.959  1.00  0.00    -0.290 C  
ENDBRANCH  13  14
ENDBRANCH   9  12
ENDBRANCH   4   6
ENDBRANCH   3   4
ENDBRANCH   2   3
TORSDOF 5
ENDMDL
MODEL      118
REMARK 921   NORMALIZED FREE ENERGY PREDICTED BY IDOCK:   -2.45 KCAL/MOL
REMARK 922        TOTAL FREE ENERGY PREDICTED BY IDOCK:   -3.49 KCAL/MOL
REMARK 923 INTER-LIGAND FREE ENERGY PREDICTED BY IDOCK:   -3.14 KCAL/MOL
REMARK 924 INTRA-LIGAND FREE ENERGY PREDICTED BY IDOCK:   -0.36 KCAL/MOL
REMARK 927      BINDING AFFINITY PREDICTED BY RF-SCORE:    0.00 PKD
ROOT
HETATM    1  C   UNL     1      -6.488  17.667  69.293  1.00  0.00    -0.240 C  
HETATM    2  C   UNL     1      -7.288  16.495  68.750  1.00  0.00    -0.208 C  
ENDROOT
BRANCH   2   3
HETATM    3  O   UNL     1      -6.376  15.410  68.520  1.00  0.00    -0.092 OA 
BRANCH   3   4
HETATM    4  C   UNL     1      -6.347  14.465  69.489  1.00  0.00    -0.128 C  
HETATM    5  O   UNL     1      -6.366  14.662  70.693  1.00  0.00    -0.170 OA 
BRANCH   4   6
HETATM    6  C   UNL     1      -6.451  13.115  68.894  1.00  0.00    -0.097 A  
HETATM    7  C   UNL     1      -7.110  12.864  67.695  1.00  0.00    -0.151 A  
HETATM    8  N   UNL     1      -7.330  11.620  67.197  1.00  0.00    -0.136 NA 
HETATM    9  C   UNL     1      -6.871  10.582  67.931  1.00  0.00    -0.069 A  
HETATM   10  C   UNL     1      -6.172  10.731  69.121  1.00  0.00    -0.045 A  
HETATM   11  C   UNL     1      -5.959  12.019  69.607  1.00  0.00    -0.120 A  
BRANCH   9  12
HETATM   12  C   UNL     1      -7.198   9.285  67.431  1.00  0.00    -0.080 C  
HETATM   13  C   UNL     1      -7.503   8.187  67.039  1.00  0.00    -0.088 C  
BRANCH  13  14
HETATM   14  C   UNL     1      -7.858   6.872  66.602  1.00  0.00    -0.107 A  
HETATM   15  C   UNL     1      -7.931   5.815  67.516  1.00  0.00    -0.102 A  
HETATM   16  C   UNL     1      -8.341   4.512  67.131  1.00  0.00    -0.105 A  
HETATM   17  C   UNL     1      -8.630   4.295  65.770  1.00  0.00    -0.114 A  
HETATM   18  S   UNL     1      -9.163   2.744  65.059  1.00  0.00    -0.126 SA 
HETATM   19  C   UNL     1      -8.533   5.360  64.855  1.00  0.00    -0.148 A  
HETATM   20  C   UNL     1      -8.827   1.597  66.409  1.00  0.00    -0.116 C  
HETATM   21  C   UNL     1      -8.154   6.638  65.265  1.00  0.00    -0.130 A  
HETATM   22  C   UNL     1      -9.269   2.189  67.734  1.00  0.00    -0.217 C  
HETATM   23  C   UNL     1      -8.428   3.406  68.193  1.00  0.00    -0.103 C  
HETATM   24  C   UNL     1      -6.997   2.948  68.554  1.00  0.00    -0.048 C  
HETATM   25  C   UNL     1      -9.109   3.919  69.489  1.00  0.00    -0.196 C  
ENDBRANCH  13  14
ENDBRANCH   9  12
ENDBRANCH   4   6
ENDBRANCH   3   4
ENDBRANCH   2   3
TORSDOF 5
ENDMDL
MODEL      119
REMARK 921   NORMALIZED FREE ENERGY PREDICTED BY IDOCK:   -2.35 KCAL/MOL
REMARK 922        TOTAL FREE ENERGY PREDICTED BY IDOCK:   -3.36 KCAL/MOL
REMARK 923 INTER-LIGAND FREE ENERGY PREDICTED BY IDOCK:   -3.62 KCAL/MOL
REMARK 924 INTRA-LIGAND FREE ENERGY PREDICTED BY IDOCK:    0.26 KCAL/MOL
REMARK 927      BINDING AFFINITY PREDICTED BY RF-SCORE:    0.00 PKD
ROOT
HETATM    1  C   UNL     1      -9.739  11.947  62.749  1.00  0.00     0.254 C  
HETATM    2  C   UNL     1      -9.931  12.457  64.167  1.00  0.00    -0.217 C  
ENDROOT
BRANCH   2   3
HETATM    3  O   UNL     1     -11.298  12.876  64.301  1.00  0.00    -0.333 OA 
BRANCH   3   4
HETATM    4  C   UNL     1     -11.842  12.688  65.527  1.00  0.00    -0.431 C  
HETATM    5  O   UNL     1     -12.903  13.142  65.925  1.00  0.00    -0.361 OA 
BRANCH   4   6
HETATM    6  C   UNL     1     -11.048  11.706  66.297  1.00  0.00    -0.345 A  
HETATM    7  C   UNL     1     -10.984  10.357  65.965  1.00  0.00     0.240 A  
HETATM    8  N   UNL     1     -10.370   9.417  66.731  1.00  0.00    -0.248 NA 
HETATM    9  C   UNL     1      -9.796   9.847  67.876  1.00  0.00    -0.143 A  
HETATM   10  C   UNL     1      -9.776  11.176  68.275  1.00  0.00    -0.190 A  
HETATM   11  C   UNL     1     -10.413  12.119  67.470  1.00  0.00    -0.229 A  
BRANCH   9  12
HETATM   12  C   UNL     1      -9.239   8.825  68.704  1.00  0.00    -0.141 C  
HETATM   13  C   UNL     1      -8.779   7.936  69.374  1.00  0.00    -0.138 C  
BRANCH  13  14
HETATM   14  C   UNL     1      -8.260   6.865  70.168  1.00  0.00    -0.133 A  
HETATM   15  C   UNL     1      -8.941   6.435  71.313  1.00  0.00    -0.142 A  
HETATM   16  C   UNL     1      -8.492   5.336  72.090  1.00  0.00    -0.126 A  
HETATM   17  C   UNL     1      -7.293   4.709  71.700  1.00  0.00    -0.069 A  
HETATM   18  S   UNL     1      -6.539   3.313  72.522  1.00  0.00    -0.019 SA 
HETATM   19  C   UNL     1      -6.604   5.163  70.560  1.00  0.00    -0.035 A  
HETATM   20  C   UNL     1      -7.470   3.262  74.067  1.00  0.00    -0.056 C  
HETATM   21  C   UNL     1      -7.083   6.229  69.798  1.00  0.00    -0.072 A  
HETATM   22  C   UNL     1      -8.948   3.473  73.805  1.00  0.00    -0.087 C  
HETATM   23  C   UNL     1      -9.307   4.898  73.316  1.00  0.00    -0.131 C  
HETATM   24  C   UNL     1      -9.077   5.916  74.456  1.00  0.00    -0.137 C  
HETATM   25  C   UNL     1     -10.825   4.863  73.003  1.00  0.00    -0.331 C  
ENDBRANCH  13  14
ENDBRANCH   9  12
ENDBRANCH   4   6
ENDBRANCH   3   4
ENDBRANCH   2   3
TORSDOF 5
ENDMDL
MODEL      120
REMARK 921   NORMALIZED FREE ENERGY PREDICTED BY IDOCK:   -2.25 KCAL/MOL
REMARK 922        TOTAL FREE ENERGY PREDICTED BY IDOCK:   -3.24 KCAL/MOL
REMARK 923 INTER-LIGAND FREE ENERGY PREDICTED BY IDOCK:   -2.81 KCAL/MOL
REMARK 924 INTRA-LIGAND FREE ENERGY PREDICTED BY IDOCK:   -0.42 KCAL/MOL
REMARK 927      BINDING AFFINITY PREDICTED BY RF-SCORE:    0.00 PKD
ROOT
HETATM    1  C   UNL     1      -5.236  16.273  70.795  1.00  0.00    -0.168 C  
HETATM    2  C   UNL     1      -6.152  15.268  70.117  1.00  0.00    -0.141 C  
ENDROOT
BRANCH   2   3
HETATM    3  O   UNL     1      -5.360  14.128  69.755  1.00  0.00    -0.091 OA 
BRANCH   3   4
HETATM    4  C   UNL     1      -5.602  13.004  70.472  1.00  0.00    -0.175 C  
HETATM    5  O   UNL     1      -5.768  12.938  71.679  1.00  0.00    -0.385 OA 
BRANCH   4   6
HETATM    6  C   UNL     1      -5.804  11.851  69.568  1.00  0.00    -0.089 A  
HETATM    7  C   UNL     1      -5.643  11.932  68.189  1.00  0.00    -0.045 A  
HETATM    8  N   UNL     1      -5.949  10.925  67.330  1.00  0.00    -0.045 NA 
HETATM    9  C   UNL     1      -6.436   9.789  67.875  1.00  0.00    -0.060 A  
HETATM   10  C   UNL     1      -6.600   9.599  69.241  1.00  0.00    -0.048 A  
HETATM   11  C   UNL     1      -6.277  10.649  70.099  1.00  0.00    -0.125 A  
BRANCH   9  12
HETATM   12  C   UNL     1      -6.836   8.783  66.944  1.00  0.00    -0.070 C  
HETATM   13  C   UNL     1      -7.176   7.908  66.189  1.00  0.00    -0.073 C  
BRANCH  13  14
HETATM   14  C   UNL     1      -7.557   6.851  65.302  1.00  0.00    -0.099 A  
HETATM   15  C   UNL     1      -7.815   5.567  65.796  1.00  0.00    -0.104 A  
HETATM   16  C   UNL     1      -8.256   4.511  64.958  1.00  0.00    -0.109 A  
HETATM   17  C   UNL     1      -8.381   4.780  63.582  1.00  0.00    -0.120 A  
HETATM   18  S   UNL     1      -8.917   3.610  62.342  1.00  0.00    -0.089 SA 
HETATM   19  C   UNL     1      -8.098   6.069  63.091  1.00  0.00    -0.089 A  
HETATM   20  C   UNL     1      -8.833   2.057  63.255  1.00  0.00    -0.084 C  
HETATM   21  C   UNL     1      -7.693   7.098  63.943  1.00  0.00    -0.116 A  
HETATM   22  C   UNL     1      -9.402   2.228  64.650  1.00  0.00    -0.126 C  
HETATM   23  C   UNL     1      -8.550   3.135  65.573  1.00  0.00    -0.112 C  
HETATM   24  C   UNL     1      -7.210   2.439  65.900  1.00  0.00    -0.065 C  
HETATM   25  C   UNL     1      -9.358   3.266  66.891  1.00  0.00    -0.184 C  
ENDBRANCH  13  14
ENDBRANCH   9  12
ENDBRANCH   4   6
ENDBRANCH   3   4
ENDBRANCH   2   3
TORSDOF 5
ENDMDL
MODEL      121
REMARK 921   NORMALIZED FREE ENERGY PREDICTED BY IDOCK:   -2.22 KCAL/MOL
REMARK 922        TOTAL FREE ENERGY PREDICTED BY IDOCK:   -3.19 KCAL/MOL
REMARK 923 INTER-LIGAND FREE ENERGY PREDICTED BY IDOCK:   -4.09 KCAL/MOL
REMARK 924 INTRA-LIGAND FREE ENERGY PREDICTED BY IDOCK:    0.90 KCAL/MOL
REMARK 927      BINDING AFFINITY PREDICTED BY RF-SCORE:    0.00 PKD
ROOT
HETATM    1  C   UNL     1      -8.576   2.709  70.761  1.00  0.00    -0.106 C  
HETATM    2  C   UNL     1      -8.370   3.244  69.354  1.00  0.00    -0.059 C  
ENDROOT
BRANCH   2   3
HETATM    3  O   UNL     1      -8.184   2.121  68.481  1.00  0.00    -0.056 OA 
BRANCH   3   4
HETATM    4  C   UNL     1      -7.973   2.429  67.179  1.00  0.00    -0.070 C  
HETATM    5  O   UNL     1      -7.637   1.657  66.296  1.00  0.00    -0.060 OA 
BRANCH   4   6
HETATM    6  C   UNL     1      -8.364   3.831  66.914  1.00  0.00    -0.100 A  
HETATM    7  C   UNL     1      -7.518   4.752  66.305  1.00  0.00    -0.086 A  
HETATM    8  N   UNL     1      -7.806   6.073  66.171  1.00  0.00    -0.102 NA 
HETATM    9  C   UNL     1      -8.992   6.489  66.666  1.00  0.00    -0.138 A  
HETATM   10  C   UNL     1      -9.919   5.641  67.258  1.00  0.00    -0.182 A  
HETATM   11  C   UNL     1      -9.597   4.291  67.382  1.00  0.00    -0.219 A  
BRANCH   9  12
HETATM   12  C   UNL     1      -9.228   7.896  66.594  1.00  0.00    -0.221 C  
HETATM   13  C   UNL     1      -9.389   9.087  66.519  1.00  0.00    -0.246 C  
BRANCH  13  14
HETATM   14  C   UNL     1      -9.555  10.506  66.449  1.00  0.00    -0.220 A  
HETATM   15  C   UNL     1     -10.502  11.069  65.585  1.00  0.00    -0.293 A  
HETATM   16  C   UNL     1     -10.740  12.466  65.533  1.00  0.00    -0.315 A  
HETATM   17  C   UNL     1      -9.950  13.293  66.356  1.00  0.00    -0.288 A  
HETATM   18  S   UNL     1     -10.073  15.073  66.458  1.00  0.00    -0.289 SA 
HETATM   19  C   UNL     1      -8.986  12.720  67.205  1.00  0.00    -0.199 A  
HETATM   20  C   UNL     1     -11.105  15.444  65.026  1.00  0.00    -0.418 C  
HETATM   21  C   UNL     1      -8.791  11.339  67.256  1.00  0.00    -0.150 A  
HETATM   22  C   UNL     1     -12.253  14.458  64.927  1.00  0.00    -0.440 C  
HETATM   23  C   UNL     1     -11.816  13.012  64.583  1.00  0.00    -0.422 C  
HETATM   24  C   UNL     1     -11.276  12.959  63.136  1.00  0.00     0.212 C  
HETATM   25  C   UNL     1     -13.110  12.159  64.644  1.00  0.00     0.377 C  
ENDBRANCH  13  14
ENDBRANCH   9  12
ENDBRANCH   4   6
ENDBRANCH   3   4
ENDBRANCH   2   3
TORSDOF 5
ENDMDL
MODEL      122
REMARK 921   NORMALIZED FREE ENERGY PREDICTED BY IDOCK:   -2.16 KCAL/MOL
REMARK 922        TOTAL FREE ENERGY PREDICTED BY IDOCK:   -3.11 KCAL/MOL
REMARK 923 INTER-LIGAND FREE ENERGY PREDICTED BY IDOCK:   -3.73 KCAL/MOL
REMARK 924 INTRA-LIGAND FREE ENERGY PREDICTED BY IDOCK:    0.62 KCAL/MOL
REMARK 927      BINDING AFFINITY PREDICTED BY RF-SCORE:    0.00 PKD
ROOT
HETATM    1  C   UNL     1      -7.595  19.923  67.829  1.00  0.00    -0.322 C  
HETATM    2  C   UNL     1      -7.668  18.984  66.637  1.00  0.00    -0.247 C  
ENDROOT
BRANCH   2   3
HETATM    3  O   UNL     1      -6.519  18.125  66.684  1.00  0.00    -0.172 OA 
BRANCH   3   4
HETATM    4  C   UNL     1      -6.117  17.766  67.927  1.00  0.00    -0.158 C  
HETATM    5  O   UNL     1      -5.783  18.520  68.826  1.00  0.00    -0.194 OA 
BRANCH   4   6
HETATM    6  C   UNL     1      -6.289  16.310  68.121  1.00  0.00    -0.130 A  
HETATM    7  C   UNL     1      -7.226  15.557  67.422  1.00  0.00    -0.209 A  
HETATM    8  N   UNL     1      -7.490  14.249  67.677  1.00  0.00    -0.165 NA 
HETATM    9  C   UNL     1      -6.786  13.670  68.674  1.00  0.00    -0.100 A  
HETATM   10  C   UNL     1      -5.805  14.327  69.405  1.00  0.00    -0.095 A  
HETATM   11  C   UNL     1      -5.555  15.668  69.122  1.00  0.00    -0.101 A  
BRANCH   9  12
HETATM   12  C   UNL     1      -7.149  12.323  68.980  1.00  0.00    -0.051 C  
HETATM   13  C   UNL     1      -7.419  11.175  69.224  1.00  0.00    -0.076 C  
BRANCH  13  14
HETATM   14  C   UNL     1      -7.737   9.804  69.484  1.00  0.00    -0.120 A  
HETATM   15  C   UNL     1      -8.181   8.970  68.452  1.00  0.00    -0.116 A  
HETATM   16  C   UNL     1      -8.445   7.591  68.656  1.00  0.00    -0.129 A  
HETATM   17  C   UNL     1      -8.291   7.085  69.961  1.00  0.00    -0.138 A  
HETATM   18  S   UNL     1      -8.564   5.389  70.453  1.00  0.00    -0.126 SA 
HETATM   19  C   UNL     1      -7.864   7.937  70.997  1.00  0.00    -0.089 A  
HETATM   20  C   UNL     1      -9.413   4.728  69.005  1.00  0.00    -0.148 C  
HETATM   21  C   UNL     1      -7.585   9.284  70.762  1.00  0.00    -0.154 A  
HETATM   22  C   UNL     1      -8.745   5.209  67.731  1.00  0.00    -0.103 C  
HETATM   23  C   UNL     1      -8.901   6.728  67.470  1.00  0.00    -0.117 C  
HETATM   24  C   UNL     1     -10.377   7.056  67.154  1.00  0.00    -0.351 C  
HETATM   25  C   UNL     1      -8.060   7.022  66.201  1.00  0.00    -0.119 C  
ENDBRANCH  13  14
ENDBRANCH   9  12
ENDBRANCH   4   6
ENDBRANCH   3   4
ENDBRANCH   2   3
TORSDOF 5
ENDMDL
MODEL      123
REMARK 921   NORMALIZED FREE ENERGY PREDICTED BY IDOCK:   -2.10 KCAL/MOL
REMARK 922        TOTAL FREE ENERGY PREDICTED BY IDOCK:   -3.03 KCAL/MOL
REMARK 923 INTER-LIGAND FREE ENERGY PREDICTED BY IDOCK:   -3.96 KCAL/MOL
REMARK 924 INTRA-LIGAND FREE ENERGY PREDICTED BY IDOCK:    0.93 KCAL/MOL
REMARK 927      BINDING AFFINITY PREDICTED BY RF-SCORE:    0.00 PKD
ROOT
HETATM    1  C   UNL     1      -8.582   2.709  70.773  1.00  0.00    -0.106 C  
HETATM    2  C   UNL     1      -8.504   3.372  69.408  1.00  0.00    -0.061 C  
ENDROOT
BRANCH   2   3
HETATM    3  O   UNL     1      -8.567   2.337  68.415  1.00  0.00    -0.068 OA 
BRANCH   3   4
HETATM    4  C   UNL     1      -8.507   2.765  67.131  1.00  0.00    -0.098 C  
HETATM    5  O   UNL     1      -8.408   2.063  66.138  1.00  0.00    -0.086 OA 
BRANCH   4   6
HETATM    6  C   UNL     1      -8.744   4.224  67.064  1.00  0.00    -0.110 A  
HETATM    7  C   UNL     1      -7.879   5.103  66.422  1.00  0.00    -0.103 A  
HETATM    8  N   UNL     1      -8.007   6.455  66.460  1.00  0.00    -0.107 NA 
HETATM    9  C   UNL     1      -9.045   6.947  67.171  1.00  0.00    -0.131 A  
HETATM   10  C   UNL     1      -9.981   6.151  67.817  1.00  0.00    -0.143 A  
HETATM   11  C   UNL     1      -9.826   4.768  67.760  1.00  0.00    -0.194 A  
BRANCH   9  12
HETATM   12  C   UNL     1      -9.101   8.371  67.271  1.00  0.00    -0.156 C  
HETATM   13  C   UNL     1      -9.113   9.573  67.333  1.00  0.00    -0.144 C  
BRANCH  13  14
HETATM   14  C   UNL     1      -9.100  11.002  67.420  1.00  0.00    -0.143 A  
HETATM   15  C   UNL     1     -10.276  11.707  67.702  1.00  0.00    -0.206 A  
HETATM   16  C   UNL     1     -10.291  13.117  67.860  1.00  0.00    -0.232 A  
HETATM   17  C   UNL     1      -9.077  13.806  67.673  1.00  0.00    -0.196 A  
HETATM   18  S   UNL     1      -8.856  15.574  67.820  1.00  0.00    -0.173 SA 
HETATM   19  C   UNL     1      -7.905  13.090  67.368  1.00  0.00    -0.166 A  
HETATM   20  C   UNL     1     -10.566  16.147  67.851  1.00  0.00    -0.309 C  
HETATM   21  C   UNL     1      -7.913  11.700  67.247  1.00  0.00    -0.157 A  
HETATM   22  C   UNL     1     -11.410  15.258  68.745  1.00  0.00    -0.318 C  
HETATM   23  C   UNL     1     -11.612  13.823  68.199  1.00  0.00    -0.370 C  
HETATM   24  C   UNL     1     -12.495  13.864  66.932  1.00  0.00    -0.201 C  
HETATM   25  C   UNL     1     -12.391  13.062  69.303  1.00  0.00     0.017 C  
ENDBRANCH  13  14
ENDBRANCH   9  12
ENDBRANCH   4   6
ENDBRANCH   3   4
ENDBRANCH   2   3
TORSDOF 5
ENDMDL
MODEL      124
REMARK 921   NORMALIZED FREE ENERGY PREDICTED BY IDOCK:   -2.07 KCAL/MOL
REMARK 922        TOTAL FREE ENERGY PREDICTED BY IDOCK:   -2.99 KCAL/MOL
REMARK 923 INTER-LIGAND FREE ENERGY PREDICTED BY IDOCK:   -3.50 KCAL/MOL
REMARK 924 INTRA-LIGAND FREE ENERGY PREDICTED BY IDOCK:    0.51 KCAL/MOL
REMARK 927      BINDING AFFINITY PREDICTED BY RF-SCORE:    0.00 PKD
ROOT
HETATM    1  C   UNL     1      -7.102  19.294  69.328  1.00  0.00    -0.333 C  
HETATM    2  C   UNL     1      -7.179  18.509  68.030  1.00  0.00    -0.245 C  
ENDROOT
BRANCH   2   3
HETATM    3  O   UNL     1      -6.078  17.587  68.009  1.00  0.00    -0.148 OA 
BRANCH   3   4
HETATM    4  C   UNL     1      -5.803  16.990  69.193  1.00  0.00    -0.170 C  
HETATM    5  O   UNL     1      -5.526  17.552  70.240  1.00  0.00    -0.226 OA 
BRANCH   4   6
HETATM    6  C   UNL     1      -6.039  15.533  69.101  1.00  0.00    -0.110 A  
HETATM    7  C   UNL     1      -5.993  14.832  67.901  1.00  0.00    -0.144 A  
HETATM    8  N   UNL     1      -6.334  13.523  67.774  1.00  0.00    -0.153 NA 
HETATM    9  C   UNL     1      -6.739  12.889  68.897  1.00  0.00    -0.097 A  
HETATM   10  C   UNL     1      -6.785  13.492  70.146  1.00  0.00     0.283 A  
HETATM   11  C   UNL     1      -6.428  14.835  70.247  1.00  0.00    -0.145 A  
BRANCH   9  12
HETATM   12  C   UNL     1      -7.179  11.543  68.717  1.00  0.00    -0.112 C  
HETATM   13  C   UNL     1      -7.517  10.394  68.586  1.00  0.00    -0.088 C  
BRANCH  13  14
HETATM   14  C   UNL     1      -7.892   9.024  68.416  1.00  0.00    -0.103 A  
HETATM   15  C   UNL     1      -8.336   8.268  69.508  1.00  0.00    -0.121 A  
HETATM   16  C   UNL     1      -8.776   6.927  69.368  1.00  0.00    -0.133 A  
HETATM   17  C   UNL     1      -8.708   6.349  68.085  1.00  0.00    -0.116 A  
HETATM   18  S   UNL     1      -9.206   4.683  67.672  1.00  0.00    -0.137 SA 
HETATM   19  C   UNL     1      -8.240   7.110  66.998  1.00  0.00    -0.117 A  
HETATM   20  C   UNL     1      -9.388   3.947  69.309  1.00  0.00    -0.172 C  
HETATM   21  C   UNL     1      -7.839   8.437  67.159  1.00  0.00    -0.100 A  
HETATM   22  C   UNL     1     -10.100   4.903  70.246  1.00  0.00    -0.322 C  
HETATM   23  C   UNL     1      -9.279   6.167  70.604  1.00  0.00    -0.163 C  
HETATM   24  C   UNL     1      -8.065   5.774  71.475  1.00  0.00    -0.118 C  
HETATM   25  C   UNL     1     -10.222   7.048  71.464  1.00  0.00    -0.211 C  
ENDBRANCH  13  14
ENDBRANCH   9  12
ENDBRANCH   4   6
ENDBRANCH   3   4
ENDBRANCH   2   3
TORSDOF 5
ENDMDL
MODEL      125
REMARK 921   NORMALIZED FREE ENERGY PREDICTED BY IDOCK:   -2.01 KCAL/MOL
REMARK 922        TOTAL FREE ENERGY PREDICTED BY IDOCK:   -2.92 KCAL/MOL
REMARK 923 INTER-LIGAND FREE ENERGY PREDICTED BY IDOCK:   -2.68 KCAL/MOL
REMARK 924 INTRA-LIGAND FREE ENERGY PREDICTED BY IDOCK:   -0.24 KCAL/MOL
REMARK 927      BINDING AFFINITY PREDICTED BY RF-SCORE:    0.00 PKD
ROOT
HETATM    1  C   UNL     1      -7.309  17.336  69.042  1.00  0.00    -0.209 C  
HETATM    2  C   UNL     1      -7.952  16.043  68.570  1.00  0.00    -0.159 C  
ENDROOT
BRANCH   2   3
HETATM    3  O   UNL     1      -6.901  15.103  68.304  1.00  0.00    -0.103 OA 
BRANCH   3   4
HETATM    4  C   UNL     1      -6.526  14.342  69.360  1.00  0.00    -0.125 C  
HETATM    5  O   UNL     1      -6.319  14.733  70.497  1.00  0.00    -0.161 OA 
BRANCH   4   6
HETATM    6  C   UNL     1      -6.551  12.909  68.995  1.00  0.00    -0.102 A  
HETATM    7  C   UNL     1      -7.275  12.414  67.915  1.00  0.00    -0.110 A  
HETATM    8  N   UNL     1      -7.418  11.091  67.641  1.00  0.00    -0.094 NA 
HETATM    9  C   UNL     1      -6.810  10.227  68.483  1.00  0.00    -0.061 A  
HETATM   10  C   UNL     1      -6.038  10.623  69.567  1.00  0.00    -0.053 A  
HETATM   11  C   UNL     1      -5.908  11.986  69.824  1.00  0.00    -0.125 A  
BRANCH   9  12
HETATM   12  C   UNL     1      -7.054   8.844  68.225  1.00  0.00    -0.078 C  
HETATM   13  C   UNL     1      -7.262   7.671  68.047  1.00  0.00    -0.097 C  
BRANCH  13  14
HETATM   14  C   UNL     1      -7.484   6.271  67.853  1.00  0.00    -0.093 A  
HETATM   15  C   UNL     1      -8.041   5.798  66.659  1.00  0.00    -0.102 A  
HETATM   16  C   UNL     1      -8.217   4.414  66.404  1.00  0.00    -0.102 A  
HETATM   17  C   UNL     1      -7.856   3.512  67.424  1.00  0.00    -0.078 A  
HETATM   18  S   UNL     1      -7.988   1.733  67.328  1.00  0.00    -0.067 SA 
HETATM   19  C   UNL     1      -7.317   3.998  68.630  1.00  0.00    -0.055 A  
HETATM   20  C   UNL     1      -9.011   1.528  65.856  1.00  0.00    -0.102 C  
HETATM   21  C   UNL     1      -7.128   5.365  68.843  1.00  0.00    -0.061 A  
HETATM   22  C   UNL     1      -8.554   2.467  64.756  1.00  0.00    -0.095 C  
HETATM   23  C   UNL     1      -8.806   3.965  65.058  1.00  0.00    -0.126 C  
HETATM   24  C   UNL     1     -10.324   4.251  65.059  1.00  0.00    -0.203 C  
HETATM   25  C   UNL     1      -8.171   4.742  63.876  1.00  0.00    -0.119 C  
ENDBRANCH  13  14
ENDBRANCH   9  12
ENDBRANCH   4   6
ENDBRANCH   3   4
ENDBRANCH   2   3
TORSDOF 5
ENDMDL
MODEL      126
REMARK 921   NORMALIZED FREE ENERGY PREDICTED BY IDOCK:   -1.94 KCAL/MOL
REMARK 922        TOTAL FREE ENERGY PREDICTED BY IDOCK:   -2.83 KCAL/MOL
REMARK 923 INTER-LIGAND FREE ENERGY PREDICTED BY IDOCK:   -3.23 KCAL/MOL
REMARK 924 INTRA-LIGAND FREE ENERGY PREDICTED BY IDOCK:    0.40 KCAL/MOL
REMARK 927      BINDING AFFINITY PREDICTED BY RF-SCORE:    0.00 PKD
ROOT
HETATM    1  C   UNL     1      -7.727   1.785  70.045  1.00  0.00    -0.044 C  
HETATM    2  C   UNL     1      -8.051   2.548  68.772  1.00  0.00    -0.052 C  
ENDROOT
BRANCH   2   3
HETATM    3  O   UNL     1      -8.466   1.594  67.783  1.00  0.00    -0.064 OA 
BRANCH   3   4
HETATM    4  C   UNL     1      -8.713   2.106  66.554  1.00  0.00    -0.120 C  
HETATM    5  O   UNL     1      -8.840   1.474  65.518  1.00  0.00    -0.116 OA 
BRANCH   4   6
HETATM    6  C   UNL     1      -8.975   3.559  66.646  1.00  0.00    -0.158 A  
HETATM    7  C   UNL     1      -8.103   4.520  66.145  1.00  0.00    -0.103 A  
HETATM    8  N   UNL     1      -8.258   5.856  66.334  1.00  0.00    -0.110 NA 
HETATM    9  C   UNL     1      -9.332   6.247  67.054  1.00  0.00    -0.126 A  
HETATM   10  C   UNL     1     -10.277   5.368  67.566  1.00  0.00    -0.243 A  
HETATM   11  C   UNL     1     -10.093   4.003  67.356  1.00  0.00     0.139 A  
BRANCH   9  12
HETATM   12  C   UNL     1      -9.419   7.649  67.315  1.00  0.00    -0.185 C  
HETATM   13  C   UNL     1      -9.531   8.825  67.549  1.00  0.00    -0.173 C  
BRANCH  13  14
HETATM   14  C   UNL     1      -9.689  10.223  67.809  1.00  0.00    -0.178 A  
HETATM   15  C   UNL     1      -8.571  11.032  68.045  1.00  0.00    -0.134 A  
HETATM   16  C   UNL     1      -8.682  12.432  68.242  1.00  0.00    -0.175 A  
HETATM   17  C   UNL     1      -9.975  12.990  68.244  1.00  0.00    -0.235 A  
HETATM   18  S   UNL     1     -10.356  14.722  68.472  1.00  0.00    -0.243 SA 
HETATM   19  C   UNL     1     -11.094  12.165  68.027  1.00  0.00    -0.292 A  
HETATM   20  C   UNL     1      -8.775  15.362  69.058  1.00  0.00    -0.231 C  
HETATM   21  C   UNL     1     -10.954  10.794  67.807  1.00  0.00    -0.354 A  
HETATM   22  C   UNL     1      -7.632  14.782  68.248  1.00  0.00    -0.115 C  
HETATM   23  C   UNL     1      -7.410  13.264  68.466  1.00  0.00    -0.115 C  
HETATM   24  C   UNL     1      -6.894  13.010  69.900  1.00  0.00     0.357 C  
HETATM   25  C   UNL     1      -6.289  12.859  67.474  1.00  0.00    -0.161 C  
ENDBRANCH  13  14
ENDBRANCH   9  12
ENDBRANCH   4   6
ENDBRANCH   3   4
ENDBRANCH   2   3
TORSDOF 5
ENDMDL
MODEL      127
REMARK 921   NORMALIZED FREE ENERGY PREDICTED BY IDOCK:   -1.84 KCAL/MOL
REMARK 922        TOTAL FREE ENERGY PREDICTED BY IDOCK:   -2.70 KCAL/MOL
REMARK 923 INTER-LIGAND FREE ENERGY PREDICTED BY IDOCK:   -2.49 KCAL/MOL
REMARK 924 INTRA-LIGAND FREE ENERGY PREDICTED BY IDOCK:   -0.21 KCAL/MOL
REMARK 927      BINDING AFFINITY PREDICTED BY RF-SCORE:    0.00 PKD
ROOT
HETATM    1  C   UNL     1      -6.025  18.219  70.315  1.00  0.00    -0.073 C  
HETATM    2  C   UNL     1      -6.348  17.343  69.116  1.00  0.00    -0.234 C  
ENDROOT
BRANCH   2   3
HETATM    3  O   UNL     1      -5.381  16.283  69.074  1.00  0.00    -0.109 OA 
BRANCH   3   4
HETATM    4  C   UNL     1      -5.707  15.176  69.783  1.00  0.00    -0.113 C  
HETATM    5  O   UNL     1      -5.952  15.127  70.978  1.00  0.00     0.005 OA 
BRANCH   4   6
HETATM    6  C   UNL     1      -5.890  14.021  68.878  1.00  0.00    -0.083 A  
HETATM    7  C   UNL     1      -6.862  13.984  67.884  1.00  0.00    -0.164 A  
HETATM    8  N   UNL     1      -7.134  12.887  67.130  1.00  0.00    -0.050 NA 
HETATM    9  C   UNL     1      -6.401  11.781  67.382  1.00  0.00    -0.114 A  
HETATM   10  C   UNL     1      -5.385  11.729  68.327  1.00  0.00    -0.043 A  
HETATM   11  C   UNL     1      -5.128  12.869  69.085  1.00  0.00    -0.069 A  
BRANCH   9  12
HETATM   12  C   UNL     1      -6.770  10.618  66.639  1.00  0.00    -0.106 C  
HETATM   13  C   UNL     1      -7.121   9.645  66.022  1.00  0.00    -0.097 C  
BRANCH  13  14
HETATM   14  C   UNL     1      -7.552   8.478  65.315  1.00  0.00    -0.089 A  
HETATM   15  C   UNL     1      -8.287   7.482  65.968  1.00  0.00    -0.136 A  
HETATM   16  C   UNL     1      -8.785   6.342  65.287  1.00  0.00     0.012 A  
HETATM   17  C   UNL     1      -8.473   6.212  63.919  1.00  0.00     0.175 A  
HETATM   18  S   UNL     1      -8.991   4.868  62.862  1.00  0.00     0.000 SA 
HETATM   19  C   UNL     1      -7.715   7.208  63.277  1.00  0.00    -0.116 A  
HETATM   20  C   UNL     1      -9.594   3.673  64.071  1.00  0.00    -0.157 C  
HETATM   21  C   UNL     1      -7.261   8.334  63.965  1.00  0.00    -0.090 A  
HETATM   22  C   UNL     1     -10.424   4.364  65.135  1.00  0.00    -0.184 C  
HETATM   23  C   UNL     1      -9.611   5.303  66.060  1.00  0.00    -0.166 C  
HETATM   24  C   UNL     1      -8.659   4.470  66.946  1.00  0.00    -0.104 C  
HETATM   25  C   UNL     1     -10.654   5.985  66.984  1.00  0.00    -0.385 C  
ENDBRANCH  13  14
ENDBRANCH   9  12
ENDBRANCH   4   6
ENDBRANCH   3   4
ENDBRANCH   2   3
TORSDOF 5
ENDMDL
MODEL      128
REMARK 921   NORMALIZED FREE ENERGY PREDICTED BY IDOCK:   -1.31 KCAL/MOL
REMARK 922        TOTAL FREE ENERGY PREDICTED BY IDOCK:   -2.02 KCAL/MOL
REMARK 923 INTER-LIGAND FREE ENERGY PREDICTED BY IDOCK:   -2.03 KCAL/MOL
REMARK 924 INTRA-LIGAND FREE ENERGY PREDICTED BY IDOCK:    0.01 KCAL/MOL
REMARK 927      BINDING AFFINITY PREDICTED BY RF-SCORE:    0.00 PKD
ROOT
HETATM    1  C   UNL     1      -5.165  16.217  70.276  1.00  0.00    -0.176 C  
HETATM    2  C   UNL     1      -5.574  15.008  71.099  1.00  0.00    -0.022 C  
ENDROOT
BRANCH   2   3
HETATM    3  O   UNL     1      -5.660  13.882  70.212  1.00  0.00    -0.108 OA 
BRANCH   3   4
HETATM    4  C   UNL     1      -6.728  13.883  69.379  1.00  0.00    -0.095 C  
HETATM    5  O   UNL     1      -7.445  14.836  69.122  1.00  0.00    -0.137 OA 
BRANCH   4   6
HETATM    6  C   UNL     1      -6.829  12.587  68.673  1.00  0.00    -0.088 A  
HETATM    7  C   UNL     1      -7.279  11.423  69.286  1.00  0.00    -0.075 A  
HETATM    8  N   UNL     1      -7.257  10.199  68.698  1.00  0.00    -0.078 NA 
HETATM    9  C   UNL     1      -6.764  10.138  67.441  1.00  0.00    -0.073 A  
HETATM   10  C   UNL     1      -6.324  11.248  66.733  1.00  0.00    -0.139 A  
HETATM   11  C   UNL     1      -6.359  12.491  67.361  1.00  0.00    -0.157 A  
BRANCH   9  12
HETATM   12  C   UNL     1      -6.666   8.827  66.883  1.00  0.00    -0.069 C  
HETATM   13  C   UNL     1      -6.618   7.711  66.433  1.00  0.00    -0.050 C  
BRANCH  13  14
HETATM   14  C   UNL     1      -6.559   6.374  65.927  1.00  0.00    -0.047 A  
HETATM   15  C   UNL     1      -7.511   5.920  65.006  1.00  0.00    -0.080 A  
HETATM   16  C   UNL     1      -7.449   4.623  64.434  1.00  0.00    -0.071 A  
HETATM   17  C   UNL     1      -6.413   3.771  64.862  1.00  0.00    -0.031 A  
HETATM   18  S   UNL     1      -6.137   2.103  64.283  1.00  0.00    -0.014 SA 
HETATM   19  C   UNL     1      -5.473   4.229  65.805  1.00  0.00    -0.010 A  
HETATM   20  C   UNL     1      -7.681   1.767  63.411  1.00  0.00    -0.055 C  
HETATM   21  C   UNL     1      -5.542   5.520  66.331  1.00  0.00    -0.017 A  
HETATM   22  C   UNL     1      -8.091   2.964  62.575  1.00  0.00    -0.072 C  
HETATM   23  C   UNL     1      -8.510   4.202  63.407  1.00  0.00    -0.100 C  
HETATM   24  C   UNL     1      -9.834   3.911  64.148  1.00  0.00    -0.181 C  
HETATM   25  C   UNL     1      -8.775   5.329  62.374  1.00  0.00    -0.087 C  
ENDBRANCH  13  14
ENDBRANCH   9  12
ENDBRANCH   4   6
ENDBRANCH   3   4
ENDBRANCH   2   3
TORSDOF 5
ENDMDL
MODEL      129
REMARK 921   NORMALIZED FREE ENERGY PREDICTED BY IDOCK:    0.18 KCAL/MOL
REMARK 922        TOTAL FREE ENERGY PREDICTED BY IDOCK:   -0.09 KCAL/MOL
REMARK 923 INTER-LIGAND FREE ENERGY PREDICTED BY IDOCK:   -1.48 KCAL/MOL
REMARK 924 INTRA-LIGAND FREE ENERGY PREDICTED BY IDOCK:    1.38 KCAL/MOL
REMARK 927      BINDING AFFINITY PREDICTED BY RF-SCORE:    0.00 PKD
ROOT
HETATM    1  C   UNL     1      -5.839  16.079  70.176  1.00  0.00    -0.155 C  
HETATM    2  C   UNL     1      -6.656  15.127  71.033  1.00  0.00     0.639 C  
ENDROOT
BRANCH   2   3
HETATM    3  O   UNL     1      -6.752  13.878  70.331  1.00  0.00     0.061 OA 
BRANCH   3   4
HETATM    4  C   UNL     1      -6.317  13.901  69.049  1.00  0.00    -0.099 C  
HETATM    5  O   UNL     1      -5.570  14.729  68.552  1.00  0.00    -0.089 OA 
BRANCH   4   6
HETATM    6  C   UNL     1      -6.742  12.675  68.340  1.00  0.00    -0.082 A  
HETATM    7  C   UNL     1      -7.815  11.893  68.755  1.00  0.00    -0.052 A  
HETATM    8  N   UNL     1      -8.141  10.697  68.200  1.00  0.00    -0.111 NA 
HETATM    9  C   UNL     1      -7.361  10.266  67.185  1.00  0.00    -0.091 A  
HETATM   10  C   UNL     1      -6.291  10.990  66.676  1.00  0.00    -0.124 A  
HETATM   11  C   UNL     1      -5.980  12.214  67.264  1.00  0.00    -0.152 A  
BRANCH   9  12
HETATM   12  C   UNL     1      -7.670   8.965  66.682  1.00  0.00    -0.100 C  
HETATM   13  C   UNL     1      -7.956   7.863  66.290  1.00  0.00    -0.103 C  
BRANCH  13  14
HETATM   14  C   UNL     1      -8.285   6.541  65.852  1.00  0.00    -0.131 A  
HETATM   15  C   UNL     1      -7.399   5.819  65.045  1.00  0.00    -0.075 A  
HETATM   16  C   UNL     1      -7.661   4.484  64.643  1.00  0.00    -0.081 A  
HETATM   17  C   UNL     1      -8.883   3.911  65.044  1.00  0.00    -0.126 A  
HETATM   18  S   UNL     1      -9.426   2.252  64.658  1.00  0.00    -0.056 SA 
HETATM   19  C   UNL     1      -9.778   4.653  65.837  1.00  0.00    -0.208 A  
HETATM   20  C   UNL     1      -8.240   1.774  63.386  1.00  0.00    -0.065 C  
HETATM   21  C   UNL     1      -9.482   5.956  66.242  1.00  0.00    -0.161 A  
HETATM   22  C   UNL     1      -6.839   2.205  63.775  1.00  0.00    -0.035 C  
HETATM   23  C   UNL     1      -6.629   3.740  63.783  1.00  0.00    -0.042 C  
HETATM   24  C   UNL     1      -6.698   4.285  62.339  1.00  0.00    -0.030 C  
HETATM   25  C   UNL     1      -5.188   3.962  64.311  1.00  0.00    -0.009 C  
ENDBRANCH  13  14
ENDBRANCH   9  12
ENDBRANCH   4   6
ENDBRANCH   3   4
ENDBRANCH   2   3
TORSDOF 5
ENDMDL
MODEL      130
REMARK 921   NORMALIZED FREE ENERGY PREDICTED BY IDOCK:    0.27 KCAL/MOL
REMARK 922        TOTAL FREE ENERGY PREDICTED BY IDOCK:    0.02 KCAL/MOL
REMARK 923 INTER-LIGAND FREE ENERGY PREDICTED BY IDOCK:   -1.34 KCAL/MOL
REMARK 924 INTRA-LIGAND FREE ENERGY PREDICTED BY IDOCK:    1.37 KCAL/MOL
REMARK 927      BINDING AFFINITY PREDICTED BY RF-SCORE:    0.00 PKD
ROOT
HETATM    1  C   UNL     1      -5.788  10.680  63.755  1.00  0.00    -0.016 C  
HETATM    2  C   UNL     1      -6.309  10.583  62.331  1.00  0.00    -0.141 C  
ENDROOT
BRANCH   2   3
HETATM    3  O   UNL     1      -7.731  10.397  62.397  1.00  0.00    -0.134 OA 
BRANCH   3   4
HETATM    4  C   UNL     1      -8.375  11.175  63.299  1.00  0.00     0.241 C  
HETATM    5  O   UNL     1      -8.833  12.288  63.098  1.00  0.00     0.424 OA 
BRANCH   4   6
HETATM    6  C   UNL     1      -8.603  10.427  64.554  1.00  0.00    -0.187 A  
HETATM    7  C   UNL     1      -7.647  10.322  65.559  1.00  0.00    -0.149 A  
HETATM    8  N   UNL     1      -7.784   9.535  66.657  1.00  0.00    -0.097 NA 
HETATM    9  C   UNL     1      -8.928   8.822  66.754  1.00  0.00    -0.135 A  
HETATM   10  C   UNL     1      -9.955   8.886  65.822  1.00  0.00     0.026 A  
HETATM   11  C   UNL     1      -9.787   9.702  64.706  1.00  0.00     0.015 A  
BRANCH   9  12
HETATM   12  C   UNL     1      -9.005   7.934  67.869  1.00  0.00    -0.129 C  
HETATM   13  C   UNL     1      -9.034   7.169  68.800  1.00  0.00    -0.128 C  
BRANCH  13  14
HETATM   14  C   UNL     1      -9.066   6.237  69.885  1.00  0.00    -0.145 A  
HETATM   15  C   UNL     1     -10.062   6.320  70.864  1.00  0.00    -0.227 A  
HETATM   16  C   UNL     1     -10.165   5.377  71.919  1.00  0.00    -0.258 A  
HETATM   17  C   UNL     1      -9.189   4.364  71.984  1.00  0.00    -0.128 A  
HETATM   18  S   UNL     1      -9.117   3.073  73.217  1.00  0.00    -0.085 SA 
HETATM   19  C   UNL     1      -8.178   4.302  71.007  1.00  0.00    -0.078 A  
HETATM   20  C   UNL     1     -10.297   3.679  74.440  1.00  0.00    -0.198 C  
HETATM   21  C   UNL     1      -8.117   5.226  69.964  1.00  0.00    -0.084 A  
HETATM   22  C   UNL     1     -11.540   4.217  73.758  1.00  0.00     0.025 C  
HETATM   23  C   UNL     1     -11.303   5.512  72.942  1.00  0.00    -0.348 C  
HETATM   24  C   UNL     1     -10.978   6.682  73.897  1.00  0.00     0.214 C  
HETATM   25  C   UNL     1     -12.654   5.821  72.246  1.00  0.00     0.382 C  
ENDBRANCH  13  14
ENDBRANCH   9  12
ENDBRANCH   4   6
ENDBRANCH   3   4
ENDBRANCH   2   3
TORSDOF 5
ENDMDL
MODEL      131
REMARK 921   NORMALIZED FREE ENERGY PREDICTED BY IDOCK:    0.85 KCAL/MOL
REMARK 922        TOTAL FREE ENERGY PREDICTED BY IDOCK:    0.77 KCAL/MOL
REMARK 923 INTER-LIGAND FREE ENERGY PREDICTED BY IDOCK:   -0.88 KCAL/MOL
REMARK 924 INTRA-LIGAND FREE ENERGY PREDICTED BY IDOCK:    1.65 KCAL/MOL
REMARK 927      BINDING AFFINITY PREDICTED BY RF-SCORE:    0.00 PKD
ROOT
HETATM    1  C   UNL     1      -6.097  10.825  64.187  1.00  0.00     0.202 C  
HETATM    2  C   UNL     1      -6.391  10.805  62.697  1.00  0.00    -0.029 C  
ENDROOT
BRANCH   2   3
HETATM    3  O   UNL     1      -7.801  10.594  62.531  1.00  0.00    -0.158 OA 
BRANCH   3   4
HETATM    4  C   UNL     1      -8.584  11.141  63.491  1.00  0.00     0.178 C  
HETATM    5  O   UNL     1      -9.201  12.191  63.412  1.00  0.00    -0.043 OA 
BRANCH   4   6
HETATM    6  C   UNL     1      -8.733  10.205  64.627  1.00  0.00    -0.205 A  
HETATM    7  C   UNL     1      -8.044  10.353  65.826  1.00  0.00    -0.155 A  
HETATM    8  N   UNL     1      -8.066   9.438  66.830  1.00  0.00    -0.108 NA 
HETATM    9  C   UNL     1      -8.809   8.328  66.625  1.00  0.00    -0.144 A  
HETATM   10  C   UNL     1      -9.559   8.106  65.478  1.00  0.00     0.419 A  
HETATM   11  C   UNL     1      -9.519   9.062  64.465  1.00  0.00     0.484 A  
BRANCH   9  12
HETATM   12  C   UNL     1      -8.739   7.343  67.656  1.00  0.00    -0.125 C  
HETATM   13  C   UNL     1      -8.638   6.515  68.525  1.00  0.00    -0.123 C  
BRANCH  13  14
HETATM   14  C   UNL     1      -8.503   5.513  69.537  1.00  0.00    -0.105 A  
HETATM   15  C   UNL     1      -7.925   5.826  70.773  1.00  0.00    -0.113 A  
HETATM   16  C   UNL     1      -7.831   4.878  71.824  1.00  0.00    -0.107 A  
HETATM   17  C   UNL     1      -8.298   3.574  71.569  1.00  0.00    -0.072 A  
HETATM   18  S   UNL     1      -8.282   2.220  72.736  1.00  0.00    -0.059 SA 
HETATM   19  C   UNL     1      -8.857   3.263  70.316  1.00  0.00    -0.145 A  
HETATM   20  C   UNL     1      -7.209   2.876  74.030  1.00  0.00    -0.042 C  
HETATM   21  C   UNL     1      -8.963   4.223  69.309  1.00  0.00    -0.154 A  
HETATM   22  C   UNL     1      -7.551   4.325  74.322  1.00  0.00    -0.076 C  
HETATM   23  C   UNL     1      -7.213   5.299  73.166  1.00  0.00    -0.090 C  
HETATM   24  C   UNL     1      -5.680   5.401  72.998  1.00  0.00    -0.023 C  
HETATM   25  C   UNL     1      -7.740   6.685  73.620  1.00  0.00    -0.091 C  
ENDBRANCH  13  14
ENDBRANCH   9  12
ENDBRANCH   4   6
ENDBRANCH   3   4
ENDBRANCH   2   3
TORSDOF 5
ENDMDL
MODEL      132
REMARK 921   NORMALIZED FREE ENERGY PREDICTED BY IDOCK:    3.34 KCAL/MOL
REMARK 922        TOTAL FREE ENERGY PREDICTED BY IDOCK:    3.99 KCAL/MOL
REMARK 923 INTER-LIGAND FREE ENERGY PREDICTED BY IDOCK:    4.18 KCAL/MOL
REMARK 924 INTRA-LIGAND FREE ENERGY PREDICTED BY IDOCK:   -0.19 KCAL/MOL
REMARK 927      BINDING AFFINITY PREDICTED BY RF-SCORE:    0.00 PKD
ROOT
HETATM    1  C   UNL     1     -10.086  19.019  71.576  1.00  0.00     3.444 C  
HETATM    2  C   UNL     1      -9.206  19.866  70.673  1.00  0.00     1.644 C  
ENDROOT
BRANCH   2   3
HETATM    3  O   UNL     1      -7.838  19.588  71.009  1.00  0.00     1.706 OA 
BRANCH   3   4
HETATM    4  C   UNL     1      -7.014  19.386  69.953  1.00  0.00     0.006 C  
HETATM    5  O   UNL     1      -6.246  20.201  69.467  1.00  0.00    -0.310 OA 
BRANCH   4   6
HETATM    6  C   UNL     1      -7.042  17.965  69.544  1.00  0.00     0.089 A  
HETATM    7  C   UNL     1      -5.979  17.093  69.759  1.00  0.00    -0.237 A  
HETATM    8  N   UNL     1      -5.931  15.824  69.277  1.00  0.00    -0.116 NA 
HETATM    9  C   UNL     1      -6.992  15.410  68.550  1.00  0.00    -0.113 A  
HETATM   10  C   UNL     1      -8.113  16.192  68.310  1.00  0.00    -0.153 A  
HETATM   11  C   UNL     1      -8.136  17.490  68.817  1.00  0.00    -0.232 A  
BRANCH   9  12
HETATM   12  C   UNL     1      -6.873  14.106  67.979  1.00  0.00    -0.149 C  
HETATM   13  C   UNL     1      -6.777  12.990  67.536  1.00  0.00    -0.156 C  
BRANCH  13  14
HETATM   14  C   UNL     1      -6.638  11.660  67.027  1.00  0.00    -0.144 A  
HETATM   15  C   UNL     1      -7.739  10.795  66.990  1.00  0.00    -0.121 A  
HETATM   16  C   UNL     1      -7.656   9.493  66.435  1.00  0.00    -0.097 A  
HETATM   17  C   UNL     1      -6.401   9.066  65.958  1.00  0.00    -0.064 A  
HETATM   18  S   UNL     1      -6.060   7.474  65.221  1.00  0.00    -0.038 SA 
HETATM   19  C   UNL     1      -5.296   9.934  66.020  1.00  0.00    -0.044 A  
HETATM   20  C   UNL     1      -7.558   6.558  65.637  1.00  0.00    -0.086 C  
HETATM   21  C   UNL     1      -5.412  11.222  66.546  1.00  0.00    -0.135 A  
HETATM   22  C   UNL     1      -8.787   7.418  65.415  1.00  0.00     0.071 C  
HETATM   23  C   UNL     1      -8.911   8.609  66.398  1.00  0.00    -0.197 C  
HETATM   24  C   UNL     1      -9.191   8.083  67.824  1.00  0.00    -0.142 C  
HETATM   25  C   UNL     1     -10.153   9.410  65.929  1.00  0.00    -0.243 C  
ENDBRANCH  13  14
ENDBRANCH   9  12
ENDBRANCH   4   6
ENDBRANCH   3   4
ENDBRANCH   2   3
TORSDOF 5
ENDMDL
MODEL      133
REMARK 921   NORMALIZED FREE ENERGY PREDICTED BY IDOCK:    3.78 KCAL/MOL
REMARK 922        TOTAL FREE ENERGY PREDICTED BY IDOCK:    4.56 KCAL/MOL
REMARK 923 INTER-LIGAND FREE ENERGY PREDICTED BY IDOCK:   -1.76 KCAL/MOL
REMARK 924 INTRA-LIGAND FREE ENERGY PREDICTED BY IDOCK:    6.32 KCAL/MOL
REMARK 927      BINDING AFFINITY PREDICTED BY RF-SCORE:    0.00 PKD
ROOT
HETATM    1  C   UNL     1      -8.651  14.991  69.435  1.00  0.00    -0.121 C  
HETATM    2  C   UNL     1      -8.850  16.328  68.743  1.00  0.00    -0.243 C  
ENDROOT
BRANCH   2   3
HETATM    3  O   UNL     1      -7.556  16.922  68.556  1.00  0.00    -0.199 OA 
BRANCH   3   4
HETATM    4  C   UNL     1      -6.668  16.167  67.865  1.00  0.00    -0.137 C  
HETATM    5  O   UNL     1      -5.825  16.575  67.083  1.00  0.00    -0.150 OA 
BRANCH   4   6
HETATM    6  C   UNL     1      -6.740  14.757  68.307  1.00  0.00    -0.114 A  
HETATM    7  C   UNL     1      -6.854  14.385  69.642  1.00  0.00    -0.118 A  
HETATM    8  N   UNL     1      -6.790  13.101  70.079  1.00  0.00     0.307 NA 
HETATM    9  C   UNL     1      -6.604  12.148  69.140  1.00  0.00    -0.106 A  
HETATM   10  C   UNL     1      -6.514  12.415  67.780  1.00  0.00    -0.115 A  
HETATM   11  C   UNL     1      -6.584  13.741  67.360  1.00  0.00     0.032 A  
BRANCH   9  12
HETATM   12  C   UNL     1      -6.448  10.818  69.637  1.00  0.00    -0.103 C  
HETATM   13  C   UNL     1      -6.356   9.697  70.068  1.00  0.00    -0.059 C  
BRANCH  13  14
HETATM   14  C   UNL     1      -6.255   8.376  70.608  1.00  0.00    -0.036 A  
HETATM   15  C   UNL     1      -6.991   7.323  70.052  1.00  0.00    -0.060 A  
HETATM   16  C   UNL     1      -6.869   5.989  70.518  1.00  0.00    -0.054 A  
HETATM   17  C   UNL     1      -6.009   5.755  71.608  1.00  0.00    -0.026 A  
HETATM   18  S   UNL     1      -5.699   4.164  72.361  1.00  0.00    -0.012 SA 
HETATM   19  C   UNL     1      -5.290   6.824  72.174  1.00  0.00    -0.036 A  
HETATM   20  C   UNL     1      -7.014   3.163  71.637  1.00  0.00    -0.031 C  
HETATM   21  C   UNL     1      -5.407   8.123  71.678  1.00  0.00    -0.034 A  
HETATM   22  C   UNL     1      -7.153   3.457  70.156  1.00  0.00    -0.041 C  
HETATM   23  C   UNL     1      -7.684   4.877  69.840  1.00  0.00    -0.056 C  
HETATM   24  C   UNL     1      -9.158   4.996  70.289  1.00  0.00    -0.164 C  
HETATM   25  C   UNL     1      -7.640   5.006  68.295  1.00  0.00    -0.079 C  
ENDBRANCH  13  14
ENDBRANCH   9  12
ENDBRANCH   4   6
ENDBRANCH   3   4
ENDBRANCH   2   3
TORSDOF 5
ENDMDL
MODEL      134
REMARK 921   NORMALIZED FREE ENERGY PREDICTED BY IDOCK:    3.91 KCAL/MOL
REMARK 922        TOTAL FREE ENERGY PREDICTED BY IDOCK:    4.74 KCAL/MOL
REMARK 923 INTER-LIGAND FREE ENERGY PREDICTED BY IDOCK:    5.17 KCAL/MOL
REMARK 924 INTRA-LIGAND FREE ENERGY PREDICTED BY IDOCK:   -0.43 KCAL/MOL
REMARK 927      BINDING AFFINITY PREDICTED BY RF-SCORE:    0.00 PKD
ROOT
HETATM    1  C   UNL     1      -5.494  16.142  71.678  1.00  0.00     0.374 C  
HETATM    2  C   UNL     1      -6.417  15.400  72.630  1.00  0.00     2.624 C  
ENDROOT
BRANCH   2   3
HETATM    3  O   UNL     1      -6.757  14.145  72.022  1.00  0.00     0.744 OA 
BRANCH   3   4
HETATM    4  C   UNL     1      -5.900  13.128  72.279  1.00  0.00     0.966 C  
HETATM    5  O   UNL     1      -5.127  13.052  73.220  1.00  0.00    -0.369 OA 
BRANCH   4   6
HETATM    6  C   UNL     1      -6.132  12.011  71.338  1.00  0.00     1.282 A  
HETATM    7  C   UNL     1      -6.542  12.200  70.022  1.00  0.00     0.165 A  
HETATM    8  N   UNL     1      -6.886  11.190  69.182  1.00  0.00    -0.091 NA 
HETATM    9  C   UNL     1      -6.817   9.936  69.680  1.00  0.00    -0.076 A  
HETATM   10  C   UNL     1      -6.386   9.642  70.967  1.00  0.00    -0.063 A  
HETATM   11  C   UNL     1      -6.038  10.698  71.806  1.00  0.00     0.890 A  
BRANCH   9  12
HETATM   12  C   UNL     1      -7.273   8.902  68.807  1.00  0.00    -0.075 C  
HETATM   13  C   UNL     1      -7.678   8.014  68.101  1.00  0.00    -0.118 C  
BRANCH  13  14
HETATM   14  C   UNL     1      -8.147   6.938  67.282  1.00  0.00    -0.118 A  
HETATM   15  C   UNL     1      -7.430   6.546  66.146  1.00  0.00    -0.081 A  
HETATM   16  C   UNL     1      -7.829   5.444  65.346  1.00  0.00    -0.095 A  
HETATM   17  C   UNL     1      -9.014   4.774  65.704  1.00  0.00    -0.142 A  
HETATM   18  S   UNL     1      -9.707   3.366  64.848  1.00  0.00    -0.097 SA 
HETATM   19  C   UNL     1      -9.740   5.190  66.836  1.00  0.00    -0.175 A  
HETATM   20  C   UNL     1      -8.745   3.366  63.322  1.00  0.00    -0.093 C  
HETATM   21  C   UNL     1      -9.310   6.260  67.622  1.00  0.00    -0.116 A  
HETATM   22  C   UNL     1      -7.279   3.620  63.616  1.00  0.00    -0.050 C  
HETATM   23  C   UNL     1      -6.977   5.049  64.130  1.00  0.00    -0.049 C  
HETATM   24  C   UNL     1      -7.218   6.075  63.000  1.00  0.00    -0.054 C  
HETATM   25  C   UNL     1      -5.464   5.059  64.474  1.00  0.00    -0.013 C  
ENDBRANCH  13  14
ENDBRANCH   9  12
ENDBRANCH   4   6
ENDBRANCH   3   4
ENDBRANCH   2   3
TORSDOF 5
ENDMDL
MODEL      135
REMARK 921   NORMALIZED FREE ENERGY PREDICTED BY IDOCK:    5.81 KCAL/MOL
REMARK 922        TOTAL FREE ENERGY PREDICTED BY IDOCK:    7.19 KCAL/MOL
REMARK 923 INTER-LIGAND FREE ENERGY PREDICTED BY IDOCK:    0.40 KCAL/MOL
REMARK 924 INTRA-LIGAND FREE ENERGY PREDICTED BY IDOCK:    6.79 KCAL/MOL
REMARK 927      BINDING AFFINITY PREDICTED BY RF-SCORE:    0.00 PKD
ROOT
HETATM    1  C   UNL     1      -8.434  15.804  70.099  1.00  0.00     0.843 C  
HETATM    2  C   UNL     1      -8.810  17.180  69.575  1.00  0.00     0.549 C  
ENDROOT
BRANCH   2   3
HETATM    3  O   UNL     1      -7.597  17.921  69.377  1.00  0.00    -0.012 OA 
BRANCH   3   4
HETATM    4  C   UNL     1      -6.779  17.443  68.408  1.00  0.00    -0.187 C  
HETATM    5  O   UNL     1      -6.001  18.094  67.732  1.00  0.00    -0.155 OA 
BRANCH   4   6
HETATM    6  C   UNL     1      -6.830  15.965  68.376  1.00  0.00    -0.116 A  
HETATM    7  C   UNL     1      -6.920  15.184  69.523  1.00  0.00    -0.189 A  
HETATM    8  N   UNL     1      -6.836  13.828  69.526  1.00  0.00    -0.052 NA 
HETATM    9  C   UNL     1      -6.655  13.229  68.329  1.00  0.00    -0.099 A  
HETATM   10  C   UNL     1      -6.589  13.918  67.125  1.00  0.00     0.550 A  
HETATM   11  C   UNL     1      -6.679  15.308  67.153  1.00  0.00     0.090 A  
BRANCH   9  12
HETATM   12  C   UNL     1      -6.478  11.812  68.372  1.00  0.00    -0.053 C  
HETATM   13  C   UNL     1      -6.368  10.614  68.421  1.00  0.00    -0.054 C  
BRANCH  13  14
HETATM   14  C   UNL     1      -6.246   9.191  68.508  1.00  0.00    -0.049 A  
HETATM   15  C   UNL     1      -6.969   8.361  67.642  1.00  0.00    -0.075 A  
HETATM   16  C   UNL     1      -6.826   6.950  67.656  1.00  0.00    -0.077 A  
HETATM   17  C   UNL     1      -5.958   6.392  68.614  1.00  0.00    -0.021 A  
HETATM   18  S   UNL     1      -5.621   4.648  68.816  1.00  0.00    -0.013 SA 
HETATM   19  C   UNL     1      -5.252   7.233  69.494  1.00  0.00    -0.015 A  
HETATM   20  C   UNL     1      -6.925   3.913  67.808  1.00  0.00    -0.055 C  
HETATM   21  C   UNL     1      -5.390   8.621  69.441  1.00  0.00    -0.031 A  
HETATM   22  C   UNL     1      -7.074   4.664  66.500  1.00  0.00    -0.075 C  
HETATM   23  C   UNL     1      -7.628   6.103  66.657  1.00  0.00    -0.095 C  
HETATM   24  C   UNL     1      -9.101   6.049  67.119  1.00  0.00    -0.113 C  
HETATM   25  C   UNL     1      -7.592   6.721  65.235  1.00  0.00    -0.092 C  
ENDBRANCH  13  14
ENDBRANCH   9  12
ENDBRANCH   4   6
ENDBRANCH   3   4
ENDBRANCH   2   3
TORSDOF 5
ENDMDL
MODEL      136
REMARK 921   NORMALIZED FREE ENERGY PREDICTED BY IDOCK:    8.55 KCAL/MOL
REMARK 922        TOTAL FREE ENERGY PREDICTED BY IDOCK:   10.72 KCAL/MOL
REMARK 923 INTER-LIGAND FREE ENERGY PREDICTED BY IDOCK:   -0.11 KCAL/MOL
REMARK 924 INTRA-LIGAND FREE ENERGY PREDICTED BY IDOCK:   10.83 KCAL/MOL
REMARK 927      BINDING AFFINITY PREDICTED BY RF-SCORE:    0.00 PKD
ROOT
HETATM    1  C   UNL     1     -11.036   5.094  73.131  1.00  0.00    -0.391 C  
HETATM    2  C   UNL     1     -11.449   3.780  73.771  1.00  0.00     0.009 C  
ENDROOT
BRANCH   2   3
HETATM    3  O   UNL     1     -11.205   2.732  72.820  1.00  0.00     0.084 OA 
BRANCH   3   4
HETATM    4  C   UNL     1     -10.137   2.926  72.009  1.00  0.00    -0.114 C  
HETATM    5  O   UNL     1      -9.399   2.062  71.565  1.00  0.00    -0.091 OA 
BRANCH   4   6
HETATM    6  C   UNL     1     -10.065   4.341  71.585  1.00  0.00    -0.216 A  
HETATM    7  C   UNL     1      -9.773   5.381  72.461  1.00  0.00    -0.152 A  
HETATM    8  N   UNL     1      -9.830   6.696  72.122  1.00  0.00    -0.158 NA 
HETATM    9  C   UNL     1     -10.193   6.981  70.853  1.00  0.00    -0.197 A  
HETATM   10  C   UNL     1     -10.469   6.013  69.896  1.00  0.00    -0.313 A  
HETATM   11  C   UNL     1     -10.402   4.673  70.270  1.00  0.00    -0.084 A  
BRANCH   9  12
HETATM   12  C   UNL     1     -10.334   8.370  70.552  1.00  0.00    -0.220 C  
HETATM   13  C   UNL     1     -10.414   9.541  70.283  1.00  0.00    -0.319 C  
BRANCH  13  14
HETATM   14  C   UNL     1     -10.485  10.938  69.982  1.00  0.00     0.168 A  
HETATM   15  C   UNL     1     -11.518  11.726  70.504  1.00  0.00     0.239 A  
HETATM   16  C   UNL     1     -11.587  13.125  70.281  1.00  0.00    -0.079 A  
HETATM   17  C   UNL     1     -10.596  13.704  69.464  1.00  0.00     0.252 A  
HETATM   18  S   UNL     1     -10.481  15.438  69.046  1.00  0.00    -0.263 SA 
HETATM   19  C   UNL     1      -9.574  12.900  68.926  1.00  0.00     0.215 A  
HETATM   20  C   UNL     1     -12.091  16.044  69.589  1.00  0.00    -0.101 C  
HETATM   21  C   UNL     1      -9.515  11.530  69.185  1.00  0.00     0.185 A  
HETATM   22  C   UNL     1     -12.455  15.456  70.939  1.00  0.00    -0.474 C  
HETATM   23  C   UNL     1     -12.732  13.933  70.910  1.00  0.00    -0.410 C  
HETATM   24  C   UNL     1     -14.031  13.651  70.123  1.00  0.00     2.721 C  
HETATM   25  C   UNL     1     -12.967  13.523  72.387  1.00  0.00    -0.399 C  
ENDBRANCH  13  14
ENDBRANCH   9  12
ENDBRANCH   4   6
ENDBRANCH   3   4
ENDBRANCH   2   3
TORSDOF 5
ENDMDL
MODEL      137
REMARK 921   NORMALIZED FREE ENERGY PREDICTED BY IDOCK:   12.09 KCAL/MOL
REMARK 922        TOTAL FREE ENERGY PREDICTED BY IDOCK:   15.30 KCAL/MOL
REMARK 923 INTER-LIGAND FREE ENERGY PREDICTED BY IDOCK:   15.46 KCAL/MOL
REMARK 924 INTRA-LIGAND FREE ENERGY PREDICTED BY IDOCK:   -0.15 KCAL/MOL
REMARK 927      BINDING AFFINITY PREDICTED BY RF-SCORE:    0.00 PKD
ROOT
HETATM    1  C   UNL     1     -11.749   4.058  66.301  1.00  0.00     5.548 C  
HETATM    2  C   UNL     1     -11.141   3.872  64.922  1.00  0.00     0.367 C  
ENDROOT
BRANCH   2   3
HETATM    3  O   UNL     1     -10.389   5.055  64.611  1.00  0.00     0.423 OA 
BRANCH   3   4
HETATM    4  C   UNL     1      -9.639   5.546  65.627  1.00  0.00     0.053 C  
HETATM    5  O   UNL     1      -8.843   4.920  66.308  1.00  0.00    -0.114 OA 
BRANCH   4   6
HETATM    6  C   UNL     1      -9.790   7.015  65.713  1.00  0.00     0.644 A  
HETATM    7  C   UNL     1     -10.979   7.635  66.081  1.00  0.00     2.114 A  
HETATM    8  N   UNL     1     -11.178   8.978  66.040  1.00  0.00     2.124 NA 
HETATM    9  C   UNL     1     -10.142   9.733  65.612  1.00  0.00    -0.212 A  
HETATM   10  C   UNL     1      -8.905   9.211  65.257  1.00  0.00    -0.240 A  
HETATM   11  C   UNL     1      -8.729   7.830  65.309  1.00  0.00    -0.004 A  
BRANCH   9  12
HETATM   12  C   UNL     1     -10.409  11.130  65.491  1.00  0.00    -0.326 C  
HETATM   13  C   UNL     1     -10.644  12.303  65.349  1.00  0.00    -0.309 C  
BRANCH  13  14
HETATM   14  C   UNL     1     -10.900  13.698  65.158  1.00  0.00    -0.338 A  
HETATM   15  C   UNL     1     -10.087  14.660  65.767  1.00  0.00    -0.364 A  
HETATM   16  C   UNL     1     -10.270  16.050  65.551  1.00  0.00    -0.389 A  
HETATM   17  C   UNL     1     -11.344  16.446  64.731  1.00  0.00    -0.150 A  
HETATM   18  S   UNL     1     -11.766  18.133  64.319  1.00  0.00     7.171 SA 
HETATM   19  C   UNL     1     -12.170  15.471  64.140  1.00  0.00    -0.019 A  
HETATM   20  C   UNL     1     -10.760  19.052  65.500  1.00  0.00    -0.039 C  
HETATM   21  C   UNL     1     -11.950  14.109  64.347  1.00  0.00    -0.478 A  
HETATM   22  C   UNL     1      -9.367  18.459  65.589  1.00  0.00     0.673 C  
HETATM   23  C   UNL     1      -9.320  17.049  66.228  1.00  0.00    -0.276 C  
HETATM   24  C   UNL     1      -9.681  17.142  67.728  1.00  0.00    -0.271 C  
HETATM   25  C   UNL     1      -7.844  16.589  66.117  1.00  0.00    -0.134 C  
ENDBRANCH  13  14
ENDBRANCH   9  12
ENDBRANCH   4   6
ENDBRANCH   3   4
ENDBRANCH   2   3
TORSDOF 5
ENDMDL
MODEL      138
REMARK 921   NORMALIZED FREE ENERGY PREDICTED BY IDOCK:   12.76 KCAL/MOL
REMARK 922        TOTAL FREE ENERGY PREDICTED BY IDOCK:   16.16 KCAL/MOL
REMARK 923 INTER-LIGAND FREE ENERGY PREDICTED BY IDOCK:   16.31 KCAL/MOL
REMARK 924 INTRA-LIGAND FREE ENERGY PREDICTED BY IDOCK:   -0.14 KCAL/MOL
REMARK 927      BINDING AFFINITY PREDICTED BY RF-SCORE:    0.00 PKD
ROOT
HETATM    1  C   UNL     1     -12.389   9.173  67.844  1.00  0.00     5.780 C  
HETATM    2  C   UNL     1     -12.723   8.528  69.178  1.00  0.00     4.492 C  
ENDROOT
BRANCH   2   3
HETATM    3  O   UNL     1     -11.509   8.444  69.940  1.00  0.00    -0.026 OA 
BRANCH   3   4
HETATM    4  C   UNL     1     -11.378   9.369  70.921  1.00  0.00    -0.319 C  
HETATM    5  O   UNL     1     -11.340   9.151  72.121  1.00  0.00    -0.330 OA 
BRANCH   4   6
HETATM    6  C   UNL     1     -11.119  10.703  70.338  1.00  0.00    -0.253 A  
HETATM    7  C   UNL     1      -9.947  11.018  69.657  1.00  0.00     0.246 A  
HETATM    8  N   UNL     1      -9.633  12.268  69.229  1.00  0.00     0.540 NA 
HETATM    9  C   UNL     1     -10.529  13.244  69.493  1.00  0.00     0.472 A  
HETATM   10  C   UNL     1     -11.741  13.023  70.134  1.00  0.00    -0.244 A  
HETATM   11  C   UNL     1     -12.038  11.731  70.561  1.00  0.00    -0.439 A  
BRANCH   9  12
HETATM   12  C   UNL     1     -10.131  14.562  69.114  1.00  0.00    -0.145 C  
HETATM   13  C   UNL     1      -9.781  15.659  68.759  1.00  0.00    -0.212 C  
BRANCH  13  14
HETATM   14  C   UNL     1      -9.335  16.951  68.335  1.00  0.00    -0.255 A  
HETATM   15  C   UNL     1      -8.493  17.083  67.225  1.00  0.00    -0.210 A  
HETATM   16  C   UNL     1      -8.082  18.350  66.736  1.00  0.00    -0.266 A  
HETATM   17  C   UNL     1      -8.512  19.491  67.440  1.00  0.00    -0.300 A  
HETATM   18  S   UNL     1      -8.122  21.181  67.012  1.00  0.00     0.576 SA 
HETATM   19  C   UNL     1      -9.341  19.346  68.568  1.00  0.00    -0.446 A  
HETATM   20  C   UNL     1      -6.809  20.948  65.797  1.00  0.00    -0.008 C  
HETATM   21  C   UNL     1      -9.753  18.089  69.011  1.00  0.00    -0.208 A  
HETATM   22  C   UNL     1      -7.161  19.826  64.840  1.00  0.00     0.356 C  
HETATM   23  C   UNL     1      -7.182  18.422  65.494  1.00  0.00    -0.031 C  
HETATM   24  C   UNL     1      -5.748  18.009  65.893  1.00  0.00    -0.241 C  
HETATM   25  C   UNL     1      -7.670  17.452  64.386  1.00  0.00     7.778 C  
ENDBRANCH  13  14
ENDBRANCH   9  12
ENDBRANCH   4   6
ENDBRANCH   3   4
ENDBRANCH   2   3
TORSDOF 5
ENDMDL
MODEL      139
REMARK 921   NORMALIZED FREE ENERGY PREDICTED BY IDOCK:   12.83 KCAL/MOL
REMARK 922        TOTAL FREE ENERGY PREDICTED BY IDOCK:   16.25 KCAL/MOL
REMARK 923 INTER-LIGAND FREE ENERGY PREDICTED BY IDOCK:    6.83 KCAL/MOL
REMARK 924 INTRA-LIGAND FREE ENERGY PREDICTED BY IDOCK:    9.42 KCAL/MOL
REMARK 927      BINDING AFFINITY PREDICTED BY RF-SCORE:    0.00 PKD
ROOT
HETATM    1  C   UNL     1      -8.502  15.769  70.418  1.00  0.00     1.479 C  
HETATM    2  C   UNL     1      -8.622  17.212  69.959  1.00  0.00     1.972 C  
ENDROOT
BRANCH   2   3
HETATM    3  O   UNL     1      -7.294  17.738  69.812  1.00  0.00     0.272 OA 
BRANCH   3   4
HETATM    4  C   UNL     1      -6.366  16.850  69.380  1.00  0.00    -0.231 C  
HETATM    5  O   UNL     1      -5.294  17.118  68.863  1.00  0.00    -0.141 OA 
BRANCH   4   6
HETATM    6  C   UNL     1      -6.752  15.475  69.764  1.00  0.00    -0.157 A  
HETATM    7  C   UNL     1      -6.136  14.775  70.796  1.00  0.00    -0.070 A  
HETATM    8  N   UNL     1      -6.383  13.470  71.080  1.00  0.00     0.111 NA 
HETATM    9  C   UNL     1      -7.286  12.839  70.298  1.00  0.00     1.803 A  
HETATM   10  C   UNL     1      -7.979  13.460  69.268  1.00  0.00     0.510 A  
HETATM   11  C   UNL     1      -7.706  14.800  69.000  1.00  0.00    -0.145 A  
BRANCH   9  12
HETATM   12  C   UNL     1      -7.457  11.445  70.560  1.00  0.00     2.338 C  
HETATM   13  C   UNL     1      -7.618  10.280  70.817  1.00  0.00     0.870 C  
BRANCH  13  14
HETATM   14  C   UNL     1      -7.792   8.899  71.149  1.00  0.00    -0.172 A  
HETATM   15  C   UNL     1      -9.075   8.363  71.309  1.00  0.00    -0.226 A  
HETATM   16  C   UNL     1      -9.290   6.986  71.574  1.00  0.00    -0.154 A  
HETATM   17  C   UNL     1      -8.155   6.166  71.724  1.00  0.00    -0.110 A  
HETATM   18  S   UNL     1      -8.182   4.411  72.059  1.00  0.00    -0.101 SA 
HETATM   19  C   UNL     1      -6.869   6.719  71.582  1.00  0.00    -0.066 A  
HETATM   20  C   UNL     1      -9.909   4.160  72.516  1.00  0.00    -0.155 C  
HETATM   21  C   UNL     1      -6.686   8.072  71.293  1.00  0.00    -0.043 A  
HETATM   22  C   UNL     1     -10.824   4.920  71.576  1.00  0.00     0.043 C  
HETATM   23  C   UNL     1     -10.727   6.460  71.708  1.00  0.00    -0.273 C  
HETATM   24  C   UNL     1     -11.296   6.906  73.073  1.00  0.00    -0.141 C  
HETATM   25  C   UNL     1     -11.644   7.033  70.596  1.00  0.00    -0.379 C  
ENDBRANCH  13  14
ENDBRANCH   9  12
ENDBRANCH   4   6
ENDBRANCH   3   4
ENDBRANCH   2   3
TORSDOF 5
ENDMDL
MODEL      140
REMARK 921   NORMALIZED FREE ENERGY PREDICTED BY IDOCK:   25.89 KCAL/MOL
REMARK 922        TOTAL FREE ENERGY PREDICTED BY IDOCK:   33.13 KCAL/MOL
REMARK 923 INTER-LIGAND FREE ENERGY PREDICTED BY IDOCK:   33.05 KCAL/MOL
REMARK 924 INTRA-LIGAND FREE ENERGY PREDICTED BY IDOCK:    0.08 KCAL/MOL
REMARK 927      BINDING AFFINITY PREDICTED BY RF-SCORE:    0.00 PKD
ROOT
HETATM    1  C   UNL     1     -10.631   4.716  73.838  1.00  0.00    -0.337 C  
HETATM    2  C   UNL     1     -11.120   3.877  72.670  1.00  0.00     0.208 C  
ENDROOT
BRANCH   2   3
HETATM    3  O   UNL     1     -11.673   4.769  71.691  1.00  0.00     0.981 OA 
BRANCH   3   4
HETATM    4  C   UNL     1     -10.865   5.044  70.639  1.00  0.00     0.184 C  
HETATM    5  O   UNL     1     -10.646   4.316  69.684  1.00  0.00     0.546 OA 
BRANCH   4   6
HETATM    6  C   UNL     1     -10.389   6.443  70.710  1.00  0.00    -0.244 A  
HETATM    7  C   UNL     1     -10.531   7.346  69.662  1.00  0.00    -0.232 A  
HETATM    8  N   UNL     1      -9.987   8.591  69.655  1.00  0.00    -0.188 NA 
HETATM    9  C   UNL     1      -9.271   8.946  70.744  1.00  0.00    -0.223 A  
HETATM   10  C   UNL     1      -9.101   8.130  71.854  1.00  0.00    -0.230 A  
HETATM   11  C   UNL     1      -9.671   6.858  71.834  1.00  0.00    -0.166 A  
BRANCH   9  12
HETATM   12  C   UNL     1      -8.634  10.223  70.670  1.00  0.00     1.173 C  
HETATM   13  C   UNL     1      -8.110  11.307  70.646  1.00  0.00     3.817 C  
BRANCH  13  14
HETATM   14  C   UNL     1      -7.516  12.608  70.623  1.00  0.00     3.954 A  
HETATM   15  C   UNL     1      -7.229  13.280  71.817  1.00  0.00     5.919 A  
HETATM   16  C   UNL     1      -6.583  14.542  71.836  1.00  0.00     1.256 A  
HETATM   17  C   UNL     1      -6.275  15.136  70.597  1.00  0.00     0.060 A  
HETATM   18  S   UNL     1      -5.464  16.714  70.376  1.00  0.00    -0.157 SA 
HETATM   19  C   UNL     1      -6.586  14.462  69.401  1.00  0.00    -0.137 A  
HETATM   20  C   UNL     1      -5.556  17.399  72.042  1.00  0.00     1.157 C  
HETATM   21  C   UNL     1      -7.198  13.208  69.412  1.00  0.00     0.247 A  
HETATM   22  C   UNL     1      -5.219  16.340  73.074  1.00  0.00     2.391 C  
HETATM   23  C   UNL     1      -6.271  15.208  73.185  1.00  0.00     1.609 C  
HETATM   24  C   UNL     1      -7.583  15.769  73.778  1.00  0.00    11.555 C  
HETATM   25  C   UNL     1      -5.684  14.189  74.196  1.00  0.00    -0.088 C  
ENDBRANCH  13  14
ENDBRANCH   9  12
ENDBRANCH   4   6
ENDBRANCH   3   4
ENDBRANCH   2   3
TORSDOF 5
ENDMDL
MODEL      141
REMARK 921   NORMALIZED FREE ENERGY PREDICTED BY IDOCK:   43.10 KCAL/MOL
REMARK 922        TOTAL FREE ENERGY PREDICTED BY IDOCK:   55.37 KCAL/MOL
REMARK 923 INTER-LIGAND FREE ENERGY PREDICTED BY IDOCK:   49.44 KCAL/MOL
REMARK 924 INTRA-LIGAND FREE ENERGY PREDICTED BY IDOCK:    5.94 KCAL/MOL
REMARK 927      BINDING AFFINITY PREDICTED BY RF-SCORE:    0.00 PKD
ROOT
HETATM    1  C   UNL     1      -8.472  11.487  73.113  1.00  0.00    20.968 C  
HETATM    2  C   UNL     1      -8.306  10.121  73.757  1.00  0.00     7.458 C  
ENDROOT
BRANCH   2   3
HETATM    3  O   UNL     1      -6.942   9.712  73.572  1.00  0.00     0.510 OA 
BRANCH   3   4
HETATM    4  C   UNL     1      -6.471   9.828  72.307  1.00  0.00     0.838 C  
HETATM    5  O   UNL     1      -5.857   8.978  71.683  1.00  0.00    -0.054 OA 
BRANCH   4   6
HETATM    6  C   UNL     1      -6.941  11.090  71.697  1.00  0.00     3.847 A  
HETATM    7  C   UNL     1      -8.088  11.173  70.914  1.00  0.00     4.669 A  
HETATM    8  N   UNL     1      -8.466  12.289  70.239  1.00  0.00     3.608 NA 
HETATM    9  C   UNL     1      -7.662  13.369  70.351  1.00  0.00     2.832 A  
HETATM   10  C   UNL     1      -6.516  13.396  71.135  1.00  0.00     1.126 A  
HETATM   11  C   UNL     1      -6.153  12.237  71.818  1.00  0.00     1.934 A  
BRANCH   9  12
HETATM   12  C   UNL     1      -8.033  14.496  69.558  1.00  0.00     0.137 C  
HETATM   13  C   UNL     1      -8.318  15.436  68.861  1.00  0.00    -0.203 C  
BRANCH  13  14
HETATM   14  C   UNL     1      -8.627  16.563  68.034  1.00  0.00    -0.184 A  
HETATM   15  C   UNL     1      -7.617  17.219  67.321  1.00  0.00    -0.204 A  
HETATM   16  C   UNL     1      -7.893  18.299  66.443  1.00  0.00    -0.290 A  
HETATM   17  C   UNL     1      -9.229  18.732  66.343  1.00  0.00    -0.307 A  
HETATM   18  S   UNL     1      -9.810  20.066  65.305  1.00  0.00     0.957 SA 
HETATM   19  C   UNL     1     -10.234  18.080  67.081  1.00  0.00    -0.366 A  
HETATM   20  C   UNL     1      -8.258  20.851  64.827  1.00  0.00     1.770 C  
HETATM   21  C   UNL     1      -9.939  17.002  67.916  1.00  0.00    -0.281 A  
HETATM   22  C   UNL     1      -7.221  19.804  64.467  1.00  0.00     0.976 C  
HETATM   23  C   UNL     1      -6.739  18.953  65.668  1.00  0.00    -0.310 C  
HETATM   24  C   UNL     1      -5.923  19.833  66.641  1.00  0.00    -0.170 C  
HETATM   25  C   UNL     1      -5.785  17.887  65.069  1.00  0.00     0.175 C  
ENDBRANCH  13  14
ENDBRANCH   9  12
ENDBRANCH   4   6
ENDBRANCH   3   4
ENDBRANCH   2   3
TORSDOF 5
ENDMDL
