MODEL        1
REMARK 921   NORMALIZED FREE ENERGY PREDICTED BY IDOCK:   -6.36 KCAL/MOL
REMARK 922        TOTAL FREE ENERGY PREDICTED BY IDOCK:   -7.21 KCAL/MOL
REMARK 923 INTER-LIGAND FREE ENERGY PREDICTED BY IDOCK:   -7.11 KCAL/MOL
REMARK 924 INTRA-LIGAND FREE ENERGY PREDICTED BY IDOCK:   -0.10 KCAL/MOL
REMARK 927      BINDING AFFINITY PREDICTED BY RF-SCORE:    0.00 PKD
ROOT
HETATM    1  C   UNL     1      -9.897  17.124  67.961  1.00  0.00    -0.283 C  
HETATM    2  C   UNL     1     -10.786  18.053  67.128  1.00  0.00    -0.276 C  
HETATM    3  C   UNL     1     -10.307  17.241  65.927  1.00  0.00    -0.278 C  
HETATM    4  N   UNL     1      -9.399  16.547  66.681  1.00  0.00    -0.241 N  
HETATM    5  O   UNL     1     -10.702  17.033  64.802  1.00  0.00    -0.760 OA 
HETATM    6  C   UNL     1      -9.317  15.068  66.577  1.00  0.00    -0.281 C  
HETATM    7  C   UNL     1      -7.919  14.657  67.081  1.00  0.00    -0.154 C  
HETATM    8  C   UNL     1     -10.523  14.487  67.369  1.00  0.00    -0.264 C  
HETATM    9  S   UNL     1     -10.614  15.677  68.763  1.00  0.00    -0.250 S  
HETATM   10  O   UNL     1      -9.704  15.237  69.800  1.00  0.00    -0.240 OA 
HETATM   11  O   UNL     1      -7.536  13.510  67.235  1.00  0.00    -0.149 OA 
HETATM   12  O   UNL     1      -7.080  15.711  67.283  1.00  0.00    -0.195 OA 
HETATM   13  C   UNL     1     -10.398  13.064  67.943  1.00  0.00    -0.233 C  
HETATM   14  O   UNL     1     -12.010  15.936  69.067  1.00  0.00    -0.378 OA 
ENDROOT
BRANCH   8  15
HETATM   15  C   UNL     1     -11.886  14.572  66.618  1.00  0.00    -0.366 C  
BRANCH  15  16
HETATM   16  N   UNL     1     -12.042  13.786  65.415  1.00  0.00    -0.382 NA 
HETATM   17  C   UNL     1     -11.128  13.618  64.418  1.00  0.00    -0.364 A  
HETATM   18  C   UNL     1     -11.729  12.717  63.572  1.00  0.00    -0.531 A  
HETATM   19  N   UNL     1     -12.970  12.405  64.050  1.00  0.00    -0.765 NA 
HETATM   20  N   UNL     1     -13.161  13.086  65.169  1.00  0.00    -0.718 NA 
ENDBRANCH  15  16
ENDBRANCH   8  15
TORSDOF 2
ENDMDL
MODEL        2
REMARK 921   NORMALIZED FREE ENERGY PREDICTED BY IDOCK:   -6.16 KCAL/MOL
REMARK 922        TOTAL FREE ENERGY PREDICTED BY IDOCK:   -6.98 KCAL/MOL
REMARK 923 INTER-LIGAND FREE ENERGY PREDICTED BY IDOCK:   -6.69 KCAL/MOL
REMARK 924 INTRA-LIGAND FREE ENERGY PREDICTED BY IDOCK:   -0.30 KCAL/MOL
REMARK 927      BINDING AFFINITY PREDICTED BY RF-SCORE:    0.00 PKD
ROOT
HETATM    1  C   UNL     1      -8.552  19.454  68.771  1.00  0.00    -0.335 C  
HETATM    2  C   UNL     1      -9.979  19.665  69.285  1.00  0.00    -0.344 C  
HETATM    3  C   UNL     1     -10.360  19.826  67.815  1.00  0.00    -0.437 C  
HETATM    4  N   UNL     1      -9.051  19.802  67.411  1.00  0.00    -0.317 N  
HETATM    5  O   UNL     1     -11.375  19.734  67.163  1.00  0.00    -0.139 OA 
HETATM    6  C   UNL     1      -8.634  18.935  66.281  1.00  0.00    -0.257 C  
HETATM    7  C   UNL     1      -7.315  19.514  65.732  1.00  0.00    -0.279 C  
HETATM    8  C   UNL     1      -8.564  17.479  66.824  1.00  0.00    -0.253 C  
HETATM    9  S   UNL     1      -7.927  17.783  68.518  1.00  0.00    -0.286 S  
HETATM   10  O   UNL     1      -6.482  17.844  68.459  1.00  0.00    -0.197 OA 
HETATM   11  O   UNL     1      -6.627  18.999  64.866  1.00  0.00    -0.481 OA 
HETATM   12  O   UNL     1      -6.992  20.729  66.255  1.00  0.00    -0.223 OA 
HETATM   13  C   UNL     1      -7.628  16.483  66.116  1.00  0.00     0.007 C  
HETATM   14  O   UNL     1      -8.591  16.875  69.437  1.00  0.00    -0.011 OA 
ENDROOT
BRANCH   8  15
HETATM   15  C   UNL     1      -9.951  16.786  66.985  1.00  0.00    -0.269 C  
BRANCH  15  16
HETATM   16  N   UNL     1     -10.604  16.303  65.789  1.00  0.00    -0.343 NA 
HETATM   17  C   UNL     1     -10.942  15.014  65.500  1.00  0.00    -0.358 A  
HETATM   18  C   UNL     1     -11.614  15.112  64.305  1.00  0.00    -0.184 A  
HETATM   19  N   UNL     1     -11.629  16.416  63.900  1.00  0.00    -1.054 NA 
HETATM   20  N   UNL     1     -10.985  17.135  64.807  1.00  0.00    -0.924 NA 
ENDBRANCH  15  16
ENDBRANCH   8  15
TORSDOF 2
ENDMDL
MODEL        3
REMARK 921   NORMALIZED FREE ENERGY PREDICTED BY IDOCK:   -6.12 KCAL/MOL
REMARK 922        TOTAL FREE ENERGY PREDICTED BY IDOCK:   -6.94 KCAL/MOL
REMARK 923 INTER-LIGAND FREE ENERGY PREDICTED BY IDOCK:   -6.78 KCAL/MOL
REMARK 924 INTRA-LIGAND FREE ENERGY PREDICTED BY IDOCK:   -0.16 KCAL/MOL
REMARK 927      BINDING AFFINITY PREDICTED BY RF-SCORE:    0.00 PKD
ROOT
HETATM    1  C   UNL     1      -9.558  14.981  65.596  1.00  0.00    -0.244 C  
HETATM    2  C   UNL     1      -8.935  16.155  66.357  1.00  0.00    -0.353 C  
HETATM    3  C   UNL     1     -10.360  16.467  66.808  1.00  0.00    -0.296 C  
HETATM    4  N   UNL     1     -10.895  15.515  65.980  1.00  0.00    -0.319 N  
HETATM    5  O   UNL     1     -10.873  17.083  67.714  1.00  0.00    -0.340 OA 
HETATM    6  C   UNL     1     -11.898  14.553  66.500  1.00  0.00    -0.352 C  
HETATM    7  C   UNL     1     -12.679  14.014  65.284  1.00  0.00    -0.439 C  
HETATM    8  C   UNL     1     -11.125  13.492  67.334  1.00  0.00    -0.281 C  
HETATM    9  S   UNL     1      -9.588  13.341  66.343  1.00  0.00    -0.222 S  
HETATM   10  O   UNL     1      -9.814  12.369  65.294  1.00  0.00    -0.245 OA 
HETATM   11  O   UNL     1     -13.514  13.126  65.321  1.00  0.00    -0.428 OA 
HETATM   12  O   UNL     1     -12.411  14.678  64.126  1.00  0.00    -0.654 OA 
HETATM   13  C   UNL     1     -11.750  12.094  67.492  1.00  0.00    -0.385 C  
HETATM   14  O   UNL     1      -8.460  13.202  67.248  1.00  0.00    -0.189 OA 
ENDROOT
BRANCH   8  15
HETATM   15  C   UNL     1     -10.697  13.977  68.752  1.00  0.00    -0.259 C  
BRANCH  15  16
HETATM   16  N   UNL     1     -11.737  14.183  69.736  1.00  0.00    -0.293 NA 
HETATM   17  C   UNL     1     -12.176  13.290  70.668  1.00  0.00    -0.338 A  
HETATM   18  C   UNL     1     -13.092  14.006  71.400  1.00  0.00    -0.353 A  
HETATM   19  N   UNL     1     -13.205  15.263  70.880  1.00  0.00    -0.460 NA 
HETATM   20  N   UNL     1     -12.386  15.353  69.844  1.00  0.00    -0.328 NA 
ENDBRANCH  15  16
ENDBRANCH   8  15
TORSDOF 2
ENDMDL
MODEL        4
REMARK 921   NORMALIZED FREE ENERGY PREDICTED BY IDOCK:   -6.02 KCAL/MOL
REMARK 922        TOTAL FREE ENERGY PREDICTED BY IDOCK:   -6.82 KCAL/MOL
REMARK 923 INTER-LIGAND FREE ENERGY PREDICTED BY IDOCK:   -6.84 KCAL/MOL
REMARK 924 INTRA-LIGAND FREE ENERGY PREDICTED BY IDOCK:    0.01 KCAL/MOL
REMARK 927      BINDING AFFINITY PREDICTED BY RF-SCORE:    0.00 PKD
ROOT
HETATM    1  C   UNL     1      -8.902  16.204  68.678  1.00  0.00    -0.218 C  
HETATM    2  C   UNL     1      -9.415  15.390  69.870  1.00  0.00    -0.063 C  
HETATM    3  C   UNL     1     -10.762  16.054  69.593  1.00  0.00    -0.316 C  
HETATM    4  N   UNL     1     -10.225  16.887  68.647  1.00  0.00    -0.281 N  
HETATM    5  O   UNL     1     -11.920  15.816  69.849  1.00  0.00    -0.355 OA 
HETATM    6  C   UNL     1     -10.889  17.045  67.329  1.00  0.00    -0.123 C  
HETATM    7  C   UNL     1     -10.403  18.384  66.737  1.00  0.00    -0.394 C  
HETATM    8  C   UNL     1     -10.559  15.774  66.496  1.00  0.00    -0.306 C  
HETATM    9  S   UNL     1      -8.836  15.453  67.041  1.00  0.00    -0.247 S  
HETATM   10  O   UNL     1      -7.942  16.241  66.217  1.00  0.00    -0.294 OA 
HETATM   11  O   UNL     1     -10.660  18.793  65.618  1.00  0.00    -0.596 OA 
HETATM   12  O   UNL     1      -9.692  19.143  67.616  1.00  0.00    -0.304 OA 
HETATM   13  C   UNL     1     -10.578  15.885  64.961  1.00  0.00    -0.372 C  
HETATM   14  O   UNL     1      -8.647  14.020  67.174  1.00  0.00    -0.205 OA 
ENDROOT
BRANCH   8  15
HETATM   15  C   UNL     1     -11.392  14.516  66.885  1.00  0.00    -0.348 C  
BRANCH  15  16
HETATM   16  N   UNL     1     -11.826  13.640  65.820  1.00  0.00    -0.353 NA 
HETATM   17  C   UNL     1     -11.063  12.749  65.124  1.00  0.00    -0.291 A  
HETATM   18  C   UNL     1     -11.967  12.114  64.306  1.00  0.00    -0.380 A  
HETATM   19  N   UNL     1     -13.208  12.651  64.499  1.00  0.00    -0.714 NA 
HETATM   20  N   UNL     1     -13.105  13.603  65.412  1.00  0.00    -0.678 NA 
ENDBRANCH  15  16
ENDBRANCH   8  15
TORSDOF 2
ENDMDL
MODEL        5
REMARK 921   NORMALIZED FREE ENERGY PREDICTED BY IDOCK:   -5.97 KCAL/MOL
REMARK 922        TOTAL FREE ENERGY PREDICTED BY IDOCK:   -6.77 KCAL/MOL
REMARK 923 INTER-LIGAND FREE ENERGY PREDICTED BY IDOCK:   -6.74 KCAL/MOL
REMARK 924 INTRA-LIGAND FREE ENERGY PREDICTED BY IDOCK:   -0.03 KCAL/MOL
REMARK 927      BINDING AFFINITY PREDICTED BY RF-SCORE:    0.00 PKD
ROOT
HETATM    1  C   UNL     1     -12.652  13.779  65.325  1.00  0.00    -0.473 C  
HETATM    2  C   UNL     1     -12.874  12.485  64.536  1.00  0.00    -0.352 C  
HETATM    3  C   UNL     1     -11.585  12.849  63.803  1.00  0.00    -0.475 C  
HETATM    4  N   UNL     1     -11.516  14.075  64.409  1.00  0.00    -0.367 N  
HETATM    5  O   UNL     1     -10.752  12.255  63.157  1.00  0.00    -0.371 OA 
HETATM    6  C   UNL     1     -10.242  14.537  65.017  1.00  0.00    -0.365 C  
HETATM    7  C   UNL     1     -10.316  16.075  65.107  1.00  0.00    -0.215 C  
HETATM    8  C   UNL     1     -10.082  13.784  66.368  1.00  0.00    -0.295 C  
HETATM    9  S   UNL     1     -11.829  13.723  66.928  1.00  0.00    -0.424 S  
HETATM   10  O   UNL     1     -12.127  14.952  67.633  1.00  0.00    -0.253 OA 
HETATM   11  O   UNL     1      -9.490  16.788  65.649  1.00  0.00    -0.523 OA 
HETATM   12  O   UNL     1     -11.382  16.609  64.449  1.00  0.00    -1.023 OA 
HETATM   13  C   UNL     1      -9.234  14.442  67.472  1.00  0.00    -0.200 C  
HETATM   14  O   UNL     1     -12.075  12.435  67.552  1.00  0.00    -0.491 OA 
ENDROOT
BRANCH   8  15
HETATM   15  C   UNL     1      -9.605  12.307  66.228  1.00  0.00    -0.242 C  
BRANCH  15  16
HETATM   16  N   UNL     1      -8.701  11.794  67.233  1.00  0.00    -0.157 NA 
HETATM   17  C   UNL     1      -9.032  11.264  68.445  1.00  0.00    -0.167 A  
HETATM   18  C   UNL     1      -7.828  10.848  68.960  1.00  0.00    -0.138 A  
HETATM   19  N   UNL     1      -6.828  11.164  68.085  1.00  0.00    -0.066 NA 
HETATM   20  N   UNL     1      -7.373  11.766  67.040  1.00  0.00    -0.144 NA 
ENDBRANCH  15  16
ENDBRANCH   8  15
TORSDOF 2
ENDMDL
MODEL        6
REMARK 921   NORMALIZED FREE ENERGY PREDICTED BY IDOCK:   -5.84 KCAL/MOL
REMARK 922        TOTAL FREE ENERGY PREDICTED BY IDOCK:   -6.63 KCAL/MOL
REMARK 923 INTER-LIGAND FREE ENERGY PREDICTED BY IDOCK:   -6.37 KCAL/MOL
REMARK 924 INTRA-LIGAND FREE ENERGY PREDICTED BY IDOCK:   -0.25 KCAL/MOL
REMARK 927      BINDING AFFINITY PREDICTED BY RF-SCORE:    0.00 PKD
ROOT
HETATM    1  C   UNL     1     -11.207  14.774  67.371  1.00  0.00    -0.339 C  
HETATM    2  C   UNL     1     -11.034  14.518  68.871  1.00  0.00    -0.268 C  
HETATM    3  C   UNL     1     -11.832  13.239  68.626  1.00  0.00    -0.345 C  
HETATM    4  N   UNL     1     -12.108  13.588  67.331  1.00  0.00    -0.353 N  
HETATM    5  O   UNL     1     -11.974  12.179  69.191  1.00  0.00    -0.299 OA 
HETATM    6  C   UNL     1     -11.909  12.607  66.235  1.00  0.00    -0.410 C  
HETATM    7  C   UNL     1     -12.784  13.068  65.051  1.00  0.00    -0.410 C  
HETATM    8  C   UNL     1     -10.380  12.533  65.960  1.00  0.00    -0.256 C  
HETATM    9  S   UNL     1      -9.907  14.287  66.221  1.00  0.00    -0.312 S  
HETATM   10  O   UNL     1     -10.107  15.004  64.979  1.00  0.00    -0.348 OA 
HETATM   11  O   UNL     1     -12.794  12.560  63.943  1.00  0.00    -0.714 OA 
HETATM   12  O   UNL     1     -13.635  14.084  65.366  1.00  0.00    -0.593 OA 
HETATM   13  C   UNL     1      -9.913  12.099  64.559  1.00  0.00    -0.231 C  
HETATM   14  O   UNL     1      -8.623  14.328  66.899  1.00  0.00    -0.209 OA 
ENDROOT
BRANCH   8  15
HETATM   15  C   UNL     1      -9.581  11.694  67.002  1.00  0.00    -0.184 C  
BRANCH  15  16
HETATM   16  N   UNL     1      -9.678  10.253  66.924  1.00  0.00    -0.179 NA 
HETATM   17  C   UNL     1      -8.795   9.400  66.329  1.00  0.00    -0.147 A  
HETATM   18  C   UNL     1      -9.300   8.155  66.618  1.00  0.00    -0.197 A  
HETATM   19  N   UNL     1     -10.460   8.289  67.326  1.00  0.00    -0.299 NA 
HETATM   20  N   UNL     1     -10.695   9.582  67.487  1.00  0.00    -0.281 NA 
ENDBRANCH  15  16
ENDBRANCH   8  15
TORSDOF 2
ENDMDL
MODEL        7
REMARK 921   NORMALIZED FREE ENERGY PREDICTED BY IDOCK:   -5.83 KCAL/MOL
REMARK 922        TOTAL FREE ENERGY PREDICTED BY IDOCK:   -6.61 KCAL/MOL
REMARK 923 INTER-LIGAND FREE ENERGY PREDICTED BY IDOCK:   -6.31 KCAL/MOL
REMARK 924 INTRA-LIGAND FREE ENERGY PREDICTED BY IDOCK:   -0.31 KCAL/MOL
REMARK 927      BINDING AFFINITY PREDICTED BY RF-SCORE:    0.00 PKD
ROOT
HETATM    1  C   UNL     1      -8.928  19.840  66.891  1.00  0.00    -0.339 C  
HETATM    2  C   UNL     1     -10.276  20.303  66.329  1.00  0.00    -0.447 C  
HETATM    3  C   UNL     1     -10.289  18.971  65.583  1.00  0.00    -0.098 C  
HETATM    4  N   UNL     1      -9.011  18.671  65.972  1.00  0.00    -0.098 N  
HETATM    5  O   UNL     1     -11.130  18.266  65.073  1.00  0.00    -0.614 OA 
HETATM    6  C   UNL     1      -8.694  17.332  66.528  1.00  0.00    -0.262 C  
HETATM    7  C   UNL     1      -7.177  17.117  66.351  1.00  0.00    -0.290 C  
HETATM    8  C   UNL     1      -9.216  17.311  67.993  1.00  0.00    -0.256 C  
HETATM    9  S   UNL     1      -8.856  19.037  68.503  1.00  0.00    -0.362 S  
HETATM   10  O   UNL     1      -7.490  19.097  68.979  1.00  0.00    -0.345 OA 
HETATM   11  O   UNL     1      -6.545  16.170  66.787  1.00  0.00    -0.269 OA 
HETATM   12  O   UNL     1      -6.578  18.066  65.580  1.00  0.00    -0.264 OA 
HETATM   13  C   UNL     1      -8.545  16.351  68.991  1.00  0.00    -0.230 C  
HETATM   14  O   UNL     1      -9.948  19.517  69.331  1.00  0.00    -0.384 OA 
ENDROOT
BRANCH   8  15
HETATM   15  C   UNL     1     -10.758  17.119  68.122  1.00  0.00    -0.366 C  
BRANCH  15  16
HETATM   16  N   UNL     1     -11.284  15.780  67.979  1.00  0.00    -0.349 NA 
HETATM   17  C   UNL     1     -11.415  15.066  66.825  1.00  0.00    -0.251 A  
HETATM   18  C   UNL     1     -11.868  13.840  67.248  1.00  0.00    -0.401 A  
HETATM   19  N   UNL     1     -12.029  13.860  68.604  1.00  0.00    -0.367 NA 
HETATM   20  N   UNL     1     -11.691  15.064  69.039  1.00  0.00    -0.315 NA 
ENDBRANCH  15  16
ENDBRANCH   8  15
TORSDOF 2
ENDMDL
MODEL        8
REMARK 921   NORMALIZED FREE ENERGY PREDICTED BY IDOCK:   -5.81 KCAL/MOL
REMARK 922        TOTAL FREE ENERGY PREDICTED BY IDOCK:   -6.59 KCAL/MOL
REMARK 923 INTER-LIGAND FREE ENERGY PREDICTED BY IDOCK:   -6.59 KCAL/MOL
REMARK 924 INTRA-LIGAND FREE ENERGY PREDICTED BY IDOCK:   -0.01 KCAL/MOL
REMARK 927      BINDING AFFINITY PREDICTED BY RF-SCORE:    0.00 PKD
ROOT
HETATM    1  C   UNL     1     -10.595  12.823  67.045  1.00  0.00    -0.240 C  
HETATM    2  C   UNL     1     -11.014  12.611  65.588  1.00  0.00    -0.313 C  
HETATM    3  C   UNL     1     -12.224  13.476  65.932  1.00  0.00    -0.460 C  
HETATM    4  N   UNL     1     -11.904  13.500  67.263  1.00  0.00    -0.376 N  
HETATM    5  O   UNL     1     -13.023  14.142  65.314  1.00  0.00    -0.725 OA 
HETATM    6  C   UNL     1     -11.901  14.784  68.008  1.00  0.00    -0.294 C  
HETATM    7  C   UNL     1     -12.052  14.439  69.503  1.00  0.00    -0.322 C  
HETATM    8  C   UNL     1     -10.600  15.538  67.613  1.00  0.00    -0.291 C  
HETATM    9  S   UNL     1      -9.429  14.133  67.463  1.00  0.00    -0.216 S  
HETATM   10  O   UNL     1      -8.883  13.853  68.774  1.00  0.00    -0.117 OA 
HETATM   11  O   UNL     1     -11.986  15.239  70.420  1.00  0.00    -0.285 OA 
HETATM   12  O   UNL     1     -12.346  13.129  69.734  1.00  0.00    -0.222 OA 
HETATM   13  C   UNL     1     -10.021  16.560  68.608  1.00  0.00    -0.248 C  
HETATM   14  O   UNL     1      -8.550  14.376  66.333  1.00  0.00    -0.028 OA 
ENDROOT
BRANCH   8  15
HETATM   15  C   UNL     1     -10.656  16.225  66.214  1.00  0.00    -0.255 C  
BRANCH  15  16
HETATM   16  N   UNL     1     -10.012  17.512  66.071  1.00  0.00    -0.516 NA 
HETATM   17  C   UNL     1     -10.607  18.738  66.108  1.00  0.00    -0.377 A  
HETATM   18  C   UNL     1      -9.553  19.615  66.018  1.00  0.00    -0.318 A  
HETATM   19  N   UNL     1      -8.388  18.913  65.895  1.00  0.00    -0.463 NA 
HETATM   20  N   UNL     1      -8.685  17.623  65.904  1.00  0.00    -0.520 NA 
ENDBRANCH  15  16
ENDBRANCH   8  15
TORSDOF 2
ENDMDL
MODEL        9
REMARK 921   NORMALIZED FREE ENERGY PREDICTED BY IDOCK:   -5.77 KCAL/MOL
REMARK 922        TOTAL FREE ENERGY PREDICTED BY IDOCK:   -6.54 KCAL/MOL
REMARK 923 INTER-LIGAND FREE ENERGY PREDICTED BY IDOCK:   -6.45 KCAL/MOL
REMARK 924 INTRA-LIGAND FREE ENERGY PREDICTED BY IDOCK:   -0.10 KCAL/MOL
REMARK 927      BINDING AFFINITY PREDICTED BY RF-SCORE:    0.00 PKD
ROOT
HETATM    1  C   UNL     1      -8.892  15.874  67.090  1.00  0.00    -0.207 C  
HETATM    2  C   UNL     1      -8.662  17.348  67.432  1.00  0.00    -0.227 C  
HETATM    3  C   UNL     1     -10.173  17.501  67.269  1.00  0.00    -0.335 C  
HETATM    4  N   UNL     1     -10.312  16.221  66.803  1.00  0.00    -0.292 N  
HETATM    5  O   UNL     1     -11.014  18.288  67.638  1.00  0.00    -0.333 OA 
HETATM    6  C   UNL     1     -11.365  15.334  67.359  1.00  0.00    -0.284 C  
HETATM    7  C   UNL     1     -11.626  14.232  66.312  1.00  0.00    -0.372 C  
HETATM    8  C   UNL     1     -10.864  14.846  68.748  1.00  0.00    -0.252 C  
HETATM    9  S   UNL     1      -9.069  14.662  68.412  1.00  0.00    -0.195 S  
HETATM   10  O   UNL     1      -8.841  13.345  67.854  1.00  0.00    -0.174 OA 
HETATM   11  O   UNL     1     -12.355  13.268  66.472  1.00  0.00    -0.358 OA 
HETATM   12  O   UNL     1     -11.013  14.458  65.118  1.00  0.00    -0.331 OA 
HETATM   13  C   UNL     1     -11.404  13.510  69.288  1.00  0.00    -0.317 C  
HETATM   14  O   UNL     1      -8.327  15.108  69.578  1.00  0.00    -0.223 OA 
ENDROOT
BRANCH   8  15
HETATM   15  C   UNL     1     -11.000  15.901  69.887  1.00  0.00    -0.343 C  
BRANCH  15  16
HETATM   16  N   UNL     1     -11.963  15.642  70.933  1.00  0.00    -0.362 NA 
HETATM   17  C   UNL     1     -11.702  15.300  72.227  1.00  0.00    -0.444 A  
HETATM   18  C   UNL     1     -12.944  15.265  72.813  1.00  0.00    -0.438 A  
HETATM   19  N   UNL     1     -13.896  15.542  71.874  1.00  0.00    -0.493 NA 
HETATM   20  N   UNL     1     -13.284  15.748  70.719  1.00  0.00    -0.468 NA 
ENDBRANCH  15  16
ENDBRANCH   8  15
TORSDOF 2
ENDMDL
MODEL       10
REMARK 921   NORMALIZED FREE ENERGY PREDICTED BY IDOCK:   -5.71 KCAL/MOL
REMARK 922        TOTAL FREE ENERGY PREDICTED BY IDOCK:   -6.48 KCAL/MOL
REMARK 923 INTER-LIGAND FREE ENERGY PREDICTED BY IDOCK:   -6.23 KCAL/MOL
REMARK 924 INTRA-LIGAND FREE ENERGY PREDICTED BY IDOCK:   -0.25 KCAL/MOL
REMARK 927      BINDING AFFINITY PREDICTED BY RF-SCORE:    0.00 PKD
ROOT
HETATM    1  C   UNL     1     -11.187  14.785  67.407  1.00  0.00    -0.339 C  
HETATM    2  C   UNL     1     -10.980  14.499  68.898  1.00  0.00    -0.268 C  
HETATM    3  C   UNL     1     -11.761  13.213  68.640  1.00  0.00    -0.326 C  
HETATM    4  N   UNL     1     -12.069  13.585  67.358  1.00  0.00    -0.353 N  
HETATM    5  O   UNL     1     -11.874  12.138  69.183  1.00  0.00    -0.300 OA 
HETATM    6  C   UNL     1     -11.875  12.632  66.237  1.00  0.00    -0.410 C  
HETATM    7  C   UNL     1     -12.782  13.104  65.082  1.00  0.00    -0.405 C  
HETATM    8  C   UNL     1     -10.351  12.590  65.931  1.00  0.00    -0.263 C  
HETATM    9  S   UNL     1      -9.902  14.346  66.222  1.00  0.00    -0.313 S  
HETATM   10  O   UNL     1     -10.139  15.087  65.001  1.00  0.00    -0.348 OA 
HETATM   11  O   UNL     1     -12.805  12.621  63.963  1.00  0.00    -0.700 OA 
HETATM   12  O   UNL     1     -13.643  14.098  65.435  1.00  0.00    -0.568 OA 
HETATM   13  C   UNL     1      -9.905  12.195  64.512  1.00  0.00    -0.151 C  
HETATM   14  O   UNL     1      -8.606  14.394  66.875  1.00  0.00    -0.215 OA 
ENDROOT
BRANCH   8  15
HETATM   15  C   UNL     1      -9.517  11.742  66.938  1.00  0.00    -0.193 C  
BRANCH  15  16
HETATM   16  N   UNL     1      -9.624  10.303  66.856  1.00  0.00    -0.168 NA 
HETATM   17  C   UNL     1     -10.605   9.519  67.387  1.00  0.00    -0.271 A  
HETATM   18  C   UNL     1     -10.290   8.256  66.946  1.00  0.00    -0.320 A  
HETATM   19  N   UNL     1      -9.139   8.307  66.213  1.00  0.00    -0.177 NA 
HETATM   20  N   UNL     1      -8.726   9.564  66.185  1.00  0.00    -0.141 NA 
ENDBRANCH  15  16
ENDBRANCH   8  15
TORSDOF 2
ENDMDL
MODEL       11
REMARK 921   NORMALIZED FREE ENERGY PREDICTED BY IDOCK:   -5.66 KCAL/MOL
REMARK 922        TOTAL FREE ENERGY PREDICTED BY IDOCK:   -6.43 KCAL/MOL
REMARK 923 INTER-LIGAND FREE ENERGY PREDICTED BY IDOCK:   -6.13 KCAL/MOL
REMARK 924 INTRA-LIGAND FREE ENERGY PREDICTED BY IDOCK:   -0.29 KCAL/MOL
REMARK 927      BINDING AFFINITY PREDICTED BY RF-SCORE:    0.00 PKD
ROOT
HETATM    1  C   UNL     1      -9.792  14.267  67.800  1.00  0.00    -0.223 C  
HETATM    2  C   UNL     1      -8.440  13.854  68.390  1.00  0.00    -0.159 C  
HETATM    3  C   UNL     1      -7.828  14.615  67.217  1.00  0.00    -0.186 C  
HETATM    4  N   UNL     1      -9.049  14.818  66.632  1.00  0.00    -0.268 N  
HETATM    5  O   UNL     1      -6.756  15.120  66.970  1.00  0.00    -0.235 OA 
HETATM    6  C   UNL     1      -9.430  16.168  66.147  1.00  0.00    -0.327 C  
HETATM    7  C   UNL     1     -10.545  15.973  65.099  1.00  0.00    -0.370 C  
HETATM    8  C   UNL     1      -9.813  17.011  67.396  1.00  0.00    -0.262 C  
HETATM    9  S   UNL     1     -10.634  15.733  68.426  1.00  0.00    -0.275 S  
HETATM   10  O   UNL     1     -12.026  15.657  68.035  1.00  0.00    -0.157 OA 
HETATM   11  O   UNL     1     -11.172  16.871  64.563  1.00  0.00    -1.057 OA 
HETATM   12  O   UNL     1     -10.741  14.673  64.746  1.00  0.00    -0.412 OA 
HETATM   13  C   UNL     1     -10.783  18.191  67.208  1.00  0.00    -0.336 C  
HETATM   14  O   UNL     1     -10.267  15.944  69.815  1.00  0.00    -0.268 OA 
ENDROOT
BRANCH   8  15
HETATM   15  C   UNL     1      -8.595  17.532  68.217  1.00  0.00    -0.266 C  
BRANCH  15  16
HETATM   16  N   UNL     1      -7.893  18.693  67.718  1.00  0.00    -0.242 NA 
HETATM   17  C   UNL     1      -7.265  18.821  66.514  1.00  0.00    -0.230 A  
HETATM   18  C   UNL     1      -6.851  20.131  66.499  1.00  0.00    -0.226 A  
HETATM   19  N   UNL     1      -7.197  20.730  67.676  1.00  0.00    -0.310 NA 
HETATM   20  N   UNL     1      -7.815  19.831  68.427  1.00  0.00    -0.320 NA 
ENDBRANCH  15  16
ENDBRANCH   8  15
TORSDOF 2
ENDMDL
MODEL       12
REMARK 921   NORMALIZED FREE ENERGY PREDICTED BY IDOCK:   -5.63 KCAL/MOL
REMARK 922        TOTAL FREE ENERGY PREDICTED BY IDOCK:   -6.39 KCAL/MOL
REMARK 923 INTER-LIGAND FREE ENERGY PREDICTED BY IDOCK:   -6.47 KCAL/MOL
REMARK 924 INTRA-LIGAND FREE ENERGY PREDICTED BY IDOCK:    0.08 KCAL/MOL
REMARK 927      BINDING AFFINITY PREDICTED BY RF-SCORE:    0.00 PKD
ROOT
HETATM    1  C   UNL     1      -9.676  14.779  66.670  1.00  0.00    -0.267 C  
HETATM    2  C   UNL     1      -9.500  15.791  67.806  1.00  0.00    -0.212 C  
HETATM    3  C   UNL     1     -11.025  15.785  67.890  1.00  0.00    -0.324 C  
HETATM    4  N   UNL     1     -11.144  15.014  66.764  1.00  0.00    -0.328 N  
HETATM    5  O   UNL     1     -11.853  16.073  68.724  1.00  0.00    -0.375 OA 
HETATM    6  C   UNL     1     -12.034  13.825  66.764  1.00  0.00    -0.426 C  
HETATM    7  C   UNL     1     -12.375  13.518  65.292  1.00  0.00    -0.467 C  
HETATM    8  C   UNL     1     -11.292  12.699  67.539  1.00  0.00    -0.308 C  
HETATM    9  S   UNL     1      -9.562  13.014  67.015  1.00  0.00    -0.243 S  
HETATM   10  O   UNL     1      -9.331  12.322  65.764  1.00  0.00    -0.172 OA 
HETATM   11  O   UNL     1     -13.001  12.547  64.903  1.00  0.00    -0.821 OA 
HETATM   12  O   UNL     1     -11.970  14.486  64.424  1.00  0.00    -0.456 OA 
HETATM   13  C   UNL     1     -11.648  11.237  67.215  1.00  0.00    -0.171 C  
HETATM   14  O   UNL     1      -8.683  12.800  68.150  1.00  0.00    -0.183 OA 
ENDROOT
BRANCH   8  15
HETATM   15  C   UNL     1     -11.325  12.858  69.089  1.00  0.00    -0.273 C  
BRANCH  15  16
HETATM   16  N   UNL     1     -11.545  11.669  69.883  1.00  0.00    -0.302 NA 
HETATM   17  C   UNL     1     -10.686  10.624  70.054  1.00  0.00    -0.155 A  
HETATM   18  C   UNL     1     -11.330   9.817  70.961  1.00  0.00    -0.387 A  
HETATM   19  N   UNL     1     -12.542  10.365  71.274  1.00  0.00    -0.381 NA 
HETATM   20  N   UNL     1     -12.673  11.489  70.588  1.00  0.00    -0.222 NA 
ENDBRANCH  15  16
ENDBRANCH   8  15
TORSDOF 2
ENDMDL
MODEL       13
REMARK 921   NORMALIZED FREE ENERGY PREDICTED BY IDOCK:   -5.55 KCAL/MOL
REMARK 922        TOTAL FREE ENERGY PREDICTED BY IDOCK:   -6.31 KCAL/MOL
REMARK 923 INTER-LIGAND FREE ENERGY PREDICTED BY IDOCK:   -6.26 KCAL/MOL
REMARK 924 INTRA-LIGAND FREE ENERGY PREDICTED BY IDOCK:   -0.05 KCAL/MOL
REMARK 927      BINDING AFFINITY PREDICTED BY RF-SCORE:    0.00 PKD
ROOT
HETATM    1  C   UNL     1     -11.535  12.160  67.426  1.00  0.00    -0.345 C  
HETATM    2  C   UNL     1     -10.863  12.088  68.800  1.00  0.00    -0.267 C  
HETATM    3  C   UNL     1      -9.548  12.040  68.026  1.00  0.00    -0.199 C  
HETATM    4  N   UNL     1     -10.192  11.934  66.821  1.00  0.00    -0.204 N  
HETATM    5  O   UNL     1      -8.386  12.276  68.266  1.00  0.00    -0.167 OA 
HETATM    6  C   UNL     1      -9.794  12.800  65.683  1.00  0.00    -0.179 C  
HETATM    7  C   UNL     1     -10.275  12.102  64.395  1.00  0.00    -0.306 C  
HETATM    8  C   UNL     1     -10.388  14.212  65.953  1.00  0.00    -0.316 C  
HETATM    9  S   UNL     1     -11.988  13.760  66.730  1.00  0.00    -0.424 S  
HETATM   10  O   UNL     1     -12.960  13.539  65.680  1.00  0.00    -0.496 OA 
HETATM   11  O   UNL     1     -10.214  12.575  63.273  1.00  0.00    -0.370 OA 
HETATM   12  O   UNL     1     -10.731  10.835  64.599  1.00  0.00    -0.284 OA 
HETATM   13  C   UNL     1     -10.666  15.127  64.748  1.00  0.00    -0.344 C  
HETATM   14  O   UNL     1     -12.265  14.694  67.808  1.00  0.00    -0.254 OA 
ENDROOT
BRANCH   8  15
HETATM   15  C   UNL     1      -9.600  15.049  67.006  1.00  0.00    -0.225 C  
BRANCH  15  16
HETATM   16  N   UNL     1      -9.399  16.455  66.734  1.00  0.00    -0.233 NA 
HETATM   17  C   UNL     1     -10.172  17.495  67.158  1.00  0.00    -0.323 A  
HETATM   18  C   UNL     1      -9.499  18.606  66.711  1.00  0.00    -0.316 A  
HETATM   19  N   UNL     1      -8.390  18.215  66.016  1.00  0.00    -0.514 NA 
HETATM   20  N   UNL     1      -8.352  16.892  66.016  1.00  0.00    -0.494 NA 
ENDBRANCH  15  16
ENDBRANCH   8  15
TORSDOF 2
ENDMDL
MODEL       14
REMARK 921   NORMALIZED FREE ENERGY PREDICTED BY IDOCK:   -5.50 KCAL/MOL
REMARK 922        TOTAL FREE ENERGY PREDICTED BY IDOCK:   -6.25 KCAL/MOL
REMARK 923 INTER-LIGAND FREE ENERGY PREDICTED BY IDOCK:   -6.26 KCAL/MOL
REMARK 924 INTRA-LIGAND FREE ENERGY PREDICTED BY IDOCK:    0.01 KCAL/MOL
REMARK 927      BINDING AFFINITY PREDICTED BY RF-SCORE:    0.00 PKD
ROOT
HETATM    1  C   UNL     1     -10.312  14.022  65.236  1.00  0.00    -0.383 C  
HETATM    2  C   UNL     1     -11.336  15.087  64.831  1.00  0.00    -0.419 C  
HETATM    3  C   UNL     1     -12.390  14.037  65.174  1.00  0.00    -0.453 C  
HETATM    4  N   UNL     1     -11.445  13.063  65.362  1.00  0.00    -0.304 N  
HETATM    5  O   UNL     1     -13.566  14.043  65.459  1.00  0.00    -0.596 OA 
HETATM    6  C   UNL     1     -11.490  12.204  66.572  1.00  0.00    -0.369 C  
HETATM    7  C   UNL     1     -10.697  10.922  66.245  1.00  0.00    -0.176 C  
HETATM    8  C   UNL     1     -10.949  13.054  67.756  1.00  0.00    -0.251 C  
HETATM    9  S   UNL     1      -9.637  14.016  66.907  1.00  0.00    -0.280 S  
HETATM   10  O   UNL     1      -8.422  13.227  66.902  1.00  0.00    -0.166 OA 
HETATM   11  O   UNL     1     -10.436  10.035  67.038  1.00  0.00    -0.237 OA 
HETATM   12  O   UNL     1     -10.354  10.813  64.932  1.00  0.00    -0.312 OA 
HETATM   13  C   UNL     1     -10.323  12.317  68.954  1.00  0.00    -0.085 C  
HETATM   14  O   UNL     1      -9.635  15.370  67.432  1.00  0.00    -0.209 OA 
ENDROOT
BRANCH   8  15
HETATM   15  C   UNL     1     -11.967  14.089  68.322  1.00  0.00    -0.349 C  
BRANCH  15  16
HETATM   16  N   UNL     1     -11.926  14.368  69.740  1.00  0.00    -0.312 NA 
HETATM   17  C   UNL     1     -11.229  15.360  70.365  1.00  0.00    -0.323 A  
HETATM   18  C   UNL     1     -11.606  15.245  71.681  1.00  0.00    -0.408 A  
HETATM   19  N   UNL     1     -12.466  14.193  71.817  1.00  0.00    -0.310 NA 
HETATM   20  N   UNL     1     -12.636  13.647  70.623  1.00  0.00    -0.319 NA 
ENDBRANCH  15  16
ENDBRANCH   8  15
TORSDOF 2
ENDMDL
MODEL       15
REMARK 921   NORMALIZED FREE ENERGY PREDICTED BY IDOCK:   -5.48 KCAL/MOL
REMARK 922        TOTAL FREE ENERGY PREDICTED BY IDOCK:   -6.23 KCAL/MOL
REMARK 923 INTER-LIGAND FREE ENERGY PREDICTED BY IDOCK:   -5.94 KCAL/MOL
REMARK 924 INTRA-LIGAND FREE ENERGY PREDICTED BY IDOCK:   -0.29 KCAL/MOL
REMARK 927      BINDING AFFINITY PREDICTED BY RF-SCORE:    0.00 PKD
ROOT
HETATM    1  C   UNL     1      -7.870  16.927  68.720  1.00  0.00    -0.250 C  
HETATM    2  C   UNL     1      -6.363  16.811  68.967  1.00  0.00    -0.187 C  
HETATM    3  C   UNL     1      -6.263  16.482  67.479  1.00  0.00    -0.154 C  
HETATM    4  N   UNL     1      -7.625  16.428  67.338  1.00  0.00    -0.146 N  
HETATM    5  O   UNL     1      -5.397  16.515  66.635  1.00  0.00    -0.353 OA 
HETATM    6  C   UNL     1      -8.289  17.142  66.219  1.00  0.00    -0.263 C  
HETATM    7  C   UNL     1      -9.662  16.473  66.007  1.00  0.00    -0.301 C  
HETATM    8  C   UNL     1      -8.319  18.651  66.594  1.00  0.00    -0.287 C  
HETATM    9  S   UNL     1      -8.606  18.541  68.404  1.00  0.00    -0.332 S  
HETATM   10  O   UNL     1     -10.033  18.442  68.635  1.00  0.00    -0.361 OA 
HETATM   11  O   UNL     1     -10.524  16.863  65.240  1.00  0.00    -0.638 OA 
HETATM   12  O   UNL     1      -9.823  15.323  66.719  1.00  0.00    -0.226 OA 
HETATM   13  C   UNL     1      -9.417  19.533  65.973  1.00  0.00    -0.309 C  
HETATM   14  O   UNL     1      -7.821  19.568  69.065  1.00  0.00    -0.363 OA 
ENDROOT
BRANCH   8  15
HETATM   15  C   UNL     1      -6.960  19.389  66.401  1.00  0.00    -0.218 C  
BRANCH  15  16
HETATM   16  N   UNL     1      -6.548  19.698  65.051  1.00  0.00    -0.360 NA 
HETATM   17  C   UNL     1      -6.515  20.928  64.461  1.00  0.00    -0.225 A  
HETATM   18  C   UNL     1      -5.965  20.683  63.226  1.00  0.00    -0.231 A  
HETATM   19  N   UNL     1      -5.724  19.346  63.094  1.00  0.00    -0.397 NA 
HETATM   20  N   UNL     1      -6.108  18.748  64.211  1.00  0.00    -0.338 NA 
ENDBRANCH  15  16
ENDBRANCH   8  15
TORSDOF 2
ENDMDL
MODEL       16
REMARK 921   NORMALIZED FREE ENERGY PREDICTED BY IDOCK:   -5.40 KCAL/MOL
REMARK 922        TOTAL FREE ENERGY PREDICTED BY IDOCK:   -6.13 KCAL/MOL
REMARK 923 INTER-LIGAND FREE ENERGY PREDICTED BY IDOCK:   -6.12 KCAL/MOL
REMARK 924 INTRA-LIGAND FREE ENERGY PREDICTED BY IDOCK:   -0.01 KCAL/MOL
REMARK 927      BINDING AFFINITY PREDICTED BY RF-SCORE:    0.00 PKD
ROOT
HETATM    1  C   UNL     1     -11.845  13.117  66.692  1.00  0.00    -0.391 C  
HETATM    2  C   UNL     1     -11.221  11.723  66.804  1.00  0.00    -0.388 C  
HETATM    3  C   UNL     1     -10.434  12.102  65.551  1.00  0.00    -0.265 C  
HETATM    4  N   UNL     1     -11.137  13.266  65.389  1.00  0.00    -0.281 N  
HETATM    5  O   UNL     1      -9.414  11.731  65.017  1.00  0.00    -0.182 OA 
HETATM    6  C   UNL     1     -10.421  14.542  65.136  1.00  0.00    -0.416 C  
HETATM    7  C   UNL     1     -11.431  15.503  64.475  1.00  0.00    -0.308 C  
HETATM    8  C   UNL     1      -9.827  15.010  66.495  1.00  0.00    -0.260 C  
HETATM    9  S   UNL     1     -11.160  14.487  67.642  1.00  0.00    -0.317 S  
HETATM   10  O   UNL     1     -12.153  15.539  67.700  1.00  0.00     0.082 OA 
HETATM   11  O   UNL     1     -11.222  16.676  64.221  1.00  0.00    -1.098 OA 
HETATM   12  O   UNL     1     -12.600  14.904  64.117  1.00  0.00    -0.785 OA 
HETATM   13  C   UNL     1      -9.565  16.513  66.695  1.00  0.00    -0.275 C  
HETATM   14  O   UNL     1     -10.555  13.975  68.859  1.00  0.00    -0.244 OA 
ENDROOT
BRANCH   8  15
HETATM   15  C   UNL     1      -8.539  14.248  66.929  1.00  0.00    -0.146 C  
BRANCH  15  16
HETATM   16  N   UNL     1      -7.522  14.993  67.636  1.00  0.00    -0.164 NA 
HETATM   17  C   UNL     1      -7.394  15.135  68.986  1.00  0.00    -0.155 A  
HETATM   18  C   UNL     1      -6.227  15.847  69.131  1.00  0.00    -0.140 A  
HETATM   19  N   UNL     1      -5.719  16.139  67.898  1.00  0.00    -0.121 NA 
HETATM   20  N   UNL     1      -6.534  15.632  66.987  1.00  0.00    -0.265 NA 
ENDBRANCH  15  16
ENDBRANCH   8  15
TORSDOF 2
ENDMDL
MODEL       17
REMARK 921   NORMALIZED FREE ENERGY PREDICTED BY IDOCK:   -5.38 KCAL/MOL
REMARK 922        TOTAL FREE ENERGY PREDICTED BY IDOCK:   -6.12 KCAL/MOL
REMARK 923 INTER-LIGAND FREE ENERGY PREDICTED BY IDOCK:   -6.14 KCAL/MOL
REMARK 924 INTRA-LIGAND FREE ENERGY PREDICTED BY IDOCK:    0.03 KCAL/MOL
REMARK 927      BINDING AFFINITY PREDICTED BY RF-SCORE:    0.00 PKD
ROOT
HETATM    1  C   UNL     1     -11.587  11.638  65.298  1.00  0.00    -0.035 C  
HETATM    2  C   UNL     1     -12.342  12.115  64.054  1.00  0.00    -0.550 C  
HETATM    3  C   UNL     1     -12.745  13.318  64.904  1.00  0.00    -0.327 C  
HETATM    4  N   UNL     1     -12.203  12.775  66.038  1.00  0.00    -0.391 N  
HETATM    5  O   UNL     1     -13.132  14.444  64.691  1.00  0.00    -0.481 OA 
HETATM    6  C   UNL     1     -11.319  13.591  66.907  1.00  0.00    -0.326 C  
HETATM    7  C   UNL     1     -11.326  12.934  68.303  1.00  0.00    -0.291 C  
HETATM    8  C   UNL     1      -9.935  13.674  66.203  1.00  0.00    -0.306 C  
HETATM    9  S   UNL     1      -9.829  11.993  65.473  1.00  0.00    -0.201 S  
HETATM   10  O   UNL     1      -9.282  11.096  66.470  1.00  0.00    -0.170 OA 
HETATM   11  O   UNL     1     -10.631  13.274  69.244  1.00  0.00    -0.054 OA 
HETATM   12  O   UNL     1     -12.256  11.949  68.436  1.00  0.00    -0.425 OA 
HETATM   13  C   UNL     1      -8.688  13.913  67.073  1.00  0.00    -0.215 C  
HETATM   14  O   UNL     1      -9.223  12.092  64.157  1.00  0.00     0.243 OA 
ENDROOT
BRANCH   8  15
HETATM   15  C   UNL     1      -9.878  14.681  65.015  1.00  0.00    -0.030 C  
BRANCH  15  16
HETATM   16  N   UNL     1     -10.261  16.051  65.275  1.00  0.00    -0.520 NA 
HETATM   17  C   UNL     1      -9.840  16.842  66.303  1.00  0.00    -0.302 A  
HETATM   18  C   UNL     1     -10.419  18.060  66.036  1.00  0.00    -0.313 A  
HETATM   19  N   UNL     1     -11.181  17.961  64.908  1.00  0.00    -0.411 NA 
HETATM   20  N   UNL     1     -11.096  16.717  64.463  1.00  0.00    -1.039 NA 
ENDBRANCH  15  16
ENDBRANCH   8  15
TORSDOF 2
ENDMDL
MODEL       18
REMARK 921   NORMALIZED FREE ENERGY PREDICTED BY IDOCK:   -5.38 KCAL/MOL
REMARK 922        TOTAL FREE ENERGY PREDICTED BY IDOCK:   -6.11 KCAL/MOL
REMARK 923 INTER-LIGAND FREE ENERGY PREDICTED BY IDOCK:   -6.13 KCAL/MOL
REMARK 924 INTRA-LIGAND FREE ENERGY PREDICTED BY IDOCK:    0.02 KCAL/MOL
REMARK 927      BINDING AFFINITY PREDICTED BY RF-SCORE:    0.00 PKD
ROOT
HETATM    1  C   UNL     1     -10.605  12.420  66.280  1.00  0.00    -0.249 C  
HETATM    2  C   UNL     1     -11.031  12.886  64.885  1.00  0.00    -0.327 C  
HETATM    3  C   UNL     1     -12.287  13.417  65.574  1.00  0.00    -0.480 C  
HETATM    4  N   UNL     1     -11.949  12.837  66.768  1.00  0.00    -0.372 N  
HETATM    5  O   UNL     1     -13.133  14.244  65.325  1.00  0.00    -0.707 OA 
HETATM    6  C   UNL     1     -12.013  13.625  68.025  1.00  0.00    -0.350 C  
HETATM    7  C   UNL     1     -12.121  12.616  69.185  1.00  0.00    -0.142 C  
HETATM    8  C   UNL     1     -10.766  14.554  68.045  1.00  0.00    -0.242 C  
HETATM    9  S   UNL     1      -9.514  13.453  67.277  1.00  0.00    -0.243 S  
HETATM   10  O   UNL     1      -8.933  12.628  68.315  1.00  0.00    -0.194 OA 
HETATM   11  O   UNL     1     -12.089  12.900  70.370  1.00  0.00    -0.361 OA 
HETATM   12  O   UNL     1     -12.332  11.334  68.776  1.00  0.00    -0.518 OA 
HETATM   13  C   UNL     1     -10.235  15.028  69.410  1.00  0.00    -0.229 C  
HETATM   14  O   UNL     1      -8.668  14.246  66.403  1.00  0.00    -0.075 OA 
ENDROOT
BRANCH   8  15
HETATM   15  C   UNL     1     -10.883  15.808  67.126  1.00  0.00    -0.289 C  
BRANCH  15  16
HETATM   16  N   UNL     1     -10.249  17.029  67.570  1.00  0.00    -0.313 NA 
HETATM   17  C   UNL     1      -8.925  17.345  67.490  1.00  0.00    -0.231 A  
HETATM   18  C   UNL     1      -8.869  18.637  67.955  1.00  0.00    -0.306 A  
HETATM   19  N   UNL     1     -10.120  19.039  68.328  1.00  0.00    -0.378 NA 
HETATM   20  N   UNL     1     -10.955  18.035  68.110  1.00  0.00    -0.125 NA 
ENDBRANCH  15  16
ENDBRANCH   8  15
TORSDOF 2
ENDMDL
MODEL       19
REMARK 921   NORMALIZED FREE ENERGY PREDICTED BY IDOCK:   -5.36 KCAL/MOL
REMARK 922        TOTAL FREE ENERGY PREDICTED BY IDOCK:   -6.09 KCAL/MOL
REMARK 923 INTER-LIGAND FREE ENERGY PREDICTED BY IDOCK:   -5.84 KCAL/MOL
REMARK 924 INTRA-LIGAND FREE ENERGY PREDICTED BY IDOCK:   -0.26 KCAL/MOL
REMARK 927      BINDING AFFINITY PREDICTED BY RF-SCORE:    0.00 PKD
ROOT
HETATM    1  C   UNL     1     -10.251  13.005  65.668  1.00  0.00    -0.287 C  
HETATM    2  C   UNL     1     -11.550  12.217  65.473  1.00  0.00    -0.422 C  
HETATM    3  C   UNL     1     -11.339  11.742  66.909  1.00  0.00    -0.320 C  
HETATM    4  N   UNL     1     -10.101  12.322  66.983  1.00  0.00    -0.212 N  
HETATM    5  O   UNL     1     -12.035  11.284  67.787  1.00  0.00    -0.637 OA 
HETATM    6  C   UNL     1      -9.736  13.156  68.156  1.00  0.00    -0.228 C  
HETATM    7  C   UNL     1      -8.196  13.195  68.220  1.00  0.00    -0.154 C  
HETATM    8  C   UNL     1     -10.444  14.529  67.978  1.00  0.00    -0.236 C  
HETATM    9  S   UNL     1     -10.318  14.739  66.159  1.00  0.00    -0.320 S  
HETATM   10  O   UNL     1      -9.038  15.345  65.856  1.00  0.00    -0.311 OA 
HETATM   11  O   UNL     1      -7.541  13.872  68.994  1.00  0.00    -0.097 OA 
HETATM   12  O   UNL     1      -7.592  12.330  67.360  1.00  0.00    -0.140 OA 
HETATM   13  C   UNL     1      -9.823  15.761  68.660  1.00  0.00    -0.210 C  
HETATM   14  O   UNL     1     -11.550  15.332  65.670  1.00  0.00    -0.205 OA 
ENDROOT
BRANCH   8  15
HETATM   15  C   UNL     1     -11.964  14.518  68.323  1.00  0.00    -0.268 C  
BRANCH  15  16
HETATM   16  N   UNL     1     -12.340  14.656  69.712  1.00  0.00    -0.294 NA 
HETATM   17  C   UNL     1     -12.358  13.677  70.661  1.00  0.00    -0.368 A  
HETATM   18  C   UNL     1     -12.691  14.346  71.814  1.00  0.00    -0.351 A  
HETATM   19  N   UNL     1     -12.897  15.666  71.529  1.00  0.00    -0.452 NA 
HETATM   20  N   UNL     1     -12.702  15.840  70.231  1.00  0.00    -0.320 NA 
ENDBRANCH  15  16
ENDBRANCH   8  15
TORSDOF 2
ENDMDL
MODEL       20
REMARK 921   NORMALIZED FREE ENERGY PREDICTED BY IDOCK:   -5.32 KCAL/MOL
REMARK 922        TOTAL FREE ENERGY PREDICTED BY IDOCK:   -6.04 KCAL/MOL
REMARK 923 INTER-LIGAND FREE ENERGY PREDICTED BY IDOCK:   -5.83 KCAL/MOL
REMARK 924 INTRA-LIGAND FREE ENERGY PREDICTED BY IDOCK:   -0.22 KCAL/MOL
REMARK 927      BINDING AFFINITY PREDICTED BY RF-SCORE:    0.00 PKD
ROOT
HETATM    1  C   UNL     1      -9.609  18.711  67.818  1.00  0.00    -0.304 C  
HETATM    2  C   UNL     1     -10.865  19.354  67.222  1.00  0.00    -0.561 C  
HETATM    3  C   UNL     1     -10.402  18.752  65.897  1.00  0.00    -0.342 C  
HETATM    4  N   UNL     1      -9.210  18.341  66.431  1.00  0.00    -0.290 N  
HETATM    5  O   UNL     1     -10.921  18.464  64.843  1.00  0.00    -0.598 OA 
HETATM    6  C   UNL     1      -8.726  16.957  66.198  1.00  0.00    -0.245 C  
HETATM    7  C   UNL     1      -7.201  16.968  66.425  1.00  0.00    -0.276 C  
HETATM    8  C   UNL     1      -9.545  16.023  67.134  1.00  0.00    -0.218 C  
HETATM    9  S   UNL     1      -9.717  17.097  68.613  1.00  0.00    -0.301 S  
HETATM   10  O   UNL     1      -8.544  16.921  69.444  1.00  0.00    -0.011 OA 
HETATM   11  O   UNL     1      -6.482  15.984  66.423  1.00  0.00     0.054 OA 
HETATM   12  O   UNL     1      -6.679  18.218  66.566  1.00  0.00    -0.184 OA 
HETATM   13  C   UNL     1      -8.912  14.688  67.565  1.00  0.00    -0.193 C  
HETATM   14  O   UNL     1     -11.048  16.920  69.167  1.00  0.00    -0.222 OA 
ENDROOT
BRANCH   8  15
HETATM   15  C   UNL     1     -10.989  15.718  66.633  1.00  0.00    -0.179 C  
BRANCH  15  16
HETATM   16  N   UNL     1     -11.200  14.492  65.896  1.00  0.00    -0.326 NA 
HETATM   17  C   UNL     1     -11.988  13.439  66.257  1.00  0.00    -0.411 A  
HETATM   18  C   UNL     1     -11.913  12.590  65.179  1.00  0.00    -0.434 A  
HETATM   19  N   UNL     1     -11.077  13.123  64.240  1.00  0.00    -0.379 NA 
HETATM   20  N   UNL     1     -10.626  14.279  64.701  1.00  0.00    -0.403 NA 
ENDBRANCH  15  16
ENDBRANCH   8  15
TORSDOF 2
ENDMDL
MODEL       21
REMARK 921   NORMALIZED FREE ENERGY PREDICTED BY IDOCK:   -5.29 KCAL/MOL
REMARK 922        TOTAL FREE ENERGY PREDICTED BY IDOCK:   -6.01 KCAL/MOL
REMARK 923 INTER-LIGAND FREE ENERGY PREDICTED BY IDOCK:   -6.19 KCAL/MOL
REMARK 924 INTRA-LIGAND FREE ENERGY PREDICTED BY IDOCK:    0.19 KCAL/MOL
REMARK 927      BINDING AFFINITY PREDICTED BY RF-SCORE:    0.00 PKD
ROOT
HETATM    1  C   UNL     1     -12.295  13.713  65.313  1.00  0.00    -0.465 C  
HETATM    2  C   UNL     1     -12.521  12.505  64.398  1.00  0.00    -0.530 C  
HETATM    3  C   UNL     1     -11.102  12.766  63.898  1.00  0.00    -0.431 C  
HETATM    4  N   UNL     1     -11.004  13.936  64.604  1.00  0.00    -0.394 N  
HETATM    5  O   UNL     1     -10.243  12.124  63.339  1.00  0.00    -0.433 OA 
HETATM    6  C   UNL     1      -9.802  14.212  65.430  1.00  0.00    -0.200 C  
HETATM    7  C   UNL     1      -9.732  15.739  65.630  1.00  0.00    -0.297 C  
HETATM    8  C   UNL     1      -9.934  13.362  66.726  1.00  0.00    -0.264 C  
HETATM    9  S   UNL     1     -11.745  13.463  67.011  1.00  0.00    -0.393 S  
HETATM   10  O   UNL     1     -12.022  14.671  67.759  1.00  0.00    -0.348 OA 
HETATM   11  O   UNL     1      -8.933  16.319  66.345  1.00  0.00    -0.251 OA 
HETATM   12  O   UNL     1     -10.621  16.431  64.865  1.00  0.00    -0.677 OA 
HETATM   13  C   UNL     1      -9.208  13.849  67.993  1.00  0.00    -0.193 C  
HETATM   14  O   UNL     1     -12.216  12.175  67.486  1.00  0.00    -0.474 OA 
ENDROOT
BRANCH   8  15
HETATM   15  C   UNL     1      -9.594  11.852  66.542  1.00  0.00    -0.214 C  
BRANCH  15  16
HETATM   16  N   UNL     1      -8.202  11.488  66.403  1.00  0.00    -0.135 NA 
HETATM   17  C   UNL     1      -7.172  11.845  67.223  1.00  0.00    -0.147 A  
HETATM   18  C   UNL     1      -6.094  11.167  66.706  1.00  0.00    -0.119 A  
HETATM   19  N   UNL     1      -6.485  10.470  65.599  1.00  0.00    -0.127 NA 
HETATM   20  N   UNL     1      -7.775  10.694  65.408  1.00  0.00    -0.101 NA 
ENDBRANCH  15  16
ENDBRANCH   8  15
TORSDOF 2
ENDMDL
MODEL       22
REMARK 921   NORMALIZED FREE ENERGY PREDICTED BY IDOCK:   -5.19 KCAL/MOL
REMARK 922        TOTAL FREE ENERGY PREDICTED BY IDOCK:   -5.90 KCAL/MOL
REMARK 923 INTER-LIGAND FREE ENERGY PREDICTED BY IDOCK:   -5.64 KCAL/MOL
REMARK 924 INTRA-LIGAND FREE ENERGY PREDICTED BY IDOCK:   -0.25 KCAL/MOL
REMARK 927      BINDING AFFINITY PREDICTED BY RF-SCORE:    0.00 PKD
ROOT
HETATM    1  C   UNL     1     -10.042  12.872  65.416  1.00  0.00    -0.251 C  
HETATM    2  C   UNL     1      -9.757  11.444  64.943  1.00  0.00    -0.283 C  
HETATM    3  C   UNL     1      -9.039  11.269  66.279  1.00  0.00    -0.199 C  
HETATM    4  N   UNL     1      -9.167  12.597  66.590  1.00  0.00    -0.228 N  
HETATM    5  O   UNL     1      -8.713  10.337  66.978  1.00  0.00    -0.129 OA 
HETATM    6  C   UNL     1      -9.660  13.007  67.929  1.00  0.00    -0.215 C  
HETATM    7  C   UNL     1      -9.185  14.456  68.161  1.00  0.00    -0.199 C  
HETATM    8  C   UNL     1     -11.199  12.787  67.936  1.00  0.00    -0.274 C  
HETATM    9  S   UNL     1     -11.614  13.258  66.211  1.00  0.00    -0.363 S  
HETATM   10  O   UNL     1     -11.806  14.692  66.162  1.00  0.00    -0.352 OA 
HETATM   11  O   UNL     1      -9.493  15.154  69.111  1.00  0.00    -0.209 OA 
HETATM   12  O   UNL     1      -8.303  14.897  67.222  1.00  0.00    -0.182 OA 
HETATM   13  C   UNL     1     -12.051  13.636  68.897  1.00  0.00    -0.335 C  
HETATM   14  O   UNL     1     -12.639  12.357  65.714  1.00  0.00    -0.532 OA 
ENDROOT
BRANCH   8  15
HETATM   15  C   UNL     1     -11.635  11.301  68.111  1.00  0.00    -0.289 C  
BRANCH  15  16
HETATM   16  N   UNL     1     -11.559  10.729  69.437  1.00  0.00    -0.287 NA 
HETATM   17  C   UNL     1     -12.571  10.615  70.344  1.00  0.00    -0.316 A  
HETATM   18  C   UNL     1     -12.000   9.925  71.386  1.00  0.00    -0.404 A  
HETATM   19  N   UNL     1     -10.686   9.682  71.102  1.00  0.00    -0.331 NA 
HETATM   20  N   UNL     1     -10.420  10.202  69.914  1.00  0.00    -0.266 NA 
ENDBRANCH  15  16
ENDBRANCH   8  15
TORSDOF 2
ENDMDL
MODEL       23
REMARK 921   NORMALIZED FREE ENERGY PREDICTED BY IDOCK:   -5.18 KCAL/MOL
REMARK 922        TOTAL FREE ENERGY PREDICTED BY IDOCK:   -5.89 KCAL/MOL
REMARK 923 INTER-LIGAND FREE ENERGY PREDICTED BY IDOCK:   -5.60 KCAL/MOL
REMARK 924 INTRA-LIGAND FREE ENERGY PREDICTED BY IDOCK:   -0.28 KCAL/MOL
REMARK 927      BINDING AFFINITY PREDICTED BY RF-SCORE:    0.00 PKD
ROOT
HETATM    1  C   UNL     1      -9.524  11.303  67.669  1.00  0.00    -0.167 C  
HETATM    2  C   UNL     1      -8.270  11.626  68.487  1.00  0.00    -0.144 C  
HETATM    3  C   UNL     1      -7.912  12.576  67.346  1.00  0.00    -0.180 C  
HETATM    4  N   UNL     1      -8.953  12.135  66.573  1.00  0.00    -0.203 N  
HETATM    5  O   UNL     1      -7.200  13.544  67.208  1.00  0.00    -0.137 OA 
HETATM    6  C   UNL     1      -9.854  13.109  65.906  1.00  0.00    -0.233 C  
HETATM    7  C   UNL     1     -10.528  12.371  64.732  1.00  0.00    -0.304 C  
HETATM    8  C   UNL     1     -10.811  13.667  66.997  1.00  0.00    -0.286 C  
HETATM    9  S   UNL     1     -11.069  12.164  68.018  1.00  0.00    -0.264 S  
HETATM   10  O   UNL     1     -12.154  11.399  67.439  1.00  0.00    -0.533 OA 
HETATM   11  O   UNL     1     -11.408  12.830  64.025  1.00  0.00    -0.360 OA 
HETATM   12  O   UNL     1      -9.998  11.141  64.485  1.00  0.00    -0.251 OA 
HETATM   13  C   UNL     1     -12.184  14.204  66.555  1.00  0.00    -0.463 C  
HETATM   14  O   UNL     1     -11.102  12.549  69.418  1.00  0.00    -0.188 OA 
ENDROOT
BRANCH   8  15
HETATM   15  C   UNL     1     -10.168  14.736  67.931  1.00  0.00    -0.229 C  
BRANCH  15  16
HETATM   16  N   UNL     1     -10.176  16.111  67.485  1.00  0.00    -0.261 NA 
HETATM   17  C   UNL     1      -9.563  16.621  66.378  1.00  0.00    -0.285 A  
HETATM   18  C   UNL     1      -9.958  17.938  66.364  1.00  0.00    -0.358 A  
HETATM   19  N   UNL     1     -10.744  18.187  67.452  1.00  0.00    -0.384 NA 
HETATM   20  N   UNL     1     -10.850  17.065  68.147  1.00  0.00    -0.372 NA 
ENDBRANCH  15  16
ENDBRANCH   8  15
TORSDOF 2
ENDMDL
MODEL       24
REMARK 921   NORMALIZED FREE ENERGY PREDICTED BY IDOCK:   -5.17 KCAL/MOL
REMARK 922        TOTAL FREE ENERGY PREDICTED BY IDOCK:   -5.88 KCAL/MOL
REMARK 923 INTER-LIGAND FREE ENERGY PREDICTED BY IDOCK:   -5.61 KCAL/MOL
REMARK 924 INTRA-LIGAND FREE ENERGY PREDICTED BY IDOCK:   -0.27 KCAL/MOL
REMARK 927      BINDING AFFINITY PREDICTED BY RF-SCORE:    0.00 PKD
ROOT
HETATM    1  C   UNL     1     -10.896  13.233  68.213  1.00  0.00    -0.256 C  
HETATM    2  C   UNL     1     -12.009  13.613  69.193  1.00  0.00    -0.394 C  
HETATM    3  C   UNL     1     -10.984  14.566  69.805  1.00  0.00    -0.151 C  
HETATM    4  N   UNL     1      -9.973  14.076  69.022  1.00  0.00    -0.092 N  
HETATM    5  O   UNL     1     -11.021  15.560  70.493  1.00  0.00    -0.308 OA 
HETATM    6  C   UNL     1      -9.073  15.007  68.296  1.00  0.00    -0.182 C  
HETATM    7  C   UNL     1      -7.777  14.231  67.984  1.00  0.00    -0.141 C  
HETATM    8  C   UNL     1      -9.861  15.536  67.064  1.00  0.00    -0.232 C  
HETATM    9  S   UNL     1     -10.807  14.033  66.600  1.00  0.00    -0.300 S  
HETATM   10  O   UNL     1      -9.978  13.220  65.735  1.00  0.00    -0.283 OA 
HETATM   11  O   UNL     1      -6.854  14.647  67.306  1.00  0.00    -0.254 OA 
HETATM   12  O   UNL     1      -7.703  13.021  68.604  1.00  0.00    -0.127 OA 
HETATM   13  C   UNL     1      -9.062  16.014  65.839  1.00  0.00    -0.292 C  
HETATM   14  O   UNL     1     -12.141  14.430  66.184  1.00  0.00    -0.399 OA 
ENDROOT
BRANCH   8  15
HETATM   15  C   UNL     1     -10.910  16.639  67.399  1.00  0.00    -0.186 C  
BRANCH  15  16
HETATM   16  N   UNL     1     -10.424  17.979  67.640  1.00  0.00    -0.396 NA 
HETATM   17  C   UNL     1     -10.412  19.021  66.760  1.00  0.00    -0.431 A  
HETATM   18  C   UNL     1      -9.945  20.075  67.508  1.00  0.00    -0.427 A  
HETATM   19  N   UNL     1      -9.660  19.643  68.771  1.00  0.00    -0.385 NA 
HETATM   20  N   UNL     1      -9.935  18.349  68.834  1.00  0.00    -0.376 NA 
ENDBRANCH  15  16
ENDBRANCH   8  15
TORSDOF 2
ENDMDL
MODEL       25
REMARK 921   NORMALIZED FREE ENERGY PREDICTED BY IDOCK:   -5.16 KCAL/MOL
REMARK 922        TOTAL FREE ENERGY PREDICTED BY IDOCK:   -5.87 KCAL/MOL
REMARK 923 INTER-LIGAND FREE ENERGY PREDICTED BY IDOCK:   -5.55 KCAL/MOL
REMARK 924 INTRA-LIGAND FREE ENERGY PREDICTED BY IDOCK:   -0.32 KCAL/MOL
REMARK 927      BINDING AFFINITY PREDICTED BY RF-SCORE:    0.00 PKD
ROOT
HETATM    1  C   UNL     1     -10.440  12.886  66.414  1.00  0.00    -0.267 C  
HETATM    2  C   UNL     1     -11.162  11.592  66.799  1.00  0.00    -0.350 C  
HETATM    3  C   UNL     1     -10.577  11.817  68.191  1.00  0.00    -0.203 C  
HETATM    4  N   UNL     1      -9.813  12.871  67.765  1.00  0.00    -0.215 N  
HETATM    5  O   UNL     1     -10.835  11.451  69.315  1.00  0.00    -0.228 OA 
HETATM    6  C   UNL     1      -9.799  14.142  68.533  1.00  0.00    -0.230 C  
HETATM    7  C   UNL     1      -8.502  14.884  68.154  1.00  0.00    -0.146 C  
HETATM    8  C   UNL     1     -11.126  14.885  68.210  1.00  0.00    -0.282 C  
HETATM    9  S   UNL     1     -11.331  14.453  66.438  1.00  0.00    -0.358 S  
HETATM   10  O   UNL     1     -10.588  15.410  65.646  1.00  0.00    -0.318 OA 
HETATM   11  O   UNL     1      -8.205  16.010  68.513  1.00  0.00    -0.164 OA 
HETATM   12  O   UNL     1      -7.640  14.133  67.413  1.00  0.00    -0.182 OA 
HETATM   13  C   UNL     1     -11.154  16.418  68.351  1.00  0.00    -0.351 C  
HETATM   14  O   UNL     1     -12.739  14.211  66.176  1.00  0.00    -0.442 OA 
ENDROOT
BRANCH   8  15
HETATM   15  C   UNL     1     -12.375  14.323  68.955  1.00  0.00    -0.112 C  
BRANCH  15  16
HETATM   16  N   UNL     1     -12.552  14.689  70.342  1.00  0.00    -0.349 NA 
HETATM   17  C   UNL     1     -11.816  14.260  71.407  1.00  0.00    -0.092 A  
HETATM   18  C   UNL     1     -12.328  14.971  72.466  1.00  0.00    -0.357 A  
HETATM   19  N   UNL     1     -13.354  15.758  72.029  1.00  0.00    -0.441 NA 
HETATM   20  N   UNL     1     -13.499  15.559  70.728  1.00  0.00    -0.468 NA 
ENDBRANCH  15  16
ENDBRANCH   8  15
TORSDOF 2
ENDMDL
MODEL       26
REMARK 921   NORMALIZED FREE ENERGY PREDICTED BY IDOCK:   -5.11 KCAL/MOL
REMARK 922        TOTAL FREE ENERGY PREDICTED BY IDOCK:   -5.81 KCAL/MOL
REMARK 923 INTER-LIGAND FREE ENERGY PREDICTED BY IDOCK:   -5.90 KCAL/MOL
REMARK 924 INTRA-LIGAND FREE ENERGY PREDICTED BY IDOCK:    0.09 KCAL/MOL
REMARK 927      BINDING AFFINITY PREDICTED BY RF-SCORE:    0.00 PKD
ROOT
HETATM    1  C   UNL     1     -10.694  13.810  66.336  1.00  0.00    -0.281 C  
HETATM    2  C   UNL     1     -10.610  13.968  64.815  1.00  0.00    -0.441 C  
HETATM    3  C   UNL     1     -10.983  15.428  65.064  1.00  0.00    -0.436 C  
HETATM    4  N   UNL     1     -11.213  15.205  66.395  1.00  0.00    -0.317 N  
HETATM    5  O   UNL     1     -10.875  16.470  64.459  1.00  0.00    -0.802 OA 
HETATM    6  C   UNL     1     -10.633  16.114  67.415  1.00  0.00    -0.311 C  
HETATM    7  C   UNL     1     -11.477  15.954  68.696  1.00  0.00    -0.391 C  
HETATM    8  C   UNL     1      -9.126  15.752  67.545  1.00  0.00    -0.195 C  
HETATM    9  S   UNL     1      -9.199  13.931  67.335  1.00  0.00    -0.235 S  
HETATM   10  O   UNL     1      -9.467  13.332  68.626  1.00  0.00    -0.141 OA 
HETATM   11  O   UNL     1     -11.229  16.470  69.772  1.00  0.00    -0.302 OA 
HETATM   12  O   UNL     1     -12.609  15.218  68.514  1.00  0.00     0.259 OA 
HETATM   13  C   UNL     1      -8.414  16.068  68.873  1.00  0.00    -0.232 C  
HETATM   14  O   UNL     1      -8.056  13.505  66.547  1.00  0.00     0.329 OA 
ENDROOT
BRANCH   8  15
HETATM   15  C   UNL     1      -8.232  16.300  66.392  1.00  0.00    -0.319 C  
BRANCH  15  16
HETATM   16  N   UNL     1      -8.210  17.730  66.178  1.00  0.00    -0.485 NA 
HETATM   17  C   UNL     1      -9.104  18.646  66.649  1.00  0.00    -0.306 A  
HETATM   18  C   UNL     1      -8.580  19.851  66.246  1.00  0.00    -0.337 A  
HETATM   19  N   UNL     1      -7.437  19.631  65.531  1.00  0.00    -0.409 NA 
HETATM   20  N   UNL     1      -7.233  18.324  65.475  1.00  0.00    -0.546 NA 
ENDBRANCH  15  16
ENDBRANCH   8  15
TORSDOF 2
ENDMDL
MODEL       27
REMARK 921   NORMALIZED FREE ENERGY PREDICTED BY IDOCK:   -5.06 KCAL/MOL
REMARK 922        TOTAL FREE ENERGY PREDICTED BY IDOCK:   -5.75 KCAL/MOL
REMARK 923 INTER-LIGAND FREE ENERGY PREDICTED BY IDOCK:   -6.02 KCAL/MOL
REMARK 924 INTRA-LIGAND FREE ENERGY PREDICTED BY IDOCK:    0.26 KCAL/MOL
REMARK 927      BINDING AFFINITY PREDICTED BY RF-SCORE:    0.00 PKD
ROOT
HETATM    1  C   UNL     1     -10.037  17.015  69.574  1.00  0.00    -0.048 C  
HETATM    2  C   UNL     1     -10.707  15.765  70.150  1.00  0.00    -0.354 C  
HETATM    3  C   UNL     1     -11.444  15.686  68.815  1.00  0.00    -0.376 C  
HETATM    4  N   UNL     1     -10.953  16.897  68.405  1.00  0.00    -0.342 N  
HETATM    5  O   UNL     1     -12.014  14.827  68.184  1.00  0.00    -0.310 OA 
HETATM    6  C   UNL     1     -10.364  17.044  67.050  1.00  0.00    -0.304 C  
HETATM    7  C   UNL     1     -10.419  18.544  66.694  1.00  0.00    -0.398 C  
HETATM    8  C   UNL     1      -8.946  16.409  67.097  1.00  0.00    -0.202 C  
HETATM    9  S   UNL     1      -8.419  16.886  68.789  1.00  0.00    -0.215 S  
HETATM   10  O   UNL     1      -7.837  18.211  68.730  1.00  0.00    -0.299 OA 
HETATM   11  O   UNL     1      -9.929  19.049  65.699  1.00  0.00    -0.421 OA 
HETATM   12  O   UNL     1     -11.146  19.287  67.574  1.00  0.00    -0.423 OA 
HETATM   13  C   UNL     1      -7.891  16.908  66.093  1.00  0.00    -0.277 C  
HETATM   14  O   UNL     1      -7.684  15.782  69.379  1.00  0.00    -0.219 OA 
ENDROOT
BRANCH   8  15
HETATM   15  C   UNL     1      -8.938  14.851  67.049  1.00  0.00    -0.236 C  
BRANCH  15  16
HETATM   16  N   UNL     1      -9.813  14.202  66.098  1.00  0.00    -0.303 NA 
HETATM   17  C   UNL     1     -10.387  12.971  66.215  1.00  0.00    -0.285 A  
HETATM   18  C   UNL     1     -11.187  12.877  65.102  1.00  0.00    -0.288 A  
HETATM   19  N   UNL     1     -11.048  14.006  64.347  1.00  0.00    -0.337 NA 
HETATM   20  N   UNL     1     -10.184  14.803  64.956  1.00  0.00    -0.380 NA 
ENDBRANCH  15  16
ENDBRANCH   8  15
TORSDOF 2
ENDMDL
MODEL       28
REMARK 921   NORMALIZED FREE ENERGY PREDICTED BY IDOCK:   -5.06 KCAL/MOL
REMARK 922        TOTAL FREE ENERGY PREDICTED BY IDOCK:   -5.75 KCAL/MOL
REMARK 923 INTER-LIGAND FREE ENERGY PREDICTED BY IDOCK:   -5.71 KCAL/MOL
REMARK 924 INTRA-LIGAND FREE ENERGY PREDICTED BY IDOCK:   -0.04 KCAL/MOL
REMARK 927      BINDING AFFINITY PREDICTED BY RF-SCORE:    0.00 PKD
ROOT
HETATM    1  C   UNL     1      -7.308  16.979  66.647  1.00  0.00    -0.261 C  
HETATM    2  C   UNL     1      -6.193  16.222  67.374  1.00  0.00    -0.205 C  
HETATM    3  C   UNL     1      -6.536  17.104  68.573  1.00  0.00    -0.167 C  
HETATM    4  N   UNL     1      -7.403  17.868  67.838  1.00  0.00    -0.217 N  
HETATM    5  O   UNL     1      -6.375  17.048  69.770  1.00  0.00    -0.234 OA 
HETATM    6  C   UNL     1      -8.757  18.175  68.363  1.00  0.00    -0.291 C  
HETATM    7  C   UNL     1      -9.253  19.436  67.625  1.00  0.00    -0.309 C  
HETATM    8  C   UNL     1      -9.620  16.895  68.175  1.00  0.00    -0.255 C  
HETATM    9  S   UNL     1      -8.968  16.281  66.574  1.00  0.00    -0.307 S  
HETATM   10  O   UNL     1      -9.690  16.940  65.504  1.00  0.00    -0.541 OA 
HETATM   11  O   UNL     1     -10.368  19.917  67.726  1.00  0.00    -0.412 OA 
HETATM   12  O   UNL     1      -8.292  20.040  66.873  1.00  0.00    -0.303 OA 
HETATM   13  C   UNL     1     -11.146  17.058  68.057  1.00  0.00    -0.149 C  
HETATM   14  O   UNL     1      -8.886  14.833  66.626  1.00  0.00    -0.255 OA 
ENDROOT
BRANCH   8  15
HETATM   15  C   UNL     1      -9.348  15.777  69.227  1.00  0.00    -0.261 C  
BRANCH  15  16
HETATM   16  N   UNL     1     -10.490  15.127  69.829  1.00  0.00    -0.250 NA 
HETATM   17  C   UNL     1     -11.198  14.075  69.326  1.00  0.00    -0.261 A  
HETATM   18  C   UNL     1     -12.105  13.788  70.318  1.00  0.00    -0.355 A  
HETATM   19  N   UNL     1     -11.948  14.673  71.346  1.00  0.00    -0.346 NA 
HETATM   20  N   UNL     1     -10.971  15.506  71.024  1.00  0.00    -0.330 NA 
ENDBRANCH  15  16
ENDBRANCH   8  15
TORSDOF 2
ENDMDL
MODEL       29
REMARK 921   NORMALIZED FREE ENERGY PREDICTED BY IDOCK:   -5.01 KCAL/MOL
REMARK 922        TOTAL FREE ENERGY PREDICTED BY IDOCK:   -5.70 KCAL/MOL
REMARK 923 INTER-LIGAND FREE ENERGY PREDICTED BY IDOCK:   -5.40 KCAL/MOL
REMARK 924 INTRA-LIGAND FREE ENERGY PREDICTED BY IDOCK:   -0.31 KCAL/MOL
REMARK 927      BINDING AFFINITY PREDICTED BY RF-SCORE:    0.00 PKD
ROOT
HETATM    1  C   UNL     1      -7.292  18.108  68.046  1.00  0.00    -0.234 C  
HETATM    2  C   UNL     1      -6.613  16.817  68.512  1.00  0.00    -0.161 C  
HETATM    3  C   UNL     1      -7.994  16.413  69.022  1.00  0.00    -0.227 C  
HETATM    4  N   UNL     1      -8.523  17.645  68.745  1.00  0.00    -0.255 N  
HETATM    5  O   UNL     1      -8.550  15.376  69.306  1.00  0.00    -0.224 OA 
HETATM    6  C   UNL     1      -9.812  17.758  68.017  1.00  0.00    -0.317 C  
HETATM    7  C   UNL     1     -10.390  19.152  68.336  1.00  0.00    -0.327 C  
HETATM    8  C   UNL     1      -9.517  17.472  66.517  1.00  0.00    -0.272 C  
HETATM    9  S   UNL     1      -7.867  18.256  66.344  1.00  0.00    -0.248 S  
HETATM   10  O   UNL     1      -8.058  19.661  66.051  1.00  0.00    -0.342 OA 
HETATM   11  O   UNL     1     -11.390  19.632  67.829  1.00  0.00     0.012 OA 
HETATM   12  O   UNL     1      -9.715  19.810  69.318  1.00  0.00    -0.348 OA 
HETATM   13  C   UNL     1     -10.463  18.073  65.462  1.00  0.00     0.031 C  
HETATM   14  O   UNL     1      -7.044  17.427  65.482  1.00  0.00    -0.211 OA 
ENDROOT
BRANCH   8  15
HETATM   15  C   UNL     1      -9.333  15.962  66.176  1.00  0.00    -0.350 C  
BRANCH  15  16
HETATM   16  N   UNL     1     -10.523  15.165  65.986  1.00  0.00    -0.303 NA 
HETATM   17  C   UNL     1     -10.935  14.562  64.834  1.00  0.00    -0.410 A  
HETATM   18  C   UNL     1     -12.056  13.863  65.213  1.00  0.00    -0.410 A  
HETATM   19  N   UNL     1     -12.303  14.086  66.537  1.00  0.00    -0.449 NA 
HETATM   20  N   UNL     1     -11.370  14.907  66.995  1.00  0.00    -0.349 NA 
ENDBRANCH  15  16
ENDBRANCH   8  15
TORSDOF 2
ENDMDL
MODEL       30
REMARK 921   NORMALIZED FREE ENERGY PREDICTED BY IDOCK:   -4.97 KCAL/MOL
REMARK 922        TOTAL FREE ENERGY PREDICTED BY IDOCK:   -5.65 KCAL/MOL
REMARK 923 INTER-LIGAND FREE ENERGY PREDICTED BY IDOCK:   -5.34 KCAL/MOL
REMARK 924 INTRA-LIGAND FREE ENERGY PREDICTED BY IDOCK:   -0.32 KCAL/MOL
REMARK 927      BINDING AFFINITY PREDICTED BY RF-SCORE:    0.00 PKD
ROOT
HETATM    1  C   UNL     1      -9.403   9.176  69.003  1.00  0.00    -0.151 C  
HETATM    2  C   UNL     1     -10.704   9.028  69.798  1.00  0.00    -0.233 C  
HETATM    3  C   UNL     1     -10.712  10.554  69.845  1.00  0.00    -0.247 C  
HETATM    4  N   UNL     1      -9.466  10.638  69.282  1.00  0.00    -0.175 N  
HETATM    5  O   UNL     1     -11.542  11.417  70.024  1.00  0.00    -0.298 OA 
HETATM    6  C   UNL     1      -9.218  11.568  68.152  1.00  0.00    -0.181 C  
HETATM    7  C   UNL     1      -7.700  11.838  68.114  1.00  0.00    -0.124 C  
HETATM    8  C   UNL     1      -9.823  10.911  66.879  1.00  0.00    -0.189 C  
HETATM    9  S   UNL     1      -9.444   9.144  67.201  1.00  0.00    -0.162 S  
HETATM   10  O   UNL     1      -8.106   8.869  66.722  1.00  0.00    -0.109 OA 
HETATM   11  O   UNL     1      -7.120  12.476  67.253  1.00  0.00    -0.148 OA 
HETATM   12  O   UNL     1      -7.032  11.352  69.197  1.00  0.00    -0.101 OA 
HETATM   13  C   UNL     1      -9.235  11.300  65.510  1.00  0.00    -0.220 C  
HETATM   14  O   UNL     1     -10.568   8.337  66.758  1.00  0.00    -0.306 OA 
ENDROOT
BRANCH   8  15
HETATM   15  C   UNL     1     -11.374  11.024  66.773  1.00  0.00     0.028 C  
BRANCH  15  16
HETATM   16  N   UNL     1     -11.926  12.266  66.279  1.00  0.00    -0.626 NA 
HETATM   17  C   UNL     1     -11.894  13.483  66.893  1.00  0.00    -0.407 A  
HETATM   18  C   UNL     1     -12.464  14.329  65.972  1.00  0.00    -0.369 A  
HETATM   19  N   UNL     1     -12.847  13.612  64.875  1.00  0.00    -0.720 NA 
HETATM   20  N   UNL     1     -12.534  12.343  65.085  1.00  0.00    -0.601 NA 
ENDBRANCH  15  16
ENDBRANCH   8  15
TORSDOF 2
ENDMDL
MODEL       31
REMARK 921   NORMALIZED FREE ENERGY PREDICTED BY IDOCK:   -4.95 KCAL/MOL
REMARK 922        TOTAL FREE ENERGY PREDICTED BY IDOCK:   -5.63 KCAL/MOL
REMARK 923 INTER-LIGAND FREE ENERGY PREDICTED BY IDOCK:   -5.91 KCAL/MOL
REMARK 924 INTRA-LIGAND FREE ENERGY PREDICTED BY IDOCK:    0.29 KCAL/MOL
REMARK 927      BINDING AFFINITY PREDICTED BY RF-SCORE:    0.00 PKD
ROOT
HETATM    1  C   UNL     1     -10.132  18.182  66.765  1.00  0.00    -0.362 C  
HETATM    2  C   UNL     1     -10.427  19.652  67.077  1.00  0.00    -0.600 C  
HETATM    3  C   UNL     1     -10.195  19.268  68.536  1.00  0.00    -0.383 C  
HETATM    4  N   UNL     1     -10.106  17.935  68.234  1.00  0.00    -0.353 N  
HETATM    5  O   UNL     1      -9.911  19.853  69.557  1.00  0.00    -0.267 OA 
HETATM    6  C   UNL     1      -8.991  17.119  68.777  1.00  0.00    -0.233 C  
HETATM    7  C   UNL     1      -9.448  15.647  68.734  1.00  0.00    -0.214 C  
HETATM    8  C   UNL     1      -7.725  17.462  67.941  1.00  0.00    -0.199 C  
HETATM    9  S   UNL     1      -8.470  17.683  66.278  1.00  0.00    -0.155 S  
HETATM   10  O   UNL     1      -8.555  16.386  65.640  1.00  0.00    -0.316 OA 
HETATM   11  O   UNL     1      -8.749  14.685  69.006  1.00  0.00    -0.169 OA 
HETATM   12  O   UNL     1     -10.765  15.492  68.425  1.00  0.00    -0.247 OA 
HETATM   13  C   UNL     1      -6.609  16.407  67.845  1.00  0.00    -0.148 C  
HETATM   14  O   UNL     1      -7.809  18.792  65.613  1.00  0.00    -0.465 OA 
ENDROOT
BRANCH   8  15
HETATM   15  C   UNL     1      -7.057  18.820  68.316  1.00  0.00    -0.256 C  
BRANCH  15  16
HETATM   16  N   UNL     1      -6.321  18.887  69.558  1.00  0.00    -0.271 NA 
HETATM   17  C   UNL     1      -6.260  19.941  70.422  1.00  0.00    -0.295 A  
HETATM   18  C   UNL     1      -5.518  19.458  71.473  1.00  0.00    -0.319 A  
HETATM   19  N   UNL     1      -5.131  18.176  71.205  1.00  0.00    -0.427 NA 
HETATM   20  N   UNL     1      -5.610  17.845  70.016  1.00  0.00    -0.232 NA 
ENDBRANCH  15  16
ENDBRANCH   8  15
TORSDOF 2
ENDMDL
MODEL       32
REMARK 921   NORMALIZED FREE ENERGY PREDICTED BY IDOCK:   -4.92 KCAL/MOL
REMARK 922        TOTAL FREE ENERGY PREDICTED BY IDOCK:   -5.60 KCAL/MOL
REMARK 923 INTER-LIGAND FREE ENERGY PREDICTED BY IDOCK:   -5.43 KCAL/MOL
REMARK 924 INTRA-LIGAND FREE ENERGY PREDICTED BY IDOCK:   -0.17 KCAL/MOL
REMARK 927      BINDING AFFINITY PREDICTED BY RF-SCORE:    0.00 PKD
ROOT
HETATM    1  C   UNL     1     -11.935   6.663  71.759  1.00  0.00    -0.345 C  
HETATM    2  C   UNL     1     -13.411   7.017  71.556  1.00  0.00    -0.370 C  
HETATM    3  C   UNL     1     -13.020   8.415  72.032  1.00  0.00    -0.358 C  
HETATM    4  N   UNL     1     -11.753   8.013  72.361  1.00  0.00    -0.367 N  
HETATM    5  O   UNL     1     -13.480   9.529  71.934  1.00  0.00    -0.393 OA 
HETATM    6  C   UNL     1     -10.580   8.811  71.923  1.00  0.00    -0.354 C  
HETATM    7  C   UNL     1      -9.411   8.449  72.862  1.00  0.00    -0.205 C  
HETATM    8  C   UNL     1     -10.358   8.507  70.414  1.00  0.00    -0.202 C  
HETATM    9  S   UNL     1     -10.796   6.726  70.362  1.00  0.00    -0.281 S  
HETATM   10  O   UNL     1      -9.618   5.955  70.703  1.00  0.00    -0.168 OA 
HETATM   11  O   UNL     1      -8.262   8.835  72.736  1.00  0.00    -0.407 OA 
HETATM   12  O   UNL     1      -9.784   7.690  73.929  1.00  0.00    -0.260 OA 
HETATM   13  C   UNL     1      -8.942   8.684  69.837  1.00  0.00    -0.149 C  
HETATM   14  O   UNL     1     -11.524   6.458  69.134  1.00  0.00    -0.364 OA 
ENDROOT
BRANCH   8  15
HETATM   15  C   UNL     1     -11.349   9.239  69.459  1.00  0.00     0.103 C  
BRANCH  15  16
HETATM   16  N   UNL     1     -11.222  10.673  69.328  1.00  0.00    -0.253 NA 
HETATM   17  C   UNL     1     -10.559  11.355  68.351  1.00  0.00    -0.202 A  
HETATM   18  C   UNL     1     -10.824  12.673  68.635  1.00  0.00    -0.249 A  
HETATM   19  N   UNL     1     -11.586  12.749  69.765  1.00  0.00    -0.257 NA 
HETATM   20  N   UNL     1     -11.804  11.516  70.196  1.00  0.00    -0.348 NA 
ENDBRANCH  15  16
ENDBRANCH   8  15
TORSDOF 2
ENDMDL
MODEL       33
REMARK 921   NORMALIZED FREE ENERGY PREDICTED BY IDOCK:   -4.91 KCAL/MOL
REMARK 922        TOTAL FREE ENERGY PREDICTED BY IDOCK:   -5.58 KCAL/MOL
REMARK 923 INTER-LIGAND FREE ENERGY PREDICTED BY IDOCK:   -5.54 KCAL/MOL
REMARK 924 INTRA-LIGAND FREE ENERGY PREDICTED BY IDOCK:   -0.04 KCAL/MOL
REMARK 927      BINDING AFFINITY PREDICTED BY RF-SCORE:    0.00 PKD
ROOT
HETATM    1  C   UNL     1     -11.117  15.313  67.233  1.00  0.00    -0.325 C  
HETATM    2  C   UNL     1     -11.091  15.503  68.753  1.00  0.00    -0.291 C  
HETATM    3  C   UNL     1     -11.920  14.222  68.810  1.00  0.00    -0.311 C  
HETATM    4  N   UNL     1     -12.064  14.183  67.448  1.00  0.00    -0.392 N  
HETATM    5  O   UNL     1     -12.159  13.375  69.639  1.00  0.00    -0.312 OA 
HETATM    6  C   UNL     1     -11.812  12.922  66.706  1.00  0.00    -0.385 C  
HETATM    7  C   UNL     1     -12.556  13.034  65.360  1.00  0.00    -0.422 C  
HETATM    8  C   UNL     1     -10.269  12.745  66.617  1.00  0.00    -0.238 C  
HETATM    9  S   UNL     1      -9.742  14.490  66.407  1.00  0.00    -0.307 S  
HETATM   10  O   UNL     1      -9.799  14.818  64.998  1.00  0.00    -0.267 OA 
HETATM   11  O   UNL     1     -12.489  12.226  64.450  1.00  0.00    -0.439 OA 
HETATM   12  O   UNL     1     -13.385  14.111  65.283  1.00  0.00    -0.715 OA 
HETATM   13  C   UNL     1      -9.699  11.914  65.454  1.00  0.00    -0.228 C  
HETATM   14  O   UNL     1      -8.524  14.706  67.167  1.00  0.00    -0.201 OA 
ENDROOT
BRANCH   8  15
HETATM   15  C   UNL     1      -9.605  12.232  67.930  1.00  0.00    -0.203 C  
BRANCH  15  16
HETATM   16  N   UNL     1      -8.613  11.186  67.818  1.00  0.00    -0.129 NA 
HETATM   17  C   UNL     1      -8.831   9.840  67.839  1.00  0.00    -0.122 A  
HETATM   18  C   UNL     1      -7.588   9.304  67.603  1.00  0.00    -0.088 A  
HETATM   19  N   UNL     1      -6.674  10.312  67.489  1.00  0.00    -0.071 NA 
HETATM   20  N   UNL     1      -7.311  11.462  67.647  1.00  0.00    -0.097 NA 
ENDBRANCH  15  16
ENDBRANCH   8  15
TORSDOF 2
ENDMDL
MODEL       34
REMARK 921   NORMALIZED FREE ENERGY PREDICTED BY IDOCK:   -4.86 KCAL/MOL
REMARK 922        TOTAL FREE ENERGY PREDICTED BY IDOCK:   -5.53 KCAL/MOL
REMARK 923 INTER-LIGAND FREE ENERGY PREDICTED BY IDOCK:   -5.66 KCAL/MOL
REMARK 924 INTRA-LIGAND FREE ENERGY PREDICTED BY IDOCK:    0.13 KCAL/MOL
REMARK 927      BINDING AFFINITY PREDICTED BY RF-SCORE:    0.00 PKD
ROOT
HETATM    1  C   UNL     1     -10.052  13.374  65.038  1.00  0.00    -0.239 C  
HETATM    2  C   UNL     1     -11.226  14.328  64.804  1.00  0.00    -0.387 C  
HETATM    3  C   UNL     1     -12.100  13.077  64.847  1.00  0.00    -0.413 C  
HETATM    4  N   UNL     1     -11.012  12.245  64.885  1.00  0.00    -0.293 N  
HETATM    5  O   UNL     1     -13.268  12.836  65.052  1.00  0.00    -0.768 OA 
HETATM    6  C   UNL     1     -10.947  11.145  65.879  1.00  0.00    -0.103 C  
HETATM    7  C   UNL     1      -9.943  10.107  65.338  1.00  0.00    -0.307 C  
HETATM    8  C   UNL     1     -10.588  11.787  67.249  1.00  0.00    -0.224 C  
HETATM    9  S   UNL     1      -9.432  13.106  66.709  1.00  0.00    -0.252 S  
HETATM   10  O   UNL     1      -8.103  12.537  66.614  1.00  0.00    -0.024 OA 
HETATM   11  O   UNL     1      -9.559   9.119  65.940  1.00  0.00    -0.253 OA 
HETATM   12  O   UNL     1      -9.550  10.345  64.056  1.00  0.00    -0.277 OA 
HETATM   13  C   UNL     1      -9.883  10.912  68.300  1.00  0.00    -0.179 C  
HETATM   14  O   UNL     1      -9.671  14.294  67.509  1.00  0.00    -0.217 OA 
ENDROOT
BRANCH   8  15
HETATM   15  C   UNL     1     -11.781  12.500  67.956  1.00  0.00    -0.355 C  
BRANCH  15  16
HETATM   16  N   UNL     1     -12.122  12.074  69.294  1.00  0.00    -0.239 NA 
HETATM   17  C   UNL     1     -12.099  12.829  70.429  1.00  0.00    -0.302 A  
HETATM   18  C   UNL     1     -12.596  11.985  71.393  1.00  0.00    -0.225 A  
HETATM   19  N   UNL     1     -12.862  10.767  70.836  1.00  0.00    -0.360 NA 
HETATM   20  N   UNL     1     -12.544  10.826  69.552  1.00  0.00    -0.239 NA 
ENDBRANCH  15  16
ENDBRANCH   8  15
TORSDOF 2
ENDMDL
MODEL       35
REMARK 921   NORMALIZED FREE ENERGY PREDICTED BY IDOCK:   -4.84 KCAL/MOL
REMARK 922        TOTAL FREE ENERGY PREDICTED BY IDOCK:   -5.51 KCAL/MOL
REMARK 923 INTER-LIGAND FREE ENERGY PREDICTED BY IDOCK:   -5.23 KCAL/MOL
REMARK 924 INTRA-LIGAND FREE ENERGY PREDICTED BY IDOCK:   -0.28 KCAL/MOL
REMARK 927      BINDING AFFINITY PREDICTED BY RF-SCORE:    0.00 PKD
ROOT
HETATM    1  C   UNL     1     -12.111  12.607  65.689  1.00  0.00    -0.443 C  
HETATM    2  C   UNL     1     -12.670  14.024  65.532  1.00  0.00    -0.517 C  
HETATM    3  C   UNL     1     -12.226  14.233  66.978  1.00  0.00    -0.303 C  
HETATM    4  N   UNL     1     -11.895  12.913  67.130  1.00  0.00    -0.373 N  
HETATM    5  O   UNL     1     -11.972  15.183  67.683  1.00  0.00    -0.236 OA 
HETATM    6  C   UNL     1     -10.589  12.535  67.728  1.00  0.00    -0.219 C  
HETATM    7  C   UNL     1     -10.735  11.094  68.257  1.00  0.00    -0.196 C  
HETATM    8  C   UNL     1      -9.506  12.751  66.633  1.00  0.00    -0.249 C  
HETATM    9  S   UNL     1     -10.435  12.236  65.136  1.00  0.00    -0.296 S  
HETATM   10  O   UNL     1     -10.312  10.801  64.993  1.00  0.00    -0.302 OA 
HETATM   11  O   UNL     1      -9.831  10.419  68.719  1.00  0.00    -0.168 OA 
HETATM   12  O   UNL     1     -12.016  10.632  68.235  1.00  0.00    -0.462 OA 
HETATM   13  C   UNL     1      -8.211  11.924  66.718  1.00  0.00    -0.129 C  
HETATM   14  O   UNL     1     -10.082  13.121  64.039  1.00  0.00    -0.356 OA 
ENDROOT
BRANCH   8  15
HETATM   15  C   UNL     1      -9.099  14.240  66.416  1.00  0.00    -0.141 C  
BRANCH  15  16
HETATM   16  N   UNL     1      -8.258  14.859  67.416  1.00  0.00    -0.182 NA 
HETATM   17  C   UNL     1      -7.018  15.396  67.230  1.00  0.00    -0.145 A  
HETATM   18  C   UNL     1      -6.705  15.929  68.458  1.00  0.00    -0.123 A  
HETATM   19  N   UNL     1      -7.721  15.673  69.335  1.00  0.00    -0.223 NA 
HETATM   20  N   UNL     1      -8.657  14.994  68.690  1.00  0.00    -0.166 NA 
ENDBRANCH  15  16
ENDBRANCH   8  15
TORSDOF 2
ENDMDL
MODEL       36
REMARK 921   NORMALIZED FREE ENERGY PREDICTED BY IDOCK:   -4.84 KCAL/MOL
REMARK 922        TOTAL FREE ENERGY PREDICTED BY IDOCK:   -5.51 KCAL/MOL
REMARK 923 INTER-LIGAND FREE ENERGY PREDICTED BY IDOCK:   -5.21 KCAL/MOL
REMARK 924 INTRA-LIGAND FREE ENERGY PREDICTED BY IDOCK:   -0.30 KCAL/MOL
REMARK 927      BINDING AFFINITY PREDICTED BY RF-SCORE:    0.00 PKD
ROOT
HETATM    1  C   UNL     1      -9.680   8.362  69.570  1.00  0.00    -0.177 C  
HETATM    2  C   UNL     1     -11.097   8.205  70.130  1.00  0.00    -0.187 C  
HETATM    3  C   UNL     1     -11.016   9.699  70.435  1.00  0.00    -0.299 C  
HETATM    4  N   UNL     1      -9.694   9.761  70.084  1.00  0.00    -0.254 N  
HETATM    5  O   UNL     1     -11.808  10.592  70.636  1.00  0.00    -0.305 OA 
HETATM    6  C   UNL     1      -9.211  10.833  69.178  1.00  0.00    -0.116 C  
HETATM    7  C   UNL     1      -7.692  10.970  69.410  1.00  0.00    -0.020 C  
HETATM    8  C   UNL     1      -9.645  10.443  67.737  1.00  0.00    -0.152 C  
HETATM    9  S   UNL     1      -9.435   8.621  67.803  1.00  0.00    -0.145 S  
HETATM   10  O   UNL     1      -8.058   8.308  67.486  1.00  0.00    -0.118 OA 
HETATM   11  O   UNL     1      -6.943  11.683  68.764  1.00  0.00    -0.084 OA 
HETATM   12  O   UNL     1      -7.237  10.260  70.479  1.00  0.00    -0.297 OA 
HETATM   13  C   UNL     1      -8.825  10.992  66.556  1.00  0.00    -0.173 C  
HETATM   14  O   UNL     1     -10.522   7.998  67.069  1.00  0.00    -0.316 OA 
ENDROOT
BRANCH   8  15
HETATM   15  C   UNL     1     -11.150  10.709  67.425  1.00  0.00    -0.272 C  
BRANCH  15  16
HETATM   16  N   UNL     1     -11.551  12.072  67.159  1.00  0.00    -0.493 NA 
HETATM   17  C   UNL     1     -11.439  13.142  67.997  1.00  0.00    -0.311 A  
HETATM   18  C   UNL     1     -11.871  14.200  67.235  1.00  0.00    -0.419 A  
HETATM   19  N   UNL     1     -12.258  13.747  66.007  1.00  0.00    -0.438 NA 
HETATM   20  N   UNL     1     -12.080  12.435  65.980  1.00  0.00    -0.638 NA 
ENDBRANCH  15  16
ENDBRANCH   8  15
TORSDOF 2
ENDMDL
MODEL       37
REMARK 921   NORMALIZED FREE ENERGY PREDICTED BY IDOCK:   -4.84 KCAL/MOL
REMARK 922        TOTAL FREE ENERGY PREDICTED BY IDOCK:   -5.50 KCAL/MOL
REMARK 923 INTER-LIGAND FREE ENERGY PREDICTED BY IDOCK:   -5.74 KCAL/MOL
REMARK 924 INTRA-LIGAND FREE ENERGY PREDICTED BY IDOCK:    0.23 KCAL/MOL
REMARK 927      BINDING AFFINITY PREDICTED BY RF-SCORE:    0.00 PKD
ROOT
HETATM    1  C   UNL     1      -8.789  16.052  68.005  1.00  0.00    -0.175 C  
HETATM    2  C   UNL     1      -7.456  15.562  67.432  1.00  0.00    -0.235 C  
HETATM    3  C   UNL     1      -7.859  14.193  67.975  1.00  0.00    -0.146 C  
HETATM    4  N   UNL     1      -8.956  14.704  68.618  1.00  0.00    -0.183 N  
HETATM    5  O   UNL     1      -7.557  13.043  67.751  1.00  0.00    -0.122 OA 
HETATM    6  C   UNL     1     -10.277  14.042  68.480  1.00  0.00    -0.237 C  
HETATM    7  C   UNL     1     -11.130  14.482  69.687  1.00  0.00    -0.228 C  
HETATM    8  C   UNL     1     -10.835  14.423  67.079  1.00  0.00    -0.297 C  
HETATM    9  S   UNL     1     -10.240  16.154  66.940  1.00  0.00    -0.287 S  
HETATM   10  O   UNL     1     -11.208  17.022  67.576  1.00  0.00    -0.090 OA 
HETATM   11  O   UNL     1     -12.308  14.216  69.850  1.00  0.00    -0.336 OA 
HETATM   12  O   UNL     1     -10.425  15.160  70.635  1.00  0.00    -0.155 OA 
HETATM   13  C   UNL     1     -12.361  14.408  66.875  1.00  0.00    -0.165 C  
HETATM   14  O   UNL     1      -9.818  16.395  65.571  1.00  0.00    -0.522 OA 
ENDROOT
BRANCH   8  15
HETATM   15  C   UNL     1     -10.196  13.634  65.897  1.00  0.00    -0.311 C  
BRANCH  15  16
HETATM   16  N   UNL     1     -11.072  13.174  64.843  1.00  0.00    -0.303 NA 
HETATM   17  C   UNL     1     -11.285  11.884  64.454  1.00  0.00    -0.336 A  
HETATM   18  C   UNL     1     -12.264  11.989  63.495  1.00  0.00    -0.547 A  
HETATM   19  N   UNL     1     -12.578  13.305  63.311  1.00  0.00    -0.664 NA 
HETATM   20  N   UNL     1     -11.823  14.025  64.126  1.00  0.00    -0.397 NA 
ENDBRANCH  15  16
ENDBRANCH   8  15
TORSDOF 2
ENDMDL
MODEL       38
REMARK 921   NORMALIZED FREE ENERGY PREDICTED BY IDOCK:   -4.80 KCAL/MOL
REMARK 922        TOTAL FREE ENERGY PREDICTED BY IDOCK:   -5.46 KCAL/MOL
REMARK 923 INTER-LIGAND FREE ENERGY PREDICTED BY IDOCK:   -5.18 KCAL/MOL
REMARK 924 INTRA-LIGAND FREE ENERGY PREDICTED BY IDOCK:   -0.28 KCAL/MOL
REMARK 927      BINDING AFFINITY PREDICTED BY RF-SCORE:    0.00 PKD
ROOT
HETATM    1  C   UNL     1     -10.179   7.142  69.751  1.00  0.00    -0.208 C  
HETATM    2  C   UNL     1     -11.637   6.935  70.174  1.00  0.00    -0.340 C  
HETATM    3  C   UNL     1     -11.509   8.295  70.856  1.00  0.00    -0.274 C  
HETATM    4  N   UNL     1     -10.165   8.363  70.604  1.00  0.00    -0.192 N  
HETATM    5  O   UNL     1     -12.272   9.154  71.236  1.00  0.00    -0.307 OA 
HETATM    6  C   UNL     1      -9.575   9.598  70.030  1.00  0.00    -0.243 C  
HETATM    7  C   UNL     1      -8.070   9.580  70.370  1.00  0.00    -0.183 C  
HETATM    8  C   UNL     1      -9.928   9.613  68.516  1.00  0.00    -0.165 C  
HETATM    9  S   UNL     1      -9.805   7.824  68.125  1.00  0.00    -0.173 S  
HETATM   10  O   UNL     1      -8.425   7.519  67.812  1.00  0.00    -0.118 OA 
HETATM   11  O   UNL     1      -7.249  10.386  69.970  1.00  0.00    -0.154 OA 
HETATM   12  O   UNL     1      -7.721   8.596  71.245  1.00  0.00    -0.097 OA 
HETATM   13  C   UNL     1      -9.006  10.392  67.561  1.00  0.00    -0.138 C  
HETATM   14  O   UNL     1     -10.867   7.474  67.198  1.00  0.00    -0.324 OA 
ENDROOT
BRANCH   8  15
HETATM   15  C   UNL     1     -11.395  10.039  68.203  1.00  0.00    -0.028 C  
BRANCH  15  16
HETATM   16  N   UNL     1     -11.664  11.450  68.036  1.00  0.00    -0.556 NA 
HETATM   17  C   UNL     1     -11.676  12.407  69.007  1.00  0.00    -0.323 A  
HETATM   18  C   UNL     1     -11.888  13.574  68.314  1.00  0.00    -0.366 A  
HETATM   19  N   UNL     1     -12.032  13.292  66.985  1.00  0.00    -0.380 NA 
HETATM   20  N   UNL     1     -11.917  11.982  66.829  1.00  0.00    -0.610 NA 
ENDBRANCH  15  16
ENDBRANCH   8  15
TORSDOF 2
ENDMDL
MODEL       39
REMARK 921   NORMALIZED FREE ENERGY PREDICTED BY IDOCK:   -4.80 KCAL/MOL
REMARK 922        TOTAL FREE ENERGY PREDICTED BY IDOCK:   -5.46 KCAL/MOL
REMARK 923 INTER-LIGAND FREE ENERGY PREDICTED BY IDOCK:   -5.43 KCAL/MOL
REMARK 924 INTRA-LIGAND FREE ENERGY PREDICTED BY IDOCK:   -0.03 KCAL/MOL
REMARK 927      BINDING AFFINITY PREDICTED BY RF-SCORE:    0.00 PKD
ROOT
HETATM    1  C   UNL     1     -11.929   6.761  71.818  1.00  0.00    -0.339 C  
HETATM    2  C   UNL     1     -13.346   7.308  71.623  1.00  0.00    -0.421 C  
HETATM    3  C   UNL     1     -12.782   8.630  72.139  1.00  0.00    -0.392 C  
HETATM    4  N   UNL     1     -11.578   8.060  72.458  1.00  0.00    -0.390 N  
HETATM    5  O   UNL     1     -13.094   9.796  72.071  1.00  0.00    -0.414 OA 
HETATM    6  C   UNL     1     -10.310   8.712  72.044  1.00  0.00    -0.346 C  
HETATM    7  C   UNL     1      -9.203   8.176  72.975  1.00  0.00    -0.273 C  
HETATM    8  C   UNL     1     -10.122   8.423  70.528  1.00  0.00    -0.190 C  
HETATM    9  S   UNL     1     -10.785   6.715  70.426  1.00  0.00    -0.269 S  
HETATM   10  O   UNL     1      -9.718   5.790  70.748  1.00  0.00    -0.166 OA 
HETATM   11  O   UNL     1      -8.013   8.414  72.861  1.00  0.00    -0.264 OA 
HETATM   12  O   UNL     1      -9.676   7.443  74.020  1.00  0.00    -0.273 OA 
HETATM   13  C   UNL     1      -8.692   8.432  69.958  1.00  0.00    -0.133 C  
HETATM   14  O   UNL     1     -11.534   6.577  69.190  1.00  0.00    -0.306 OA 
ENDROOT
BRANCH   8  15
HETATM   15  C   UNL     1     -11.005   9.302  69.592  1.00  0.00    -0.175 C  
BRANCH  15  16
HETATM   16  N   UNL     1     -10.430   9.739  68.340  1.00  0.00    -0.208 NA 
HETATM   17  C   UNL     1     -10.374   9.040  67.171  1.00  0.00    -0.272 A  
HETATM   18  C   UNL     1      -9.823   9.931  66.282  1.00  0.00    -0.245 A  
HETATM   19  N   UNL     1      -9.536  11.098  66.931  1.00  0.00    -0.183 NA 
HETATM   20  N   UNL     1      -9.890  10.960  68.199  1.00  0.00    -0.170 NA 
ENDBRANCH  15  16
ENDBRANCH   8  15
TORSDOF 2
ENDMDL
MODEL       40
REMARK 921   NORMALIZED FREE ENERGY PREDICTED BY IDOCK:   -4.77 KCAL/MOL
REMARK 922        TOTAL FREE ENERGY PREDICTED BY IDOCK:   -5.43 KCAL/MOL
REMARK 923 INTER-LIGAND FREE ENERGY PREDICTED BY IDOCK:   -5.35 KCAL/MOL
REMARK 924 INTRA-LIGAND FREE ENERGY PREDICTED BY IDOCK:   -0.08 KCAL/MOL
REMARK 927      BINDING AFFINITY PREDICTED BY RF-SCORE:    0.00 PKD
ROOT
HETATM    1  C   UNL     1     -10.304   6.286  71.234  1.00  0.00    -0.212 C  
HETATM    2  C   UNL     1      -9.607   5.686  70.010  1.00  0.00    -0.214 C  
HETATM    3  C   UNL     1     -10.885   6.040  69.253  1.00  0.00    -0.358 C  
HETATM    4  N   UNL     1     -11.534   6.410  70.402  1.00  0.00    -0.388 N  
HETATM    5  O   UNL     1     -11.192   6.219  68.097  1.00  0.00    -0.327 OA 
HETATM    6  C   UNL     1     -12.279   7.693  70.458  1.00  0.00     0.116 C  
HETATM    7  C   UNL     1     -13.303   7.569  71.605  1.00  0.00    -0.358 C  
HETATM    8  C   UNL     1     -11.225   8.827  70.607  1.00  0.00    -0.257 C  
HETATM    9  S   UNL     1      -9.995   8.002  71.692  1.00  0.00    -0.196 S  
HETATM   10  O   UNL     1     -10.405   8.185  73.068  1.00  0.00    -0.321 OA 
HETATM   11  O   UNL     1     -14.018   8.469  72.009  1.00  0.00    -0.396 OA 
HETATM   12  O   UNL     1     -13.406   6.309  72.111  1.00  0.00     0.016 OA 
HETATM   13  C   UNL     1     -11.664  10.144  71.272  1.00  0.00    -0.426 C  
HETATM   14  O   UNL     1      -8.662   8.384  71.261  1.00  0.00    -0.134 OA 
ENDROOT
BRANCH   8  15
HETATM   15  C   UNL     1     -10.483   9.192  69.286  1.00  0.00    -0.221 C  
BRANCH  15  16
HETATM   16  N   UNL     1     -10.728  10.497  68.716  1.00  0.00    -0.202 NA 
HETATM   17  C   UNL     1      -9.852  11.540  68.638  1.00  0.00    -0.177 A  
HETATM   18  C   UNL     1     -10.542  12.495  67.932  1.00  0.00    -0.218 A  
HETATM   19  N   UNL     1     -11.794  12.030  67.644  1.00  0.00    -0.564 NA 
HETATM   20  N   UNL     1     -11.905  10.812  68.152  1.00  0.00    -0.514 NA 
ENDBRANCH  15  16
ENDBRANCH   8  15
TORSDOF 2
ENDMDL
MODEL       41
REMARK 921   NORMALIZED FREE ENERGY PREDICTED BY IDOCK:   -4.75 KCAL/MOL
REMARK 922        TOTAL FREE ENERGY PREDICTED BY IDOCK:   -5.40 KCAL/MOL
REMARK 923 INTER-LIGAND FREE ENERGY PREDICTED BY IDOCK:   -5.37 KCAL/MOL
REMARK 924 INTRA-LIGAND FREE ENERGY PREDICTED BY IDOCK:   -0.04 KCAL/MOL
REMARK 927      BINDING AFFINITY PREDICTED BY RF-SCORE:    0.00 PKD
ROOT
HETATM    1  C   UNL     1     -10.707  15.751  66.320  1.00  0.00    -0.282 C  
HETATM    2  C   UNL     1      -9.318  16.192  65.848  1.00  0.00    -0.316 C  
HETATM    3  C   UNL     1      -8.827  15.684  67.202  1.00  0.00    -0.208 C  
HETATM    4  N   UNL     1     -10.102  15.462  67.650  1.00  0.00    -0.234 N  
HETATM    5  O   UNL     1      -7.768  15.327  67.666  1.00  0.00    -0.136 OA 
HETATM    6  C   UNL     1     -10.451  14.175  68.301  1.00  0.00    -0.249 C  
HETATM    7  C   UNL     1     -11.715  14.427  69.149  1.00  0.00    -0.317 C  
HETATM    8  C   UNL     1     -10.590  13.114  67.173  1.00  0.00    -0.257 C  
HETATM    9  S   UNL     1     -11.345  14.133  65.846  1.00  0.00    -0.330 S  
HETATM   10  O   UNL     1     -12.781  14.139  66.035  1.00  0.00    -0.469 OA 
HETATM   11  O   UNL     1     -12.346  13.569  69.742  1.00  0.00    -0.281 OA 
HETATM   12  O   UNL     1     -12.051  15.742  69.250  1.00  0.00    -0.350 OA 
HETATM   13  C   UNL     1     -11.491  11.893  67.430  1.00  0.00    -0.393 C  
HETATM   14  O   UNL     1     -10.770  13.742  64.571  1.00  0.00    -0.408 OA 
ENDROOT
BRANCH   8  15
HETATM   15  C   UNL     1      -9.233  12.588  66.615  1.00  0.00    -0.223 C  
BRANCH  15  16
HETATM   16  N   UNL     1      -9.134  11.179  66.308  1.00  0.00    -0.188 NA 
HETATM   17  C   UNL     1      -9.574  10.548  65.182  1.00  0.00    -0.260 A  
HETATM   18  C   UNL     1      -9.153   9.251  65.348  1.00  0.00    -0.222 A  
HETATM   19  N   UNL     1      -8.522   9.130  66.553  1.00  0.00    -0.121 NA 
HETATM   20  N   UNL     1      -8.537  10.314  67.144  1.00  0.00    -0.126 NA 
ENDBRANCH  15  16
ENDBRANCH   8  15
TORSDOF 2
ENDMDL
MODEL       42
REMARK 921   NORMALIZED FREE ENERGY PREDICTED BY IDOCK:   -4.72 KCAL/MOL
REMARK 922        TOTAL FREE ENERGY PREDICTED BY IDOCK:   -5.37 KCAL/MOL
REMARK 923 INTER-LIGAND FREE ENERGY PREDICTED BY IDOCK:   -5.09 KCAL/MOL
REMARK 924 INTRA-LIGAND FREE ENERGY PREDICTED BY IDOCK:   -0.29 KCAL/MOL
REMARK 927      BINDING AFFINITY PREDICTED BY RF-SCORE:    0.00 PKD
ROOT
HETATM    1  C   UNL     1      -8.291   7.100  70.358  1.00  0.00    -0.128 C  
HETATM    2  C   UNL     1      -7.339   7.252  69.168  1.00  0.00    -0.087 C  
HETATM    3  C   UNL     1      -8.603   7.301  68.313  1.00  0.00    -0.123 C  
HETATM    4  N   UNL     1      -9.408   6.993  69.378  1.00  0.00    -0.147 N  
HETATM    5  O   UNL     1      -8.895   7.708  67.212  1.00  0.00    -0.119 OA 
HETATM    6  C   UNL     1     -10.634   7.788  69.640  1.00  0.00    -0.242 C  
HETATM    7  C   UNL     1     -11.565   6.909  70.501  1.00  0.00    -0.346 C  
HETATM    8  C   UNL     1     -10.181   9.129  70.283  1.00  0.00    -0.214 C  
HETATM    9  S   UNL     1      -8.775   8.551  71.312  1.00  0.00    -0.199 S  
HETATM   10  O   UNL     1      -9.296   8.102  72.586  1.00  0.00    -0.217 OA 
HETATM   11  O   UNL     1     -12.618   7.273  70.994  1.00  0.00    -0.328 OA 
HETATM   12  O   UNL     1     -11.143   5.620  70.619  1.00  0.00    -0.247 OA 
HETATM   13  C   UNL     1     -11.178   9.877  71.186  1.00  0.00    -0.404 C  
HETATM   14  O   UNL     1      -7.715   9.542  71.255  1.00  0.00    -0.322 OA 
ENDROOT
BRANCH   8  15
HETATM   15  C   UNL     1      -9.599  10.162  69.271  1.00  0.00    -0.225 C  
BRANCH  15  16
HETATM   16  N   UNL     1     -10.527  11.047  68.604  1.00  0.00    -0.183 NA 
HETATM   17  C   UNL     1     -10.659  12.392  68.790  1.00  0.00    -0.183 A  
HETATM   18  C   UNL     1     -11.600  12.759  67.858  1.00  0.00    -0.351 A  
HETATM   19  N   UNL     1     -12.024  11.652  67.182  1.00  0.00    -0.574 NA 
HETATM   20  N   UNL     1     -11.377  10.603  67.665  1.00  0.00    -0.448 NA 
ENDBRANCH  15  16
ENDBRANCH   8  15
TORSDOF 2
ENDMDL
MODEL       43
REMARK 921   NORMALIZED FREE ENERGY PREDICTED BY IDOCK:   -4.70 KCAL/MOL
REMARK 922        TOTAL FREE ENERGY PREDICTED BY IDOCK:   -5.36 KCAL/MOL
REMARK 923 INTER-LIGAND FREE ENERGY PREDICTED BY IDOCK:   -5.24 KCAL/MOL
REMARK 924 INTRA-LIGAND FREE ENERGY PREDICTED BY IDOCK:   -0.12 KCAL/MOL
REMARK 927      BINDING AFFINITY PREDICTED BY RF-SCORE:    0.00 PKD
ROOT
HETATM    1  C   UNL     1     -11.001  10.645  65.550  1.00  0.00     0.198 C  
HETATM    2  C   UNL     1      -9.696  10.189  64.890  1.00  0.00    -0.392 C  
HETATM    3  C   UNL     1      -9.872  11.400  63.976  1.00  0.00    -0.278 C  
HETATM    4  N   UNL     1     -11.117  11.674  64.478  1.00  0.00    -0.319 N  
HETATM    5  O   UNL     1      -9.153  12.074  63.275  1.00  0.00    -0.044 OA 
HETATM    6  C   UNL     1     -11.469  13.057  64.885  1.00  0.00    -0.316 C  
HETATM    7  C   UNL     1     -13.009  13.153  64.873  1.00  0.00    -0.142 C  
HETATM    8  C   UNL     1     -10.784  13.319  66.257  1.00  0.00    -0.286 C  
HETATM    9  S   UNL     1     -10.949  11.665  67.035  1.00  0.00    -0.302 S  
HETATM   10  O   UNL     1     -12.242  11.591  67.682  1.00  0.00    -0.513 OA 
HETATM   11  O   UNL     1     -13.657  14.112  65.253  1.00  0.00    -0.446 OA 
HETATM   12  O   UNL     1     -13.618  12.069  64.317  1.00  0.00    -0.527 OA 
HETATM   13  C   UNL     1     -11.408  14.369  67.193  1.00  0.00    -0.356 C  
HETATM   14  O   UNL     1      -9.734  11.374  67.777  1.00  0.00    -0.170 OA 
ENDROOT
BRANCH   8  15
HETATM   15  C   UNL     1      -9.257  13.620  66.165  1.00  0.00     0.016 C  
BRANCH  15  16
HETATM   16  N   UNL     1      -8.822  14.974  66.422  1.00  0.00    -0.255 NA 
HETATM   17  C   UNL     1      -8.116  15.422  67.499  1.00  0.00    -0.167 A  
HETATM   18  C   UNL     1      -7.883  16.745  67.211  1.00  0.00    -0.173 A  
HETATM   19  N   UNL     1      -8.471  17.059  66.019  1.00  0.00    -0.517 NA 
HETATM   20  N   UNL     1      -9.065  15.971  65.555  1.00  0.00    -0.250 NA 
ENDBRANCH  15  16
ENDBRANCH   8  15
TORSDOF 2
ENDMDL
MODEL       44
REMARK 921   NORMALIZED FREE ENERGY PREDICTED BY IDOCK:   -4.68 KCAL/MOL
REMARK 922        TOTAL FREE ENERGY PREDICTED BY IDOCK:   -5.33 KCAL/MOL
REMARK 923 INTER-LIGAND FREE ENERGY PREDICTED BY IDOCK:   -5.06 KCAL/MOL
REMARK 924 INTRA-LIGAND FREE ENERGY PREDICTED BY IDOCK:   -0.27 KCAL/MOL
REMARK 927      BINDING AFFINITY PREDICTED BY RF-SCORE:    0.00 PKD
ROOT
HETATM    1  C   UNL     1      -8.316  12.766  68.285  1.00  0.00    -0.161 C  
HETATM    2  C   UNL     1      -7.251  12.553  67.205  1.00  0.00    -0.114 C  
HETATM    3  C   UNL     1      -8.227  11.543  66.607  1.00  0.00    -0.156 C  
HETATM    4  N   UNL     1      -9.075  11.636  67.679  1.00  0.00    -0.169 N  
HETATM    5  O   UNL     1      -8.401  11.036  65.522  1.00  0.00    -0.132 OA 
HETATM    6  C   UNL     1     -10.532  11.821  67.464  1.00  0.00    -0.202 C  
HETATM    7  C   UNL     1     -11.241  11.350  68.751  1.00  0.00    -0.247 C  
HETATM    8  C   UNL     1     -10.751  13.310  67.074  1.00  0.00    -0.260 C  
HETATM    9  S   UNL     1      -9.491  14.124  68.132  1.00  0.00    -0.218 S  
HETATM   10  O   UNL     1     -10.076  14.366  69.435  1.00  0.00    -0.098 OA 
HETATM   11  O   UNL     1     -12.434  11.453  68.974  1.00  0.00    -0.364 OA 
HETATM   12  O   UNL     1     -10.413  10.720  69.630  1.00  0.00    -0.219 OA 
HETATM   13  C   UNL     1     -12.124  13.944  67.365  1.00  0.00    -0.380 C  
HETATM   14  O   UNL     1      -8.882  15.208  67.383  1.00  0.00    -0.171 OA 
ENDROOT
BRANCH   8  15
HETATM   15  C   UNL     1     -10.382  13.649  65.598  1.00  0.00    -0.300 C  
BRANCH  15  16
HETATM   16  N   UNL     1     -11.257  13.160  64.557  1.00  0.00    -0.337 NA 
HETATM   17  C   UNL     1     -11.398  11.870  64.138  1.00  0.00    -0.380 A  
HETATM   18  C   UNL     1     -12.408  11.936  63.209  1.00  0.00    -0.391 A  
HETATM   19  N   UNL     1     -12.811  13.234  63.069  1.00  0.00    -0.254 NA 
HETATM   20  N   UNL     1     -12.080  13.979  63.883  1.00  0.00    -0.507 NA 
ENDBRANCH  15  16
ENDBRANCH   8  15
TORSDOF 2
ENDMDL
MODEL       45
REMARK 921   NORMALIZED FREE ENERGY PREDICTED BY IDOCK:   -4.66 KCAL/MOL
REMARK 922        TOTAL FREE ENERGY PREDICTED BY IDOCK:   -5.30 KCAL/MOL
REMARK 923 INTER-LIGAND FREE ENERGY PREDICTED BY IDOCK:   -5.31 KCAL/MOL
REMARK 924 INTRA-LIGAND FREE ENERGY PREDICTED BY IDOCK:    0.00 KCAL/MOL
REMARK 927      BINDING AFFINITY PREDICTED BY RF-SCORE:    0.00 PKD
ROOT
HETATM    1  C   UNL     1     -10.155  11.191  66.410  1.00  0.00    -0.226 C  
HETATM    2  C   UNL     1      -9.156  10.588  67.401  1.00  0.00    -0.147 C  
HETATM    3  C   UNL     1      -8.399  11.907  67.263  1.00  0.00    -0.169 C  
HETATM    4  N   UNL     1      -9.219  12.340  66.255  1.00  0.00    -0.207 N  
HETATM    5  O   UNL     1      -7.584  12.517  67.916  1.00  0.00    -0.109 OA 
HETATM    6  C   UNL     1      -9.794  13.708  66.296  1.00  0.00    -0.301 C  
HETATM    7  C   UNL     1     -10.181  14.080  64.850  1.00  0.00    -0.348 C  
HETATM    8  C   UNL     1     -10.960  13.683  67.325  1.00  0.00    -0.287 C  
HETATM    9  S   UNL     1     -11.642  12.007  67.018  1.00  0.00    -0.274 S  
HETATM   10  O   UNL     1     -12.591  12.093  65.928  1.00  0.00    -0.268 OA 
HETATM   11  O   UNL     1     -10.777  15.090  64.518  1.00  0.00    -0.289 OA 
HETATM   12  O   UNL     1      -9.728  13.194  63.920  1.00  0.00    -0.018 OA 
HETATM   13  C   UNL     1     -12.092  14.713  67.168  1.00  0.00    -0.218 C  
HETATM   14  O   UNL     1     -12.029  11.420  68.289  1.00  0.00    -0.566 OA 
ENDROOT
BRANCH   8  15
HETATM   15  C   UNL     1     -10.502  13.713  68.815  1.00  0.00    -0.202 C  
BRANCH  15  16
HETATM   16  N   UNL     1     -11.337  14.420  69.761  1.00  0.00    -0.250 NA 
HETATM   17  C   UNL     1     -12.459  13.952  70.379  1.00  0.00    -0.334 A  
HETATM   18  C   UNL     1     -12.808  14.968  71.235  1.00  0.00    -0.367 A  
HETATM   19  N   UNL     1     -11.933  16.007  71.087  1.00  0.00    -0.422 NA 
HETATM   20  N   UNL     1     -11.049  15.668  70.162  1.00  0.00    -0.305 NA 
ENDBRANCH  15  16
ENDBRANCH   8  15
TORSDOF 2
ENDMDL
MODEL       46
REMARK 921   NORMALIZED FREE ENERGY PREDICTED BY IDOCK:   -4.65 KCAL/MOL
REMARK 922        TOTAL FREE ENERGY PREDICTED BY IDOCK:   -5.29 KCAL/MOL
REMARK 923 INTER-LIGAND FREE ENERGY PREDICTED BY IDOCK:   -5.08 KCAL/MOL
REMARK 924 INTRA-LIGAND FREE ENERGY PREDICTED BY IDOCK:   -0.21 KCAL/MOL
REMARK 927      BINDING AFFINITY PREDICTED BY RF-SCORE:    0.00 PKD
ROOT
HETATM    1  C   UNL     1      -9.467  16.049  66.048  1.00  0.00    -0.349 C  
HETATM    2  C   UNL     1     -10.589  15.613  65.100  1.00  0.00    -0.449 C  
HETATM    3  C   UNL     1     -10.401  14.224  65.705  1.00  0.00    -0.336 C  
HETATM    4  N   UNL     1      -9.293  14.614  66.409  1.00  0.00    -0.291 N  
HETATM    5  O   UNL     1     -11.066  13.217  65.800  1.00  0.00    -0.279 OA 
HETATM    6  C   UNL     1      -9.167  14.276  67.849  1.00  0.00    -0.194 C  
HETATM    7  C   UNL     1      -7.666  14.345  68.199  1.00  0.00    -0.131 C  
HETATM    8  C   UNL     1     -10.091  15.253  68.630  1.00  0.00    -0.222 C  
HETATM    9  S   UNL     1      -9.874  16.784  67.642  1.00  0.00    -0.268 S  
HETATM   10  O   UNL     1      -8.703  17.481  68.132  1.00  0.00    -0.246 OA 
HETATM   11  O   UNL     1      -7.199  14.227  69.318  1.00  0.00    -0.125 OA 
HETATM   12  O   UNL     1      -6.859  14.482  67.111  1.00  0.00    -0.205 OA 
HETATM   13  C   UNL     1      -9.749  15.561  70.099  1.00  0.00     0.100 C  
HETATM   14  O   UNL     1     -11.153  17.465  67.547  1.00  0.00    -0.179 OA 
ENDROOT
BRANCH   8  15
HETATM   15  C   UNL     1     -11.606  14.891  68.568  1.00  0.00    -0.323 C  
BRANCH  15  16
HETATM   16  N   UNL     1     -12.169  14.156  69.678  1.00  0.00    -0.338 NA 
HETATM   17  C   UNL     1     -11.953  12.847  69.993  1.00  0.00    -0.309 A  
HETATM   18  C   UNL     1     -12.636  12.677  71.173  1.00  0.00    -0.258 A  
HETATM   19  N   UNL     1     -13.259  13.845  71.508  1.00  0.00    -0.351 NA 
HETATM   20  N   UNL     1     -12.985  14.739  70.571  1.00  0.00    -0.327 NA 
ENDBRANCH  15  16
ENDBRANCH   8  15
TORSDOF 2
ENDMDL
MODEL       47
REMARK 921   NORMALIZED FREE ENERGY PREDICTED BY IDOCK:   -4.65 KCAL/MOL
REMARK 922        TOTAL FREE ENERGY PREDICTED BY IDOCK:   -5.29 KCAL/MOL
REMARK 923 INTER-LIGAND FREE ENERGY PREDICTED BY IDOCK:   -5.01 KCAL/MOL
REMARK 924 INTRA-LIGAND FREE ENERGY PREDICTED BY IDOCK:   -0.28 KCAL/MOL
REMARK 927      BINDING AFFINITY PREDICTED BY RF-SCORE:    0.00 PKD
ROOT
HETATM    1  C   UNL     1      -9.717  16.884  67.753  1.00  0.00    -0.250 C  
HETATM    2  C   UNL     1     -10.332  17.149  69.131  1.00  0.00    -0.297 C  
HETATM    3  C   UNL     1     -11.508  16.308  68.638  1.00  0.00    -0.288 C  
HETATM    4  N   UNL     1     -11.003  16.238  67.367  1.00  0.00    -0.236 N  
HETATM    5  O   UNL     1     -12.407  15.682  69.152  1.00  0.00    -0.223 OA 
HETATM    6  C   UNL     1     -10.935  14.934  66.661  1.00  0.00    -0.325 C  
HETATM    7  C   UNL     1     -10.861  15.241  65.152  1.00  0.00    -0.426 C  
HETATM    8  C   UNL     1      -9.727  14.155  67.256  1.00  0.00    -0.236 C  
HETATM    9  S   UNL     1      -8.546  15.531  67.538  1.00  0.00    -0.179 S  
HETATM   10  O   UNL     1      -7.810  15.760  66.311  1.00  0.00    -0.071 OA 
HETATM   11  O   UNL     1     -10.690  14.414  64.273  1.00  0.00    -0.169 OA 
HETATM   12  O   UNL     1     -11.078  16.551  64.850  1.00  0.00    -0.539 OA 
HETATM   13  C   UNL     1      -9.044  13.091  66.379  1.00  0.00    -0.073 C  
HETATM   14  O   UNL     1      -7.844  15.297  68.787  1.00  0.00    -0.133 OA 
ENDROOT
BRANCH   8  15
HETATM   15  C   UNL     1     -10.002  13.510  68.648  1.00  0.00    -0.145 C  
BRANCH  15  16
HETATM   16  N   UNL     1     -10.650  12.218  68.675  1.00  0.00    -0.232 NA 
HETATM   17  C   UNL     1     -10.071  11.012  68.937  1.00  0.00    -0.199 A  
HETATM   18  C   UNL     1     -11.127  10.133  68.931  1.00  0.00    -0.207 A  
HETATM   19  N   UNL     1     -12.277  10.809  68.636  1.00  0.00    -0.403 NA 
HETATM   20  N   UNL     1     -11.968  12.084  68.456  1.00  0.00    -0.382 NA 
ENDBRANCH  15  16
ENDBRANCH   8  15
TORSDOF 2
ENDMDL
MODEL       48
REMARK 921   NORMALIZED FREE ENERGY PREDICTED BY IDOCK:   -4.62 KCAL/MOL
REMARK 922        TOTAL FREE ENERGY PREDICTED BY IDOCK:   -5.27 KCAL/MOL
REMARK 923 INTER-LIGAND FREE ENERGY PREDICTED BY IDOCK:   -5.04 KCAL/MOL
REMARK 924 INTRA-LIGAND FREE ENERGY PREDICTED BY IDOCK:   -0.23 KCAL/MOL
REMARK 927      BINDING AFFINITY PREDICTED BY RF-SCORE:    0.00 PKD
ROOT
HETATM    1  C   UNL     1      -6.423  19.324  66.378  1.00  0.00    -0.187 C  
HETATM    2  C   UNL     1      -6.259  18.146  65.414  1.00  0.00    -0.205 C  
HETATM    3  C   UNL     1      -6.213  17.276  66.668  1.00  0.00    -0.213 C  
HETATM    4  N   UNL     1      -6.191  18.367  67.496  1.00  0.00    -0.180 N  
HETATM    5  O   UNL     1      -6.401  16.110  66.928  1.00  0.00    -0.301 OA 
HETATM    6  C   UNL     1      -7.104  18.437  68.665  1.00  0.00    -0.279 C  
HETATM    7  C   UNL     1      -6.489  19.445  69.658  1.00  0.00    -0.294 C  
HETATM    8  C   UNL     1      -8.516  18.795  68.120  1.00  0.00    -0.306 C  
HETATM    9  S   UNL     1      -8.071  19.946  66.762  1.00  0.00    -0.329 S  
HETATM   10  O   UNL     1      -7.934  21.277  67.318  1.00  0.00    -0.259 OA 
HETATM   11  O   UNL     1      -7.019  19.832  70.685  1.00  0.00     0.104 OA 
HETATM   12  O   UNL     1      -5.228  19.836  69.328  1.00  0.00    -0.184 OA 
HETATM   13  C   UNL     1      -9.502  19.504  69.066  1.00  0.00    -0.381 C  
HETATM   14  O   UNL     1      -8.953  19.704  65.635  1.00  0.00    -0.325 OA 
ENDROOT
BRANCH   8  15
HETATM   15  C   UNL     1      -9.272  17.601  67.464  1.00  0.00    -0.243 C  
BRANCH  15  16
HETATM   16  N   UNL     1      -9.978  16.689  68.337  1.00  0.00    -0.244 NA 
HETATM   17  C   UNL     1      -9.472  16.024  69.415  1.00  0.00    -0.226 A  
HETATM   18  C   UNL     1     -10.564  15.378  69.942  1.00  0.00    -0.303 A  
HETATM   19  N   UNL     1     -11.660  15.633  69.167  1.00  0.00    -0.361 NA 
HETATM   20  N   UNL     1     -11.283  16.419  68.171  1.00  0.00    -0.321 NA 
ENDBRANCH  15  16
ENDBRANCH   8  15
TORSDOF 2
ENDMDL
MODEL       49
REMARK 921   NORMALIZED FREE ENERGY PREDICTED BY IDOCK:   -4.62 KCAL/MOL
REMARK 922        TOTAL FREE ENERGY PREDICTED BY IDOCK:   -5.26 KCAL/MOL
REMARK 923 INTER-LIGAND FREE ENERGY PREDICTED BY IDOCK:   -4.99 KCAL/MOL
REMARK 924 INTRA-LIGAND FREE ENERGY PREDICTED BY IDOCK:   -0.28 KCAL/MOL
REMARK 927      BINDING AFFINITY PREDICTED BY RF-SCORE:    0.00 PKD
ROOT
HETATM    1  C   UNL     1      -8.514   6.236  72.342  1.00  0.00    -0.114 C  
HETATM    2  C   UNL     1      -7.654   7.332  72.978  1.00  0.00    -0.090 C  
HETATM    3  C   UNL     1      -7.941   8.131  71.709  1.00  0.00    -0.121 C  
HETATM    4  N   UNL     1      -8.557   7.066  71.106  1.00  0.00    -0.132 N  
HETATM    5  O   UNL     1      -7.921   9.298  71.390  1.00  0.00    -0.335 OA 
HETATM    6  C   UNL     1      -9.872   7.244  70.441  1.00  0.00    -0.183 C  
HETATM    7  C   UNL     1     -10.028   6.086  69.434  1.00  0.00    -0.174 C  
HETATM    8  C   UNL     1     -10.946   7.317  71.563  1.00  0.00    -0.233 C  
HETATM    9  S   UNL     1     -10.262   6.109  72.762  1.00  0.00    -0.192 S  
HETATM   10  O   UNL     1     -10.722   4.787  72.392  1.00  0.00    -0.204 OA 
HETATM   11  O   UNL     1     -11.031   5.851  68.782  1.00  0.00    -0.300 OA 
HETATM   12  O   UNL     1      -8.893   5.353  69.265  1.00  0.00    -0.100 OA 
HETATM   13  C   UNL     1     -12.389   6.907  71.217  1.00  0.00    -0.422 C  
HETATM   14  O   UNL     1     -10.473   6.614  74.107  1.00  0.00    -0.353 OA 
ENDROOT
BRANCH   8  15
HETATM   15  C   UNL     1     -11.013   8.690  72.299  1.00  0.00    -0.322 C  
BRANCH  15  16
HETATM   16  N   UNL     1     -11.565   9.814  71.579  1.00  0.00    -0.379 NA 
HETATM   17  C   UNL     1     -11.092  10.366  70.425  1.00  0.00    -0.296 A  
HETATM   18  C   UNL     1     -12.022  11.329  70.117  1.00  0.00    -0.369 A  
HETATM   19  N   UNL     1     -12.984  11.357  71.086  1.00  0.00    -0.316 NA 
HETATM   20  N   UNL     1     -12.680  10.439  71.991  1.00  0.00    -0.350 NA 
ENDBRANCH  15  16
ENDBRANCH   8  15
TORSDOF 2
ENDMDL
MODEL       50
REMARK 921   NORMALIZED FREE ENERGY PREDICTED BY IDOCK:   -4.57 KCAL/MOL
REMARK 922        TOTAL FREE ENERGY PREDICTED BY IDOCK:   -5.21 KCAL/MOL
REMARK 923 INTER-LIGAND FREE ENERGY PREDICTED BY IDOCK:   -4.93 KCAL/MOL
REMARK 924 INTRA-LIGAND FREE ENERGY PREDICTED BY IDOCK:   -0.28 KCAL/MOL
REMARK 927      BINDING AFFINITY PREDICTED BY RF-SCORE:    0.00 PKD
ROOT
HETATM    1  C   UNL     1      -8.878  17.038  68.368  1.00  0.00    -0.247 C  
HETATM    2  C   UNL     1      -7.395  16.661  68.304  1.00  0.00    -0.179 C  
HETATM    3  C   UNL     1      -7.797  15.416  69.092  1.00  0.00    -0.212 C  
HETATM    4  N   UNL     1      -9.077  15.871  69.273  1.00  0.00    -0.253 N  
HETATM    5  O   UNL     1      -7.331  14.316  69.280  1.00  0.00    -0.118 OA 
HETATM    6  C   UNL     1     -10.231  14.978  69.003  1.00  0.00    -0.242 C  
HETATM    7  C   UNL     1     -11.432  15.543  69.789  1.00  0.00    -0.331 C  
HETATM    8  C   UNL     1     -10.403  14.907  67.459  1.00  0.00    -0.239 C  
HETATM    9  S   UNL     1      -9.969  16.628  66.993  1.00  0.00    -0.279 S  
HETATM   10  O   UNL     1     -11.159  17.445  67.100  1.00  0.00    -0.043 OA 
HETATM   11  O   UNL     1     -12.575  15.126  69.723  1.00  0.00    -0.226 OA 
HETATM   12  O   UNL     1     -11.098  16.541  70.653  1.00  0.00    -0.289 OA 
HETATM   13  C   UNL     1     -11.798  14.580  66.896  1.00  0.00    -0.399 C  
HETATM   14  O   UNL     1      -9.201  16.599  65.760  1.00  0.00    -0.502 OA 
ENDROOT
BRANCH   8  15
HETATM   15  C   UNL     1      -9.378  13.977  66.741  1.00  0.00    -0.277 C  
BRANCH  15  16
HETATM   16  N   UNL     1      -9.708  12.574  66.626  1.00  0.00    -0.236 NA 
HETATM   17  C   UNL     1     -10.067  11.903  65.494  1.00  0.00    -0.245 A  
HETATM   18  C   UNL     1     -10.177  10.598  65.909  1.00  0.00    -0.251 A  
HETATM   19  N   UNL     1      -9.925  10.526  67.249  1.00  0.00    -0.179 NA 
HETATM   20  N   UNL     1      -9.663  11.749  67.684  1.00  0.00    -0.179 NA 
ENDBRANCH  15  16
ENDBRANCH   8  15
TORSDOF 2
ENDMDL
MODEL       51
REMARK 921   NORMALIZED FREE ENERGY PREDICTED BY IDOCK:   -4.57 KCAL/MOL
REMARK 922        TOTAL FREE ENERGY PREDICTED BY IDOCK:   -5.20 KCAL/MOL
REMARK 923 INTER-LIGAND FREE ENERGY PREDICTED BY IDOCK:   -4.98 KCAL/MOL
REMARK 924 INTRA-LIGAND FREE ENERGY PREDICTED BY IDOCK:   -0.22 KCAL/MOL
REMARK 927      BINDING AFFINITY PREDICTED BY RF-SCORE:    0.00 PKD
ROOT
HETATM    1  C   UNL     1      -8.628   5.445  73.015  1.00  0.00    -0.122 C  
HETATM    2  C   UNL     1      -8.389   6.203  74.325  1.00  0.00    -0.116 C  
HETATM    3  C   UNL     1      -8.224   7.439  73.443  1.00  0.00    -0.119 C  
HETATM    4  N   UNL     1      -8.274   6.699  72.292  1.00  0.00    -0.105 N  
HETATM    5  O   UNL     1      -8.298   8.636  73.599  1.00  0.00    -0.380 OA 
HETATM    6  C   UNL     1      -9.151   7.120  71.171  1.00  0.00    -0.152 C  
HETATM    7  C   UNL     1      -8.599   6.457  69.892  1.00  0.00    -0.138 C  
HETATM    8  C   UNL     1     -10.606   6.735  71.561  1.00  0.00    -0.219 C  
HETATM    9  S   UNL     1     -10.312   5.152  72.442  1.00  0.00    -0.209 S  
HETATM   10  O   UNL     1     -10.278   4.085  71.464  1.00  0.00    -0.135 OA 
HETATM   11  O   UNL     1      -9.128   6.496  68.795  1.00  0.00    -0.127 OA 
HETATM   12  O   UNL     1      -7.389   5.857  70.068  1.00  0.00    -0.070 OA 
HETATM   13  C   UNL     1     -11.621   6.489  70.430  1.00  0.00    -0.470 C  
HETATM   14  O   UNL     1     -11.205   5.080  73.585  1.00  0.00    -0.315 OA 
ENDROOT
BRANCH   8  15
HETATM   15  C   UNL     1     -11.273   7.701  72.587  1.00  0.00    -0.366 C  
BRANCH  15  16
HETATM   16  N   UNL     1     -11.901   8.898  72.075  1.00  0.00    -0.364 NA 
HETATM   17  C   UNL     1     -13.173   9.328  72.314  1.00  0.00    -0.460 A  
HETATM   18  C   UNL     1     -13.231  10.545  71.680  1.00  0.00    -0.391 A  
HETATM   19  N   UNL     1     -12.039  10.792  71.061  1.00  0.00    -0.352 NA 
HETATM   20  N   UNL     1     -11.238   9.763  71.290  1.00  0.00    -0.370 NA 
ENDBRANCH  15  16
ENDBRANCH   8  15
TORSDOF 2
ENDMDL
MODEL       52
REMARK 921   NORMALIZED FREE ENERGY PREDICTED BY IDOCK:   -4.56 KCAL/MOL
REMARK 922        TOTAL FREE ENERGY PREDICTED BY IDOCK:   -5.19 KCAL/MOL
REMARK 923 INTER-LIGAND FREE ENERGY PREDICTED BY IDOCK:   -4.90 KCAL/MOL
REMARK 924 INTRA-LIGAND FREE ENERGY PREDICTED BY IDOCK:   -0.29 KCAL/MOL
REMARK 927      BINDING AFFINITY PREDICTED BY RF-SCORE:    0.00 PKD
ROOT
HETATM    1  C   UNL     1      -7.390   9.363  65.428  1.00  0.00    -0.096 C  
HETATM    2  C   UNL     1      -7.135   9.974  64.047  1.00  0.00    -0.126 C  
HETATM    3  C   UNL     1      -8.630   9.776  63.813  1.00  0.00    -0.200 C  
HETATM    4  N   UNL     1      -8.784   9.082  64.984  1.00  0.00    -0.189 N  
HETATM    5  O   UNL     1      -9.466  10.244  63.073  1.00  0.00    -0.293 OA 
HETATM    6  C   UNL     1      -9.887   9.425  65.916  1.00  0.00    -0.291 C  
HETATM    7  C   UNL     1     -10.129   8.187  66.803  1.00  0.00    -0.295 C  
HETATM    8  C   UNL     1      -9.469  10.724  66.661  1.00  0.00    -0.175 C  
HETATM    9  S   UNL     1      -7.666  10.438  66.849  1.00  0.00    -0.114 S  
HETATM   10  O   UNL     1      -7.449   9.663  68.053  1.00  0.00    -0.082 OA 
HETATM   11  O   UNL     1     -10.892   8.140  67.753  1.00  0.00    -0.143 OA 
HETATM   12  O   UNL     1      -9.451   7.080  66.391  1.00  0.00    -0.175 OA 
HETATM   13  C   UNL     1     -10.073  10.992  68.051  1.00  0.00    -0.198 C  
HETATM   14  O   UNL     1      -6.969  11.696  66.645  1.00  0.00    -0.115 OA 
ENDROOT
BRANCH   8  15
HETATM   15  C   UNL     1      -9.630  12.027  65.821  1.00  0.00    -0.213 C  
BRANCH  15  16
HETATM   16  N   UNL     1     -10.968  12.534  65.615  1.00  0.00    -0.279 NA 
HETATM   17  C   UNL     1     -11.517  13.655  66.165  1.00  0.00    -0.325 A  
HETATM   18  C   UNL     1     -12.757  13.733  65.578  1.00  0.00    -0.488 A  
HETATM   19  N   UNL     1     -12.931  12.667  64.743  1.00  0.00    -0.867 NA 
HETATM   20  N   UNL     1     -11.836  11.924  64.792  1.00  0.00    -0.242 NA 
ENDBRANCH  15  16
ENDBRANCH   8  15
TORSDOF 2
ENDMDL
MODEL       53
REMARK 921   NORMALIZED FREE ENERGY PREDICTED BY IDOCK:   -4.52 KCAL/MOL
REMARK 922        TOTAL FREE ENERGY PREDICTED BY IDOCK:   -5.15 KCAL/MOL
REMARK 923 INTER-LIGAND FREE ENERGY PREDICTED BY IDOCK:   -5.13 KCAL/MOL
REMARK 924 INTRA-LIGAND FREE ENERGY PREDICTED BY IDOCK:   -0.02 KCAL/MOL
REMARK 927      BINDING AFFINITY PREDICTED BY RF-SCORE:    0.00 PKD
ROOT
HETATM    1  C   UNL     1     -11.811  13.580  65.628  1.00  0.00    -0.369 C  
HETATM    2  C   UNL     1     -12.096  12.544  64.537  1.00  0.00    -0.496 C  
HETATM    3  C   UNL     1     -10.615  12.675  64.189  1.00  0.00    -0.407 C  
HETATM    4  N   UNL     1     -10.441  13.719  65.059  1.00  0.00    -0.380 N  
HETATM    5  O   UNL     1      -9.792  12.002  63.611  1.00  0.00    -0.340 OA 
HETATM    6  C   UNL     1      -9.298  13.720  66.006  1.00  0.00    -0.015 C  
HETATM    7  C   UNL     1      -9.060  15.185  66.425  1.00  0.00    -0.296 C  
HETATM    8  C   UNL     1      -9.654  12.734  67.154  1.00  0.00    -0.219 C  
HETATM    9  S   UNL     1     -11.457  13.039  67.311  1.00  0.00    -0.352 S  
HETATM   10  O   UNL     1     -11.654  14.164  68.200  1.00  0.00    -0.293 OA 
HETATM   11  O   UNL     1      -8.267  15.554  67.274  1.00  0.00    -0.165 OA 
HETATM   12  O   UNL     1      -9.781  16.084  65.700  1.00  0.00    -0.374 OA 
HETATM   13  C   UNL     1      -8.996  12.948  68.528  1.00  0.00    -0.047 C  
HETATM   14  O   UNL     1     -12.125  11.774  67.561  1.00  0.00    -0.599 OA 
ENDROOT
BRANCH   8  15
HETATM   15  C   UNL     1      -9.486  11.229  66.783  1.00  0.00    -0.179 C  
BRANCH  15  16
HETATM   16  N   UNL     1      -9.000  10.334  67.809  1.00  0.00    -0.134 NA 
HETATM   17  C   UNL     1      -9.748   9.587  68.671  1.00  0.00    -0.155 A  
HETATM   18  C   UNL     1      -8.814   8.853  69.362  1.00  0.00    -0.143 A  
HETATM   19  N   UNL     1      -7.563   9.195  68.936  1.00  0.00    -0.075 NA 
HETATM   20  N   UNL     1      -7.688  10.123  68.000  1.00  0.00    -0.089 NA 
ENDBRANCH  15  16
ENDBRANCH   8  15
TORSDOF 2
ENDMDL
MODEL       54
REMARK 921   NORMALIZED FREE ENERGY PREDICTED BY IDOCK:   -4.52 KCAL/MOL
REMARK 922        TOTAL FREE ENERGY PREDICTED BY IDOCK:   -5.15 KCAL/MOL
REMARK 923 INTER-LIGAND FREE ENERGY PREDICTED BY IDOCK:   -4.83 KCAL/MOL
REMARK 924 INTRA-LIGAND FREE ENERGY PREDICTED BY IDOCK:   -0.31 KCAL/MOL
REMARK 927      BINDING AFFINITY PREDICTED BY RF-SCORE:    0.00 PKD
ROOT
HETATM    1  C   UNL     1     -10.960  14.538  66.162  1.00  0.00    -0.322 C  
HETATM    2  C   UNL     1      -9.692  15.272  65.715  1.00  0.00    -0.385 C  
HETATM    3  C   UNL     1      -9.118  14.860  67.069  1.00  0.00    -0.237 C  
HETATM    4  N   UNL     1     -10.321  14.364  67.496  1.00  0.00    -0.250 N  
HETATM    5  O   UNL     1      -8.013  14.729  67.543  1.00  0.00    -0.157 OA 
HETATM    6  C   UNL     1     -10.395  13.022  68.126  1.00  0.00    -0.240 C  
HETATM    7  C   UNL     1     -11.692  12.986  68.960  1.00  0.00    -0.329 C  
HETATM    8  C   UNL     1     -10.293  11.974  66.982  1.00  0.00    -0.211 C  
HETATM    9  S   UNL     1     -11.233  12.829  65.658  1.00  0.00    -0.313 S  
HETATM   10  O   UNL     1     -12.639  12.525  65.827  1.00  0.00    -0.569 OA 
HETATM   11  O   UNL     1     -12.132  12.004  69.533  1.00  0.00    -0.276 OA 
HETATM   12  O   UNL     1     -12.302  14.198  69.073  1.00  0.00    -0.294 OA 
HETATM   13  C   UNL     1     -10.914  10.585  67.211  1.00  0.00    -0.325 C  
HETATM   14  O   UNL     1     -10.573  12.589  64.387  1.00  0.00    -0.307 OA 
ENDROOT
BRANCH   8  15
HETATM   15  C   UNL     1      -8.848  11.758  66.437  1.00  0.00    -0.170 C  
BRANCH  15  16
HETATM   16  N   UNL     1      -7.971  10.884  67.183  1.00  0.00    -0.123 NA 
HETATM   17  C   UNL     1      -7.476  11.090  68.437  1.00  0.00    -0.100 A  
HETATM   18  C   UNL     1      -6.787   9.933  68.710  1.00  0.00    -0.054 A  
HETATM   19  N   UNL     1      -6.852   9.101  67.629  1.00  0.00    -0.076 NA 
HETATM   20  N   UNL     1      -7.561   9.705  66.689  1.00  0.00    -0.097 NA 
ENDBRANCH  15  16
ENDBRANCH   8  15
TORSDOF 2
ENDMDL
MODEL       55
REMARK 921   NORMALIZED FREE ENERGY PREDICTED BY IDOCK:   -4.52 KCAL/MOL
REMARK 922        TOTAL FREE ENERGY PREDICTED BY IDOCK:   -5.15 KCAL/MOL
REMARK 923 INTER-LIGAND FREE ENERGY PREDICTED BY IDOCK:   -5.14 KCAL/MOL
REMARK 924 INTRA-LIGAND FREE ENERGY PREDICTED BY IDOCK:   -0.00 KCAL/MOL
REMARK 927      BINDING AFFINITY PREDICTED BY RF-SCORE:    0.00 PKD
ROOT
HETATM    1  C   UNL     1     -11.074   9.405  71.602  1.00  0.00    -0.339 C  
HETATM    2  C   UNL     1     -11.690  10.127  70.400  1.00  0.00    -0.390 C  
HETATM    3  C   UNL     1     -10.530   9.539  69.601  1.00  0.00    -0.223 C  
HETATM    4  N   UNL     1      -9.921   9.052  70.727  1.00  0.00    -0.224 N  
HETATM    5  O   UNL     1     -10.304   9.307  68.435  1.00  0.00    -0.196 OA 
HETATM    6  C   UNL     1      -9.429   7.652  70.764  1.00  0.00    -0.162 C  
HETATM    7  C   UNL     1      -8.360   7.579  71.873  1.00  0.00    -0.107 C  
HETATM    8  C   UNL     1     -10.672   6.737  70.958  1.00  0.00    -0.231 C  
HETATM    9  S   UNL     1     -11.684   7.777  72.080  1.00  0.00    -0.336 S  
HETATM   10  O   UNL     1     -11.267   7.519  73.443  1.00  0.00    -0.296 OA 
HETATM   11  O   UNL     1      -7.812   6.560  72.256  1.00  0.00    -0.100 OA 
HETATM   12  O   UNL     1      -8.002   8.796  72.368  1.00  0.00    -0.362 OA 
HETATM   13  C   UNL     1     -10.465   5.360  71.613  1.00  0.00    -0.291 C  
HETATM   14  O   UNL     1     -13.080   7.654  71.700  1.00  0.00    -0.340 OA 
ENDROOT
BRANCH   8  15
HETATM   15  C   UNL     1     -11.516   6.520  69.666  1.00  0.00    -0.352 C  
BRANCH  15  16
HETATM   16  N   UNL     1     -10.852   5.950  68.515  1.00  0.00    -0.269 NA 
HETATM   17  C   UNL     1      -9.913   4.961  68.513  1.00  0.00    -0.115 A  
HETATM   18  C   UNL     1      -9.685   4.730  67.177  1.00  0.00    -0.184 A  
HETATM   19  N   UNL     1     -10.443   5.589  66.433  1.00  0.00    -0.249 NA 
HETATM   20  N   UNL     1     -11.137   6.349  67.265  1.00  0.00    -0.377 NA 
ENDBRANCH  15  16
ENDBRANCH   8  15
TORSDOF 2
ENDMDL
MODEL       56
REMARK 921   NORMALIZED FREE ENERGY PREDICTED BY IDOCK:   -4.51 KCAL/MOL
REMARK 922        TOTAL FREE ENERGY PREDICTED BY IDOCK:   -5.14 KCAL/MOL
REMARK 923 INTER-LIGAND FREE ENERGY PREDICTED BY IDOCK:   -5.17 KCAL/MOL
REMARK 924 INTRA-LIGAND FREE ENERGY PREDICTED BY IDOCK:    0.03 KCAL/MOL
REMARK 927      BINDING AFFINITY PREDICTED BY RF-SCORE:    0.00 PKD
ROOT
HETATM    1  C   UNL     1     -10.480  12.859  67.430  1.00  0.00    -0.233 C  
HETATM    2  C   UNL     1      -9.333  12.121  68.126  1.00  0.00    -0.204 C  
HETATM    3  C   UNL     1      -8.412  12.996  67.278  1.00  0.00    -0.199 C  
HETATM    4  N   UNL     1      -9.460  13.508  66.560  1.00  0.00    -0.271 N  
HETATM    5  O   UNL     1      -7.260  13.361  67.336  1.00  0.00    -0.163 OA 
HETATM    6  C   UNL     1      -9.571  14.972  66.342  1.00  0.00    -0.289 C  
HETATM    7  C   UNL     1     -10.471  15.177  65.106  1.00  0.00    -0.410 C  
HETATM    8  C   UNL     1     -10.088  15.594  67.670  1.00  0.00    -0.248 C  
HETATM    9  S   UNL     1     -11.246  14.284  68.227  1.00  0.00    -0.292 S  
HETATM   10  O   UNL     1     -12.532  14.515  67.603  1.00  0.00    -0.097 OA 
HETATM   11  O   UNL     1     -10.866  16.255  64.695  1.00  0.00    -0.687 OA 
HETATM   12  O   UNL     1     -10.749  14.025  64.437  1.00  0.00    -0.377 OA 
HETATM   13  C   UNL     1     -10.851  16.929  67.599  1.00  0.00    -0.244 C  
HETATM   14  O   UNL     1     -11.138  14.146  69.668  1.00  0.00    -0.227 OA 
ENDROOT
BRANCH   8  15
HETATM   15  C   UNL     1      -9.003  15.733  68.780  1.00  0.00    -0.214 C  
BRANCH  15  16
HETATM   16  N   UNL     1      -7.906  16.644  68.538  1.00  0.00    -0.206 NA 
HETATM   17  C   UNL     1      -6.592  16.323  68.365  1.00  0.00    -0.134 A  
HETATM   18  C   UNL     1      -5.997  17.528  68.078  1.00  0.00    -0.152 A  
HETATM   19  N   UNL     1      -6.934  18.519  68.123  1.00  0.00    -0.230 NA 
HETATM   20  N   UNL     1      -8.098  17.968  68.431  1.00  0.00    -0.291 NA 
ENDBRANCH  15  16
ENDBRANCH   8  15
TORSDOF 2
ENDMDL
MODEL       57
REMARK 921   NORMALIZED FREE ENERGY PREDICTED BY IDOCK:   -4.46 KCAL/MOL
REMARK 922        TOTAL FREE ENERGY PREDICTED BY IDOCK:   -5.08 KCAL/MOL
REMARK 923 INTER-LIGAND FREE ENERGY PREDICTED BY IDOCK:   -5.02 KCAL/MOL
REMARK 924 INTRA-LIGAND FREE ENERGY PREDICTED BY IDOCK:   -0.06 KCAL/MOL
REMARK 927      BINDING AFFINITY PREDICTED BY RF-SCORE:    0.00 PKD
ROOT
HETATM    1  C   UNL     1     -12.005  12.151  67.460  1.00  0.00    -0.105 C  
HETATM    2  C   UNL     1     -11.631  11.718  68.880  1.00  0.00    -0.370 C  
HETATM    3  C   UNL     1     -10.255  11.403  68.297  1.00  0.00    -0.193 C  
HETATM    4  N   UNL     1     -10.679  11.637  67.016  1.00  0.00    -0.240 N  
HETATM    5  O   UNL     1      -9.134  11.270  68.732  1.00  0.00    -0.174 OA 
HETATM    6  C   UNL     1      -9.875  12.495  66.109  1.00  0.00    -0.258 C  
HETATM    7  C   UNL     1     -10.281  12.130  64.666  1.00  0.00    -0.284 C  
HETATM    8  C   UNL     1     -10.126  13.969  66.533  1.00  0.00    -0.285 C  
HETATM    9  S   UNL     1     -11.901  13.889  66.994  1.00  0.00    -0.426 S  
HETATM   10  O   UNL     1     -12.693  14.085  65.798  1.00  0.00    -0.516 OA 
HETATM   11  O   UNL     1      -9.900  12.707  63.662  1.00  0.00    -0.310 OA 
HETATM   12  O   UNL     1     -11.075  11.027  64.585  1.00  0.00    -0.182 OA 
HETATM   13  C   UNL     1      -9.940  15.073  65.476  1.00  0.00    -0.390 C  
HETATM   14  O   UNL     1     -12.118  14.717  68.167  1.00  0.00    -0.273 OA 
ENDROOT
BRANCH   8  15
HETATM   15  C   UNL     1      -9.352  14.410  67.812  1.00  0.00    -0.200 C  
BRANCH  15  16
HETATM   16  N   UNL     1      -7.908  14.439  67.748  1.00  0.00    -0.144 NA 
HETATM   17  C   UNL     1      -7.057  13.380  67.866  1.00  0.00    -0.137 A  
HETATM   18  C   UNL     1      -5.818  13.929  67.638  1.00  0.00    -0.021 A  
HETATM   19  N   UNL     1      -5.949  15.272  67.433  1.00  0.00    -0.336 NA 
HETATM   20  N   UNL     1      -7.233  15.579  67.527  1.00  0.00    -0.176 NA 
ENDBRANCH  15  16
ENDBRANCH   8  15
TORSDOF 2
ENDMDL
MODEL       58
REMARK 921   NORMALIZED FREE ENERGY PREDICTED BY IDOCK:   -4.45 KCAL/MOL
REMARK 922        TOTAL FREE ENERGY PREDICTED BY IDOCK:   -5.07 KCAL/MOL
REMARK 923 INTER-LIGAND FREE ENERGY PREDICTED BY IDOCK:   -4.85 KCAL/MOL
REMARK 924 INTRA-LIGAND FREE ENERGY PREDICTED BY IDOCK:   -0.22 KCAL/MOL
REMARK 927      BINDING AFFINITY PREDICTED BY RF-SCORE:    0.00 PKD
ROOT
HETATM    1  C   UNL     1      -9.086  20.281  67.119  1.00  0.00    -0.378 C  
HETATM    2  C   UNL     1     -10.550  19.833  67.071  1.00  0.00    -0.586 C  
HETATM    3  C   UNL     1     -10.076  18.789  66.064  1.00  0.00    -0.317 C  
HETATM    4  N   UNL     1      -8.817  19.327  66.007  1.00  0.00    -0.222 N  
HETATM    5  O   UNL     1     -10.485  17.728  65.650  1.00  0.00    -0.613 OA 
HETATM    6  C   UNL     1      -7.625  18.451  66.124  1.00  0.00    -0.235 C  
HETATM    7  C   UNL     1      -6.441  19.214  65.495  1.00  0.00    -0.268 C  
HETATM    8  C   UNL     1      -7.473  18.082  67.627  1.00  0.00    -0.213 C  
HETATM    9  S   UNL     1      -7.998  19.656  68.413  1.00  0.00    -0.292 S  
HETATM   10  O   UNL     1      -6.847  20.530  68.499  1.00  0.00    -0.246 OA 
HETATM   11  O   UNL     1      -5.280  18.843  65.505  1.00  0.00    -0.143 OA 
HETATM   12  O   UNL     1      -6.811  20.347  64.837  1.00  0.00    -0.308 OA 
HETATM   13  C   UNL     1      -6.073  17.713  68.149  1.00  0.00    -0.163 C  
HETATM   14  O   UNL     1      -8.782  19.349  69.596  1.00  0.00     0.116 OA 
ENDROOT
BRANCH   8  15
HETATM   15  C   UNL     1      -8.462  16.984  68.122  1.00  0.00    -0.227 C  
BRANCH  15  16
HETATM   16  N   UNL     1      -8.000  15.614  68.125  1.00  0.00    -0.127 NA 
HETATM   17  C   UNL     1      -7.607  14.880  69.206  1.00  0.00    -0.170 A  
HETATM   18  C   UNL     1      -7.360  13.634  68.682  1.00  0.00    -0.113 A  
HETATM   19  N   UNL     1      -7.567  13.660  67.332  1.00  0.00    -0.159 NA 
HETATM   20  N   UNL     1      -7.936  14.887  66.998  1.00  0.00    -0.189 NA 
ENDBRANCH  15  16
ENDBRANCH   8  15
TORSDOF 2
ENDMDL
MODEL       59
REMARK 921   NORMALIZED FREE ENERGY PREDICTED BY IDOCK:   -4.45 KCAL/MOL
REMARK 922        TOTAL FREE ENERGY PREDICTED BY IDOCK:   -5.07 KCAL/MOL
REMARK 923 INTER-LIGAND FREE ENERGY PREDICTED BY IDOCK:   -5.06 KCAL/MOL
REMARK 924 INTRA-LIGAND FREE ENERGY PREDICTED BY IDOCK:   -0.01 KCAL/MOL
REMARK 927      BINDING AFFINITY PREDICTED BY RF-SCORE:    0.00 PKD
ROOT
HETATM    1  C   UNL     1     -12.149  14.877  68.758  1.00  0.00    -0.177 C  
HETATM    2  C   UNL     1     -12.144  14.023  70.030  1.00  0.00    -0.412 C  
HETATM    3  C   UNL     1     -11.671  12.888  69.125  1.00  0.00    -0.324 C  
HETATM    4  N   UNL     1     -11.852  13.635  67.992  1.00  0.00    -0.354 N  
HETATM    5  O   UNL     1     -11.093  11.836  69.277  1.00  0.00    -0.242 OA 
HETATM    6  C   UNL     1     -10.785  13.699  66.961  1.00  0.00    -0.278 C  
HETATM    7  C   UNL     1     -11.459  14.121  65.640  1.00  0.00    -0.325 C  
HETATM    8  C   UNL     1      -9.687  14.659  67.500  1.00  0.00    -0.210 C  
HETATM    9  S   UNL     1     -10.722  15.905  68.362  1.00  0.00    -0.296 S  
HETATM   10  O   UNL     1     -11.136  16.901  67.396  1.00  0.00    -0.146 OA 
HETATM   11  O   UNL     1     -10.873  14.375  64.601  1.00  0.00    -0.392 OA 
HETATM   12  O   UNL     1     -12.819  14.122  65.697  1.00  0.00    -0.529 OA 
HETATM   13  C   UNL     1      -8.789  15.383  66.481  1.00  0.00    -0.347 C  
HETATM   14  O   UNL     1     -10.055  16.299  69.590  1.00  0.00    -0.242 OA 
ENDROOT
BRANCH   8  15
HETATM   15  C   UNL     1      -8.756  14.028  68.580  1.00  0.00    -0.156 C  
BRANCH  15  16
HETATM   16  N   UNL     1      -7.356  14.388  68.556  1.00  0.00    -0.114 NA 
HETATM   17  C   UNL     1      -6.352  13.746  67.893  1.00  0.00    -0.157 A  
HETATM   18  C   UNL     1      -5.252  14.539  68.119  1.00  0.00    -0.118 A  
HETATM   19  N   UNL     1      -5.606  15.587  68.919  1.00  0.00    -0.101 NA 
HETATM   20  N   UNL     1      -6.894  15.471  69.201  1.00  0.00    -0.143 NA 
ENDBRANCH  15  16
ENDBRANCH   8  15
TORSDOF 2
ENDMDL
MODEL       60
REMARK 921   NORMALIZED FREE ENERGY PREDICTED BY IDOCK:   -4.40 KCAL/MOL
REMARK 922        TOTAL FREE ENERGY PREDICTED BY IDOCK:   -5.02 KCAL/MOL
REMARK 923 INTER-LIGAND FREE ENERGY PREDICTED BY IDOCK:   -4.98 KCAL/MOL
REMARK 924 INTRA-LIGAND FREE ENERGY PREDICTED BY IDOCK:   -0.03 KCAL/MOL
REMARK 927      BINDING AFFINITY PREDICTED BY RF-SCORE:    0.00 PKD
ROOT
HETATM    1  C   UNL     1     -10.213   6.761  71.952  1.00  0.00    -0.189 C  
HETATM    2  C   UNL     1      -9.986   7.705  73.136  1.00  0.00    -0.363 C  
HETATM    3  C   UNL     1      -8.707   8.118  72.412  1.00  0.00    -0.189 C  
HETATM    4  N   UNL     1      -8.859   7.143  71.462  1.00  0.00    -0.127 N  
HETATM    5  O   UNL     1      -7.963   9.071  72.433  1.00  0.00    -0.344 OA 
HETATM    6  C   UNL     1      -8.715   7.475  70.022  1.00  0.00    -0.140 C  
HETATM    7  C   UNL     1      -8.397   6.158  69.285  1.00  0.00    -0.116 C  
HETATM    8  C   UNL     1     -10.022   8.198  69.587  1.00  0.00    -0.193 C  
HETATM    9  S   UNL     1     -11.261   7.277  70.580  1.00  0.00    -0.279 S  
HETATM   10  O   UNL     1     -11.654   6.096  69.840  1.00  0.00    -0.404 OA 
HETATM   11  O   UNL     1      -8.315   6.031  68.076  1.00  0.00    -0.115 OA 
HETATM   12  O   UNL     1      -8.132   5.116  70.120  1.00  0.00    -0.080 OA 
HETATM   13  C   UNL     1     -10.430   8.132  68.105  1.00  0.00    -0.225 C  
HETATM   14  O   UNL     1     -12.262   8.213  71.062  1.00  0.00    -0.277 OA 
ENDROOT
BRANCH   8  15
HETATM   15  C   UNL     1     -10.110   9.689  70.033  1.00  0.00    -0.252 C  
BRANCH  15  16
HETATM   16  N   UNL     1     -10.569  10.655  69.061  1.00  0.00    -0.205 NA 
HETATM   17  C   UNL     1      -9.800  11.456  68.269  1.00  0.00    -0.200 A  
HETATM   18  C   UNL     1     -10.714  12.104  67.474  1.00  0.00    -0.232 A  
HETATM   19  N   UNL     1     -11.976  11.717  67.825  1.00  0.00    -0.623 NA 
HETATM   20  N   UNL     1     -11.876  10.845  68.817  1.00  0.00    -0.432 NA 
ENDBRANCH  15  16
ENDBRANCH   8  15
TORSDOF 2
ENDMDL
MODEL       61
REMARK 921   NORMALIZED FREE ENERGY PREDICTED BY IDOCK:   -4.39 KCAL/MOL
REMARK 922        TOTAL FREE ENERGY PREDICTED BY IDOCK:   -5.00 KCAL/MOL
REMARK 923 INTER-LIGAND FREE ENERGY PREDICTED BY IDOCK:   -4.84 KCAL/MOL
REMARK 924 INTRA-LIGAND FREE ENERGY PREDICTED BY IDOCK:   -0.16 KCAL/MOL
REMARK 927      BINDING AFFINITY PREDICTED BY RF-SCORE:    0.00 PKD
ROOT
HETATM    1  C   UNL     1      -8.543   5.430  70.402  1.00  0.00    -0.124 C  
HETATM    2  C   UNL     1      -8.778   5.966  68.987  1.00  0.00    -0.114 C  
HETATM    3  C   UNL     1     -10.263   5.783  69.290  1.00  0.00    -0.226 C  
HETATM    4  N   UNL     1     -10.005   5.151  70.477  1.00  0.00    -0.216 N  
HETATM    5  O   UNL     1     -11.303   6.227  68.858  1.00  0.00    -0.373 OA 
HETATM    6  C   UNL     1     -10.721   5.558  71.712  1.00  0.00    -0.226 C  
HETATM    7  C   UNL     1     -10.642   4.371  72.693  1.00  0.00    -0.162 C  
HETATM    8  C   UNL     1     -10.074   6.886  72.199  1.00  0.00    -0.181 C  
HETATM    9  S   UNL     1      -8.316   6.579  71.772  1.00  0.00    -0.115 S  
HETATM   10  O   UNL     1      -7.698   5.861  72.868  1.00  0.00    -0.099 OA 
HETATM   11  O   UNL     1     -11.033   4.384  73.847  1.00  0.00    -0.266 OA 
HETATM   12  O   UNL     1     -10.147   3.233  72.133  1.00  0.00    -0.165 OA 
HETATM   13  C   UNL     1     -10.165   7.233  73.696  1.00  0.00    -0.393 C  
HETATM   14  O   UNL     1      -7.733   7.812  71.275  1.00  0.00    -0.081 OA 
ENDROOT
BRANCH   8  15
HETATM   15  C   UNL     1     -10.515   8.148  71.397  1.00  0.00    -0.212 C  
BRANCH  15  16
HETATM   16  N   UNL     1     -11.860   8.639  71.601  1.00  0.00    -0.302 NA 
HETATM   17  C   UNL     1     -13.005   7.901  71.661  1.00  0.00    -0.334 A  
HETATM   18  C   UNL     1     -13.975   8.827  71.962  1.00  0.00    -0.451 A  
HETATM   19  N   UNL     1     -13.409  10.068  72.036  1.00  0.00    -0.439 NA 
HETATM   20  N   UNL     1     -12.114   9.943  71.789  1.00  0.00    -0.364 NA 
ENDBRANCH  15  16
ENDBRANCH   8  15
TORSDOF 2
ENDMDL
MODEL       62
REMARK 921   NORMALIZED FREE ENERGY PREDICTED BY IDOCK:   -4.37 KCAL/MOL
REMARK 922        TOTAL FREE ENERGY PREDICTED BY IDOCK:   -4.99 KCAL/MOL
REMARK 923 INTER-LIGAND FREE ENERGY PREDICTED BY IDOCK:   -4.78 KCAL/MOL
REMARK 924 INTRA-LIGAND FREE ENERGY PREDICTED BY IDOCK:   -0.21 KCAL/MOL
REMARK 927      BINDING AFFINITY PREDICTED BY RF-SCORE:    0.00 PKD
ROOT
HETATM    1  C   UNL     1     -12.012  13.454  68.571  1.00  0.00    -0.328 C  
HETATM    2  C   UNL     1     -11.510  12.168  69.232  1.00  0.00    -0.363 C  
HETATM    3  C   UNL     1     -10.539  12.081  68.057  1.00  0.00    -0.208 C  
HETATM    4  N   UNL     1     -11.129  13.137  67.414  1.00  0.00    -0.267 N  
HETATM    5  O   UNL     1      -9.486  11.528  67.836  1.00  0.00    -0.167 OA 
HETATM    6  C   UNL     1     -10.295  14.234  66.861  1.00  0.00    -0.268 C  
HETATM    7  C   UNL     1     -11.136  14.936  65.776  1.00  0.00    -0.342 C  
HETATM    8  C   UNL     1      -9.856  15.122  68.060  1.00  0.00    -0.213 C  
HETATM    9  S   UNL     1     -11.364  15.050  69.103  1.00  0.00    -0.316 S  
HETATM   10  O   UNL     1     -12.277  16.082  68.658  1.00  0.00    -0.080 OA 
HETATM   11  O   UNL     1     -10.812  15.949  65.180  1.00  0.00    -0.414 OA 
HETATM   12  O   UNL     1     -12.287  14.278  65.466  1.00  0.00    -0.416 OA 
HETATM   13  C   UNL     1      -9.516  16.598  67.786  1.00  0.00    -0.227 C  
HETATM   14  O   UNL     1     -10.965  14.968  70.497  1.00  0.00    -0.245 OA 
ENDROOT
BRANCH   8  15
HETATM   15  C   UNL     1      -8.694  14.524  68.910  1.00  0.00    -0.105 C  
BRANCH  15  16
HETATM   16  N   UNL     1      -7.353  14.623  68.382  1.00  0.00    -0.107 NA 
HETATM   17  C   UNL     1      -6.455  15.627  68.599  1.00  0.00    -0.107 A  
HETATM   18  C   UNL     1      -5.319  15.194  67.957  1.00  0.00    -0.123 A  
HETATM   19  N   UNL     1      -5.568  13.993  67.356  1.00  0.00    -0.313 NA 
HETATM   20  N   UNL     1      -6.827  13.664  67.603  1.00  0.00    -0.170 NA 
ENDBRANCH  15  16
ENDBRANCH   8  15
TORSDOF 2
ENDMDL
MODEL       63
REMARK 921   NORMALIZED FREE ENERGY PREDICTED BY IDOCK:   -4.34 KCAL/MOL
REMARK 922        TOTAL FREE ENERGY PREDICTED BY IDOCK:   -4.95 KCAL/MOL
REMARK 923 INTER-LIGAND FREE ENERGY PREDICTED BY IDOCK:   -4.63 KCAL/MOL
REMARK 924 INTRA-LIGAND FREE ENERGY PREDICTED BY IDOCK:   -0.32 KCAL/MOL
REMARK 927      BINDING AFFINITY PREDICTED BY RF-SCORE:    0.00 PKD
ROOT
HETATM    1  C   UNL     1     -10.249   6.819  71.437  1.00  0.00    -0.198 C  
HETATM    2  C   UNL     1     -10.308   5.492  70.675  1.00  0.00    -0.332 C  
HETATM    3  C   UNL     1     -11.118   6.259  69.634  1.00  0.00    -0.412 C  
HETATM    4  N   UNL     1     -11.188   7.376  70.423  1.00  0.00    -0.269 N  
HETATM    5  O   UNL     1     -11.388   6.119  68.463  1.00  0.00    -0.289 OA 
HETATM    6  C   UNL     1     -10.876   8.712  69.856  1.00  0.00    -0.208 C  
HETATM    7  C   UNL     1     -11.549   9.758  70.768  1.00  0.00    -0.339 C  
HETATM    8  C   UNL     1      -9.328   8.809  69.738  1.00  0.00    -0.163 C  
HETATM    9  S   UNL     1      -8.819   7.900  71.248  1.00  0.00    -0.140 S  
HETATM   10  O   UNL     1      -8.805   8.830  72.358  1.00  0.00    -0.391 OA 
HETATM   11  O   UNL     1     -11.420  10.966  70.667  1.00  0.00    -0.302 OA 
HETATM   12  O   UNL     1     -12.389   9.216  71.692  1.00  0.00    -0.317 OA 
HETATM   13  C   UNL     1      -8.683  10.206  69.761  1.00  0.00    -0.148 C  
HETATM   14  O   UNL     1      -7.647   7.100  70.940  1.00  0.00    -0.083 OA 
ENDROOT
BRANCH   8  15
HETATM   15  C   UNL     1      -8.727   8.034  68.526  1.00  0.00    -0.131 C  
BRANCH  15  16
HETATM   16  N   UNL     1      -8.849   8.634  67.216  1.00  0.00    -0.132 NA 
HETATM   17  C   UNL     1      -9.993   8.811  66.495  1.00  0.00    -0.290 A  
HETATM   18  C   UNL     1      -9.575   9.502  65.383  1.00  0.00    -0.272 A  
HETATM   19  N   UNL     1      -8.223   9.684  65.445  1.00  0.00    -0.123 NA 
HETATM   20  N   UNL     1      -7.785   9.126  66.562  1.00  0.00    -0.096 NA 
ENDBRANCH  15  16
ENDBRANCH   8  15
TORSDOF 2
ENDMDL
MODEL       64
REMARK 921   NORMALIZED FREE ENERGY PREDICTED BY IDOCK:   -4.32 KCAL/MOL
REMARK 922        TOTAL FREE ENERGY PREDICTED BY IDOCK:   -4.93 KCAL/MOL
REMARK 923 INTER-LIGAND FREE ENERGY PREDICTED BY IDOCK:   -4.62 KCAL/MOL
REMARK 924 INTRA-LIGAND FREE ENERGY PREDICTED BY IDOCK:   -0.31 KCAL/MOL
REMARK 927      BINDING AFFINITY PREDICTED BY RF-SCORE:    0.00 PKD
ROOT
HETATM    1  C   UNL     1      -9.335   5.879  70.221  1.00  0.00    -0.158 C  
HETATM    2  C   UNL     1     -10.709   5.442  69.705  1.00  0.00    -0.280 C  
HETATM    3  C   UNL     1     -11.276   6.357  70.788  1.00  0.00    -0.327 C  
HETATM    4  N   UNL     1     -10.038   6.588  71.326  1.00  0.00    -0.185 N  
HETATM    5  O   UNL     1     -12.327   6.922  70.990  1.00  0.00    -0.381 OA 
HETATM    6  C   UNL     1      -9.607   7.973  71.641  1.00  0.00    -0.167 C  
HETATM    7  C   UNL     1      -8.479   7.868  72.688  1.00  0.00    -0.150 C  
HETATM    8  C   UNL     1      -9.223   8.650  70.295  1.00  0.00    -0.166 C  
HETATM    9  S   UNL     1      -8.461   7.232  69.412  1.00  0.00    -0.134 S  
HETATM   10  O   UNL     1      -7.064   7.159  69.787  1.00  0.00    -0.069 OA 
HETATM   11  O   UNL     1      -7.816   8.802  73.103  1.00  0.00    -0.395 OA 
HETATM   12  O   UNL     1      -8.316   6.613  73.190  1.00  0.00    -0.116 OA 
HETATM   13  C   UNL     1      -8.215   9.812  70.326  1.00  0.00    -0.178 C  
HETATM   14  O   UNL     1      -8.848   7.290  68.014  1.00  0.00    -0.130 OA 
ENDROOT
BRANCH   8  15
HETATM   15  C   UNL     1     -10.441   9.108  69.436  1.00  0.00    -0.219 C  
BRANCH  15  16
HETATM   16  N   UNL     1     -11.110  10.332  69.817  1.00  0.00    -0.268 NA 
HETATM   17  C   UNL     1     -11.093  11.521  69.150  1.00  0.00    -0.259 A  
HETATM   18  C   UNL     1     -11.952  12.314  69.873  1.00  0.00    -0.306 A  
HETATM   19  N   UNL     1     -12.420  11.612  70.947  1.00  0.00    -0.377 NA 
HETATM   20  N   UNL     1     -11.877  10.405  70.916  1.00  0.00    -0.359 NA 
ENDBRANCH  15  16
ENDBRANCH   8  15
TORSDOF 2
ENDMDL
MODEL       65
REMARK 921   NORMALIZED FREE ENERGY PREDICTED BY IDOCK:   -4.31 KCAL/MOL
REMARK 922        TOTAL FREE ENERGY PREDICTED BY IDOCK:   -4.92 KCAL/MOL
REMARK 923 INTER-LIGAND FREE ENERGY PREDICTED BY IDOCK:   -4.96 KCAL/MOL
REMARK 924 INTRA-LIGAND FREE ENERGY PREDICTED BY IDOCK:    0.04 KCAL/MOL
REMARK 927      BINDING AFFINITY PREDICTED BY RF-SCORE:    0.00 PKD
ROOT
HETATM    1  C   UNL     1      -9.148   9.909  67.458  1.00  0.00    -0.134 C  
HETATM    2  C   UNL     1      -9.709  11.334  67.455  1.00  0.00    -0.192 C  
HETATM    3  C   UNL     1     -11.063  10.676  67.712  1.00  0.00    -0.321 C  
HETATM    4  N   UNL     1     -10.553   9.417  67.539  1.00  0.00    -0.277 N  
HETATM    5  O   UNL     1     -12.130  11.025  68.165  1.00  0.00    -0.610 OA 
HETATM    6  C   UNL     1     -10.853   8.347  68.522  1.00  0.00     0.081 C  
HETATM    7  C   UNL     1     -10.629   7.000  67.807  1.00  0.00    -0.233 C  
HETATM    8  C   UNL     1      -9.963   8.610  69.770  1.00  0.00    -0.190 C  
HETATM    9  S   UNL     1      -8.433   9.228  68.967  1.00  0.00    -0.136 S  
HETATM   10  O   UNL     1      -7.614   8.090  68.607  1.00  0.00    -0.096 OA 
HETATM   11  O   UNL     1     -10.681   5.904  68.337  1.00  0.00    -0.242 OA 
HETATM   12  O   UNL     1     -10.428   7.121  66.465  1.00  0.00    -0.167 OA 
HETATM   13  C   UNL     1      -9.600   7.415  70.669  1.00  0.00    -0.171 C  
HETATM   14  O   UNL     1      -7.886  10.307  69.770  1.00  0.00    -0.162 OA 
ENDROOT
BRANCH   8  15
HETATM   15  C   UNL     1     -10.476   9.754  70.696  1.00  0.00    -0.289 C  
BRANCH  15  16
HETATM   16  N   UNL     1     -11.658   9.500  71.488  1.00  0.00    -0.381 NA 
HETATM   17  C   UNL     1     -12.874  10.106  71.370  1.00  0.00    -0.428 A  
HETATM   18  C   UNL     1     -13.660   9.442  72.281  1.00  0.00    -0.462 A  
HETATM   19  N   UNL     1     -12.907   8.506  72.932  1.00  0.00    -0.174 NA 
HETATM   20  N   UNL     1     -11.674   8.568  72.454  1.00  0.00    -0.377 NA 
ENDBRANCH  15  16
ENDBRANCH   8  15
TORSDOF 2
ENDMDL
MODEL       66
REMARK 921   NORMALIZED FREE ENERGY PREDICTED BY IDOCK:   -4.31 KCAL/MOL
REMARK 922        TOTAL FREE ENERGY PREDICTED BY IDOCK:   -4.92 KCAL/MOL
REMARK 923 INTER-LIGAND FREE ENERGY PREDICTED BY IDOCK:   -4.66 KCAL/MOL
REMARK 924 INTRA-LIGAND FREE ENERGY PREDICTED BY IDOCK:   -0.26 KCAL/MOL
REMARK 927      BINDING AFFINITY PREDICTED BY RF-SCORE:    0.00 PKD
ROOT
HETATM    1  C   UNL     1     -10.596   9.648  66.966  1.00  0.00    -0.197 C  
HETATM    2  C   UNL     1      -9.613   8.579  67.453  1.00  0.00    -0.204 C  
HETATM    3  C   UNL     1      -8.599   9.260  66.536  1.00  0.00    -0.130 C  
HETATM    4  N   UNL     1      -9.550  10.088  66.000  1.00  0.00    -0.205 N  
HETATM    5  O   UNL     1      -7.393   9.308  66.454  1.00  0.00    -0.090 OA 
HETATM    6  C   UNL     1      -9.290  11.545  65.882  1.00  0.00    -0.226 C  
HETATM    7  C   UNL     1     -10.242  12.087  64.797  1.00  0.00    -0.279 C  
HETATM    8  C   UNL     1      -9.460  12.156  67.302  1.00  0.00    -0.184 C  
HETATM    9  S   UNL     1     -10.851  11.144  67.939  1.00  0.00    -0.257 S  
HETATM   10  O   UNL     1     -12.093  11.754  67.514  1.00  0.00    -0.599 OA 
HETATM   11  O   UNL     1     -10.381  13.262  64.505  1.00  0.00    -0.397 OA 
HETATM   12  O   UNL     1     -10.897  11.111  64.109  1.00  0.00    -0.370 OA 
HETATM   13  C   UNL     1      -9.841  13.644  67.413  1.00  0.00    -0.234 C  
HETATM   14  O   UNL     1     -10.613  10.853  69.342  1.00  0.00    -0.220 OA 
ENDROOT
BRANCH   8  15
HETATM   15  C   UNL     1      -8.252  11.909  68.256  1.00  0.00    -0.157 C  
BRANCH  15  16
HETATM   16  N   UNL     1      -7.089  12.754  68.103  1.00  0.00    -0.093 NA 
HETATM   17  C   UNL     1      -6.770  13.856  68.839  1.00  0.00    -0.106 A  
HETATM   18  C   UNL     1      -5.537  14.225  68.356  1.00  0.00    -0.107 A  
HETATM   19  N   UNL     1      -5.175  13.382  67.345  1.00  0.00    -0.337 NA 
HETATM   20  N   UNL     1      -6.146  12.497  67.182  1.00  0.00    -0.265 NA 
ENDBRANCH  15  16
ENDBRANCH   8  15
TORSDOF 2
ENDMDL
MODEL       67
REMARK 921   NORMALIZED FREE ENERGY PREDICTED BY IDOCK:   -4.30 KCAL/MOL
REMARK 922        TOTAL FREE ENERGY PREDICTED BY IDOCK:   -4.91 KCAL/MOL
REMARK 923 INTER-LIGAND FREE ENERGY PREDICTED BY IDOCK:   -4.77 KCAL/MOL
REMARK 924 INTRA-LIGAND FREE ENERGY PREDICTED BY IDOCK:   -0.14 KCAL/MOL
REMARK 927      BINDING AFFINITY PREDICTED BY RF-SCORE:    0.00 PKD
ROOT
HETATM    1  C   UNL     1      -8.534  17.978  68.350  1.00  0.00    -0.298 C  
HETATM    2  C   UNL     1      -7.950  18.729  67.150  1.00  0.00    -0.254 C  
HETATM    3  C   UNL     1      -7.687  17.345  66.560  1.00  0.00    -0.284 C  
HETATM    4  N   UNL     1      -8.059  16.715  67.718  1.00  0.00    -0.174 N  
HETATM    5  O   UNL     1      -7.499  16.890  65.455  1.00  0.00     0.253 OA 
HETATM    6  C   UNL     1      -9.002  15.569  67.674  1.00  0.00    -0.184 C  
HETATM    7  C   UNL     1      -8.797  14.766  68.975  1.00  0.00    -0.136 C  
HETATM    8  C   UNL     1     -10.425  16.156  67.456  1.00  0.00    -0.302 C  
HETATM    9  S   UNL     1     -10.311  17.694  68.452  1.00  0.00    -0.364 S  
HETATM   10  O   UNL     1     -10.641  17.373  69.825  1.00  0.00    -0.071 OA 
HETATM   11  O   UNL     1      -9.473  13.816  69.329  1.00  0.00     0.252 OA 
HETATM   12  O   UNL     1      -7.715  15.167  69.699  1.00  0.00    -0.215 OA 
HETATM   13  C   UNL     1     -11.633  15.339  67.947  1.00  0.00    -0.301 C  
HETATM   14  O   UNL     1     -11.011  18.757  67.753  1.00  0.00    -0.341 OA 
ENDROOT
BRANCH   8  15
HETATM   15  C   UNL     1     -10.721  16.595  65.989  1.00  0.00    -0.151 C  
BRANCH  15  16
HETATM   16  N   UNL     1     -11.154  15.578  65.057  1.00  0.00    -0.404 NA 
HETATM   17  C   UNL     1     -10.614  14.338  64.882  1.00  0.00    -0.431 A  
HETATM   18  C   UNL     1     -11.443  13.747  63.960  1.00  0.00    -0.216 A  
HETATM   19  N   UNL     1     -12.411  14.636  63.586  1.00  0.00    -0.664 NA 
HETATM   20  N   UNL     1     -12.209  15.764  64.248  1.00  0.00    -0.484 NA 
ENDBRANCH  15  16
ENDBRANCH   8  15
TORSDOF 2
ENDMDL
MODEL       68
REMARK 921   NORMALIZED FREE ENERGY PREDICTED BY IDOCK:   -4.28 KCAL/MOL
REMARK 922        TOTAL FREE ENERGY PREDICTED BY IDOCK:   -4.88 KCAL/MOL
REMARK 923 INTER-LIGAND FREE ENERGY PREDICTED BY IDOCK:   -4.88 KCAL/MOL
REMARK 924 INTRA-LIGAND FREE ENERGY PREDICTED BY IDOCK:   -0.00 KCAL/MOL
REMARK 927      BINDING AFFINITY PREDICTED BY RF-SCORE:    0.00 PKD
ROOT
HETATM    1  C   UNL     1      -8.180   8.571  69.298  1.00  0.00    -0.115 C  
HETATM    2  C   UNL     1      -8.185   9.889  70.079  1.00  0.00    -0.187 C  
HETATM    3  C   UNL     1      -9.650   9.995  69.663  1.00  0.00    -0.226 C  
HETATM    4  N   UNL     1      -9.557   8.905  68.838  1.00  0.00    -0.158 N  
HETATM    5  O   UNL     1     -10.628  10.587  70.059  1.00  0.00    -0.256 OA 
HETATM    6  C   UNL     1     -10.583   7.834  68.899  1.00  0.00    -0.150 C  
HETATM    7  C   UNL     1     -10.528   7.079  67.555  1.00  0.00    -0.250 C  
HETATM    8  C   UNL     1     -10.283   6.985  70.167  1.00  0.00    -0.193 C  
HETATM    9  S   UNL     1      -8.448   7.013  70.164  1.00  0.00    -0.140 S  
HETATM   10  O   UNL     1      -7.977   5.937  69.317  1.00  0.00    -0.096 OA 
HETATM   11  O   UNL     1     -11.158   6.071  67.288  1.00  0.00    -0.303 OA 
HETATM   12  O   UNL     1      -9.743   7.685  66.621  1.00  0.00    -0.202 OA 
HETATM   13  C   UNL     1     -10.755   5.520  70.190  1.00  0.00    -0.348 C  
HETATM   14  O   UNL     1      -7.980   7.135  71.533  1.00  0.00    -0.100 OA 
ENDROOT
BRANCH   8  15
HETATM   15  C   UNL     1     -10.738   7.645  71.504  1.00  0.00    -0.221 C  
BRANCH  15  16
HETATM   16  N   UNL     1     -12.140   7.967  71.653  1.00  0.00    -0.291 NA 
HETATM   17  C   UNL     1     -13.204   7.221  71.239  1.00  0.00    -0.289 A  
HETATM   18  C   UNL     1     -14.293   7.920  71.703  1.00  0.00    -0.479 A  
HETATM   19  N   UNL     1     -13.868   9.055  72.332  1.00  0.00    -0.486 NA 
HETATM   20  N   UNL     1     -12.546   9.086  72.274  1.00  0.00    -0.385 NA 
ENDBRANCH  15  16
ENDBRANCH   8  15
TORSDOF 2
ENDMDL
MODEL       69
REMARK 921   NORMALIZED FREE ENERGY PREDICTED BY IDOCK:   -4.24 KCAL/MOL
REMARK 922        TOTAL FREE ENERGY PREDICTED BY IDOCK:   -4.83 KCAL/MOL
REMARK 923 INTER-LIGAND FREE ENERGY PREDICTED BY IDOCK:   -4.57 KCAL/MOL
REMARK 924 INTRA-LIGAND FREE ENERGY PREDICTED BY IDOCK:   -0.26 KCAL/MOL
REMARK 927      BINDING AFFINITY PREDICTED BY RF-SCORE:    0.00 PKD
ROOT
HETATM    1  C   UNL     1      -9.777   5.314  70.043  1.00  0.00    -0.196 C  
HETATM    2  C   UNL     1      -9.761   4.907  68.567  1.00  0.00    -0.218 C  
HETATM    3  C   UNL     1     -10.910   5.899  68.402  1.00  0.00    -0.240 C  
HETATM    4  N   UNL     1     -11.004   6.107  69.752  1.00  0.00    -0.355 N  
HETATM    5  O   UNL     1     -11.404   6.516  67.485  1.00  0.00    -0.284 OA 
HETATM    6  C   UNL     1     -11.077   7.488  70.292  1.00  0.00    -0.248 C  
HETATM    7  C   UNL     1     -11.709   7.392  71.695  1.00  0.00    -0.279 C  
HETATM    8  C   UNL     1      -9.639   8.078  70.233  1.00  0.00    -0.171 C  
HETATM    9  S   UNL     1      -8.648   6.587  70.637  1.00  0.00    -0.140 S  
HETATM   10  O   UNL     1      -8.557   6.476  72.078  1.00  0.00    -0.125 OA 
HETATM   11  O   UNL     1     -11.829   8.318  72.478  1.00  0.00    -0.387 OA 
HETATM   12  O   UNL     1     -12.208   6.159  71.985  1.00  0.00    -0.312 OA 
HETATM   13  C   UNL     1      -9.271   9.198  71.222  1.00  0.00    -0.261 C  
HETATM   14  O   UNL     1      -7.448   6.588  69.819  1.00  0.00    -0.084 OA 
ENDROOT
BRANCH   8  15
HETATM   15  C   UNL     1      -9.192   8.541  68.813  1.00  0.00    -0.142 C  
BRANCH  15  16
HETATM   16  N   UNL     1      -9.795   9.739  68.275  1.00  0.00    -0.145 NA 
HETATM   17  C   UNL     1      -9.162  10.897  67.931  1.00  0.00    -0.152 A  
HETATM   18  C   UNL     1     -10.162  11.670  67.392  1.00  0.00    -0.203 A  
HETATM   19  N   UNL     1     -11.345  10.990  67.459  1.00  0.00    -0.452 NA 
HETATM   20  N   UNL     1     -11.112   9.817  68.025  1.00  0.00    -0.179 NA 
ENDBRANCH  15  16
ENDBRANCH   8  15
TORSDOF 2
ENDMDL
MODEL       70
REMARK 921   NORMALIZED FREE ENERGY PREDICTED BY IDOCK:   -4.22 KCAL/MOL
REMARK 922        TOTAL FREE ENERGY PREDICTED BY IDOCK:   -4.82 KCAL/MOL
REMARK 923 INTER-LIGAND FREE ENERGY PREDICTED BY IDOCK:   -4.77 KCAL/MOL
REMARK 924 INTRA-LIGAND FREE ENERGY PREDICTED BY IDOCK:   -0.04 KCAL/MOL
REMARK 927      BINDING AFFINITY PREDICTED BY RF-SCORE:    0.00 PKD
ROOT
HETATM    1  C   UNL     1     -10.932  14.454  66.316  1.00  0.00    -0.318 C  
HETATM    2  C   UNL     1      -9.805  15.299  65.716  1.00  0.00    -0.395 C  
HETATM    3  C   UNL     1      -9.326  15.471  67.156  1.00  0.00    -0.216 C  
HETATM    4  N   UNL     1     -10.439  14.855  67.663  1.00  0.00    -0.246 N  
HETATM    5  O   UNL     1      -8.285  15.762  67.699  1.00  0.00    -0.143 OA 
HETATM    6  C   UNL     1     -10.301  13.793  68.692  1.00  0.00    -0.224 C  
HETATM    7  C   UNL     1     -11.652  13.701  69.429  1.00  0.00    -0.312 C  
HETATM    8  C   UNL     1      -9.838  12.503  67.957  1.00  0.00    -0.214 C  
HETATM    9  S   UNL     1     -10.771  12.660  66.384  1.00  0.00    -0.259 S  
HETATM   10  O   UNL     1     -12.089  12.093  66.576  1.00  0.00    -0.627 OA 
HETATM   11  O   UNL     1     -11.940  12.866  70.269  1.00  0.00    -0.341 OA 
HETATM   12  O   UNL     1     -12.516  14.705  69.113  1.00  0.00    -0.148 OA 
HETATM   13  C   UNL     1     -10.173  11.143  68.595  1.00  0.00    -0.216 C  
HETATM   14  O   UNL     1      -9.925  12.210  65.293  1.00  0.00    -0.254 OA 
ENDROOT
BRANCH   8  15
HETATM   15  C   UNL     1      -8.326  12.485  67.581  1.00  0.00    -0.172 C  
BRANCH  15  16
HETATM   16  N   UNL     1      -7.367  12.354  68.654  1.00  0.00    -0.108 NA 
HETATM   17  C   UNL     1      -6.572  13.334  69.172  1.00  0.00    -0.105 A  
HETATM   18  C   UNL     1      -5.930  12.715  70.218  1.00  0.00    -0.122 A  
HETATM   19  N   UNL     1      -6.316  11.407  70.276  1.00  0.00    -0.232 NA 
HETATM   20  N   UNL     1      -7.179  11.190  69.296  1.00  0.00    -0.121 NA 
ENDBRANCH  15  16
ENDBRANCH   8  15
TORSDOF 2
ENDMDL
MODEL       71
REMARK 921   NORMALIZED FREE ENERGY PREDICTED BY IDOCK:   -4.21 KCAL/MOL
REMARK 922        TOTAL FREE ENERGY PREDICTED BY IDOCK:   -4.81 KCAL/MOL
REMARK 923 INTER-LIGAND FREE ENERGY PREDICTED BY IDOCK:   -4.63 KCAL/MOL
REMARK 924 INTRA-LIGAND FREE ENERGY PREDICTED BY IDOCK:   -0.18 KCAL/MOL
REMARK 927      BINDING AFFINITY PREDICTED BY RF-SCORE:    0.00 PKD
ROOT
HETATM    1  C   UNL     1      -7.924  10.290  67.952  1.00  0.00    -0.102 C  
HETATM    2  C   UNL     1      -7.952  11.724  68.490  1.00  0.00    -0.145 C  
HETATM    3  C   UNL     1      -9.469  11.624  68.345  1.00  0.00    -0.193 C  
HETATM    4  N   UNL     1      -9.389  10.413  67.710  1.00  0.00    -0.144 N  
HETATM    5  O   UNL     1     -10.429  12.192  68.813  1.00  0.00    -0.224 OA 
HETATM    6  C   UNL     1     -10.256   9.286  68.139  1.00  0.00    -0.205 C  
HETATM    7  C   UNL     1     -10.339   8.304  66.953  1.00  0.00    -0.320 C  
HETATM    8  C   UNL     1      -9.647   8.716  69.451  1.00  0.00    -0.166 C  
HETATM    9  S   UNL     1      -7.855   8.901  69.099  1.00  0.00    -0.095 S  
HETATM   10  O   UNL     1      -7.410   7.733  68.370  1.00  0.00    -0.090 OA 
HETATM   11  O   UNL     1     -10.882   7.213  66.980  1.00  0.00    -0.351 OA 
HETATM   12  O   UNL     1      -9.801   8.793  65.801  1.00  0.00    -0.180 OA 
HETATM   13  C   UNL     1      -9.930   7.245  69.805  1.00  0.00    -0.183 C  
HETATM   14  O   UNL     1      -7.180   9.314  70.317  1.00  0.00    -0.062 OA 
ENDROOT
BRANCH   8  15
HETATM   15  C   UNL     1      -9.944   9.569  70.721  1.00  0.00    -0.264 C  
BRANCH  15  16
HETATM   16  N   UNL     1     -11.282   9.523  71.266  1.00  0.00    -0.358 NA 
HETATM   17  C   UNL     1     -12.321  10.356  70.970  1.00  0.00    -0.387 A  
HETATM   18  C   UNL     1     -13.375   9.827  71.675  1.00  0.00    -0.399 A  
HETATM   19  N   UNL     1     -12.946   8.743  72.386  1.00  0.00    -0.403 NA 
HETATM   20  N   UNL     1     -11.655   8.580  72.146  1.00  0.00    -0.357 NA 
ENDBRANCH  15  16
ENDBRANCH   8  15
TORSDOF 2
ENDMDL
MODEL       72
REMARK 921   NORMALIZED FREE ENERGY PREDICTED BY IDOCK:   -4.21 KCAL/MOL
REMARK 922        TOTAL FREE ENERGY PREDICTED BY IDOCK:   -4.80 KCAL/MOL
REMARK 923 INTER-LIGAND FREE ENERGY PREDICTED BY IDOCK:   -4.51 KCAL/MOL
REMARK 924 INTRA-LIGAND FREE ENERGY PREDICTED BY IDOCK:   -0.29 KCAL/MOL
REMARK 927      BINDING AFFINITY PREDICTED BY RF-SCORE:    0.00 PKD
ROOT
HETATM    1  C   UNL     1      -8.434   9.355  65.085  1.00  0.00    -0.154 C  
HETATM    2  C   UNL     1      -8.635  10.196  63.821  1.00  0.00    -0.203 C  
HETATM    3  C   UNL     1     -10.016  10.511  64.392  1.00  0.00    -0.343 C  
HETATM    4  N   UNL     1      -9.862   9.617  65.419  1.00  0.00    -0.309 N  
HETATM    5  O   UNL     1     -10.848  11.375  64.235  1.00  0.00    -0.342 OA 
HETATM    6  C   UNL     1     -10.182  10.018  66.812  1.00  0.00    -0.232 C  
HETATM    7  C   UNL     1     -10.437   8.722  67.607  1.00  0.00    -0.244 C  
HETATM    8  C   UNL     1      -9.005  10.902  67.314  1.00  0.00    -0.137 C  
HETATM    9  S   UNL     1      -7.586  10.063  66.509  1.00  0.00    -0.109 S  
HETATM   10  O   UNL     1      -7.152   8.978  67.364  1.00  0.00    -0.078 OA 
HETATM   11  O   UNL     1     -10.626   8.659  68.809  1.00  0.00    -0.211 OA 
HETATM   12  O   UNL     1     -10.510   7.608  66.826  1.00  0.00    -0.314 OA 
HETATM   13  C   UNL     1      -8.743  10.971  68.829  1.00  0.00    -0.146 C  
HETATM   14  O   UNL     1      -6.642  11.070  66.057  1.00  0.00    -0.111 OA 
ENDROOT
BRANCH   8  15
HETATM   15  C   UNL     1      -9.025  12.365  66.775  1.00  0.00    -0.205 C  
BRANCH  15  16
HETATM   16  N   UNL     1     -10.022  13.266  67.309  1.00  0.00    -0.228 NA 
HETATM   17  C   UNL     1     -11.376  13.155  67.196  1.00  0.00    -0.316 A  
HETATM   18  C   UNL     1     -11.854  14.199  67.950  1.00  0.00    -0.370 A  
HETATM   19  N   UNL     1     -10.803  14.913  68.452  1.00  0.00    -0.244 NA 
HETATM   20  N   UNL     1      -9.684  14.345  68.031  1.00  0.00    -0.215 NA 
ENDBRANCH  15  16
ENDBRANCH   8  15
TORSDOF 2
ENDMDL
MODEL       73
REMARK 921   NORMALIZED FREE ENERGY PREDICTED BY IDOCK:   -4.20 KCAL/MOL
REMARK 922        TOTAL FREE ENERGY PREDICTED BY IDOCK:   -4.79 KCAL/MOL
REMARK 923 INTER-LIGAND FREE ENERGY PREDICTED BY IDOCK:   -4.60 KCAL/MOL
REMARK 924 INTRA-LIGAND FREE ENERGY PREDICTED BY IDOCK:   -0.19 KCAL/MOL
REMARK 927      BINDING AFFINITY PREDICTED BY RF-SCORE:    0.00 PKD
ROOT
HETATM    1  C   UNL     1     -10.374   8.696  72.185  1.00  0.00    -0.333 C  
HETATM    2  C   UNL     1     -11.181   7.586  72.865  1.00  0.00    -0.396 C  
HETATM    3  C   UNL     1     -12.071   7.634  71.625  1.00  0.00    -0.306 C  
HETATM    4  N   UNL     1     -11.427   8.738  71.132  1.00  0.00    -0.273 N  
HETATM    5  O   UNL     1     -12.854   6.887  71.084  1.00  0.00    -0.354 OA 
HETATM    6  C   UNL     1     -10.984   8.773  69.716  1.00  0.00    -0.140 C  
HETATM    7  C   UNL     1     -10.816  10.257  69.332  1.00  0.00    -0.245 C  
HETATM    8  C   UNL     1      -9.704   7.896  69.615  1.00  0.00    -0.173 C  
HETATM    9  S   UNL     1      -8.907   8.279  71.224  1.00  0.00    -0.172 S  
HETATM   10  O   UNL     1      -8.113   9.479  71.066  1.00  0.00    -0.312 OA 
HETATM   11  O   UNL     1     -10.364  10.664  68.276  1.00  0.00    -0.164 OA 
HETATM   12  O   UNL     1     -11.293  11.121  70.271  1.00  0.00    -0.268 OA 
HETATM   13  C   UNL     1      -8.703   8.197  68.485  1.00  0.00    -0.134 C  
HETATM   14  O   UNL     1      -8.313   7.064  71.752  1.00  0.00    -0.110 OA 
ENDROOT
BRANCH   8  15
HETATM   15  C   UNL     1      -9.975   6.361  69.605  1.00  0.00    -0.164 C  
BRANCH  15  16
HETATM   16  N   UNL     1     -10.057   5.701  68.321  1.00  0.00    -0.156 NA 
HETATM   17  C   UNL     1      -9.298   4.657  67.882  1.00  0.00    -0.134 A  
HETATM   18  C   UNL     1      -9.837   4.354  66.655  1.00  0.00    -0.226 A  
HETATM   19  N   UNL     1     -10.852   5.224  66.379  1.00  0.00    -0.238 NA 
HETATM   20  N   UNL     1     -10.963   6.062  67.398  1.00  0.00    -0.303 NA 
ENDBRANCH  15  16
ENDBRANCH   8  15
TORSDOF 2
ENDMDL
MODEL       74
REMARK 921   NORMALIZED FREE ENERGY PREDICTED BY IDOCK:   -4.20 KCAL/MOL
REMARK 922        TOTAL FREE ENERGY PREDICTED BY IDOCK:   -4.79 KCAL/MOL
REMARK 923 INTER-LIGAND FREE ENERGY PREDICTED BY IDOCK:   -4.51 KCAL/MOL
REMARK 924 INTRA-LIGAND FREE ENERGY PREDICTED BY IDOCK:   -0.27 KCAL/MOL
REMARK 927      BINDING AFFINITY PREDICTED BY RF-SCORE:    0.00 PKD
ROOT
HETATM    1  C   UNL     1      -9.525  12.378  66.560  1.00  0.00    -0.242 C  
HETATM    2  C   UNL     1     -10.596  13.189  67.295  1.00  0.00    -0.250 C  
HETATM    3  C   UNL     1     -11.382  11.880  67.351  1.00  0.00    -0.324 C  
HETATM    4  N   UNL     1     -10.481  11.235  66.546  1.00  0.00    -0.244 N  
HETATM    5  O   UNL     1     -12.279  11.431  68.027  1.00  0.00    -0.607 OA 
HETATM    6  C   UNL     1      -9.962   9.898  66.928  1.00  0.00    -0.212 C  
HETATM    7  C   UNL     1      -9.447   9.229  65.637  1.00  0.00    -0.256 C  
HETATM    8  C   UNL     1      -8.905  10.120  68.047  1.00  0.00    -0.125 C  
HETATM    9  S   UNL     1      -8.136  11.685  67.476  1.00  0.00    -0.153 S  
HETATM   10  O   UNL     1      -7.087  11.361  66.532  1.00  0.00    -0.128 OA 
HETATM   11  O   UNL     1      -8.857   8.163  65.585  1.00  0.00    -0.168 OA 
HETATM   12  O   UNL     1      -9.772   9.908  64.503  1.00  0.00    -0.291 OA 
HETATM   13  C   UNL     1      -7.800   9.063  68.224  1.00  0.00    -0.100 C  
HETATM   14  O   UNL     1      -7.858  12.518  68.633  1.00  0.00    -0.120 OA 
ENDROOT
BRANCH   8  15
HETATM   15  C   UNL     1      -9.511  10.406  69.454  1.00  0.00    -0.183 C  
BRANCH  15  16
HETATM   16  N   UNL     1      -9.808   9.273  70.302  1.00  0.00    -0.205 NA 
HETATM   17  C   UNL     1     -10.726   8.291  70.072  1.00  0.00    -0.239 A  
HETATM   18  C   UNL     1     -10.543   7.421  71.120  1.00  0.00    -0.222 A  
HETATM   19  N   UNL     1      -9.575   7.909  71.950  1.00  0.00    -0.164 NA 
HETATM   20  N   UNL     1      -9.148   9.058  71.451  1.00  0.00    -0.282 NA 
ENDBRANCH  15  16
ENDBRANCH   8  15
TORSDOF 2
ENDMDL
MODEL       75
REMARK 921   NORMALIZED FREE ENERGY PREDICTED BY IDOCK:   -4.19 KCAL/MOL
REMARK 922        TOTAL FREE ENERGY PREDICTED BY IDOCK:   -4.78 KCAL/MOL
REMARK 923 INTER-LIGAND FREE ENERGY PREDICTED BY IDOCK:   -4.75 KCAL/MOL
REMARK 924 INTRA-LIGAND FREE ENERGY PREDICTED BY IDOCK:   -0.03 KCAL/MOL
REMARK 927      BINDING AFFINITY PREDICTED BY RF-SCORE:    0.00 PKD
ROOT
HETATM    1  C   UNL     1     -10.357  12.708  66.086  1.00  0.00    -0.256 C  
HETATM    2  C   UNL     1      -9.435  11.703  66.782  1.00  0.00    -0.197 C  
HETATM    3  C   UNL     1      -8.590  12.918  67.161  1.00  0.00    -0.198 C  
HETATM    4  N   UNL     1      -9.344  13.759  66.386  1.00  0.00    -0.238 N  
HETATM    5  O   UNL     1      -7.761  13.174  68.003  1.00  0.00    -0.119 OA 
HETATM    6  C   UNL     1      -9.831  15.048  66.939  1.00  0.00    -0.238 C  
HETATM    7  C   UNL     1     -10.141  15.965  65.739  1.00  0.00    -0.361 C  
HETATM    8  C   UNL     1     -11.031  14.720  67.872  1.00  0.00    -0.278 C  
HETATM    9  S   UNL     1     -11.809  13.340  66.946  1.00  0.00    -0.383 S  
HETATM   10  O   UNL     1     -12.711  13.901  65.962  1.00  0.00    -0.463 OA 
HETATM   11  O   UNL     1     -10.658  17.067  65.811  1.00  0.00    -0.380 OA 
HETATM   12  O   UNL     1      -9.713  15.467  64.546  1.00  0.00     0.248 OA 
HETATM   13  C   UNL     1     -12.088  15.814  68.108  1.00  0.00     0.292 C  
HETATM   14  O   UNL     1     -12.278  12.346  67.896  1.00  0.00    -0.379 OA 
ENDROOT
BRANCH   8  15
HETATM   15  C   UNL     1     -10.625  14.152  69.265  1.00  0.00    -0.104 C  
BRANCH  15  16
HETATM   16  N   UNL     1     -11.371  14.602  70.419  1.00  0.00    -0.221 NA 
HETATM   17  C   UNL     1     -12.423  13.973  71.016  1.00  0.00    -0.371 A  
HETATM   18  C   UNL     1     -12.698  14.760  72.108  1.00  0.00    -0.326 A  
HETATM   19  N   UNL     1     -11.853  15.833  72.118  1.00  0.00    -0.449 NA 
HETATM   20  N   UNL     1     -11.059  15.738  71.063  1.00  0.00    -0.326 NA 
ENDBRANCH  15  16
ENDBRANCH   8  15
TORSDOF 2
ENDMDL
MODEL       76
REMARK 921   NORMALIZED FREE ENERGY PREDICTED BY IDOCK:   -4.14 KCAL/MOL
REMARK 922        TOTAL FREE ENERGY PREDICTED BY IDOCK:   -4.73 KCAL/MOL
REMARK 923 INTER-LIGAND FREE ENERGY PREDICTED BY IDOCK:   -4.69 KCAL/MOL
REMARK 924 INTRA-LIGAND FREE ENERGY PREDICTED BY IDOCK:   -0.04 KCAL/MOL
REMARK 927      BINDING AFFINITY PREDICTED BY RF-SCORE:    0.00 PKD
ROOT
HETATM    1  C   UNL     1      -8.968  12.281  66.521  1.00  0.00    -0.161 C  
HETATM    2  C   UNL     1      -9.826  12.736  67.705  1.00  0.00    -0.220 C  
HETATM    3  C   UNL     1     -11.010  12.197  66.905  1.00  0.00    -0.270 C  
HETATM    4  N   UNL     1     -10.233  11.962  65.801  1.00  0.00    -0.234 N  
HETATM    5  O   UNL     1     -12.136  11.831  67.153  1.00  0.00    -0.592 OA 
HETATM    6  C   UNL     1     -10.314  10.659  65.095  1.00  0.00    -0.261 C  
HETATM    7  C   UNL     1      -9.786  10.887  63.664  1.00  0.00    -0.351 C  
HETATM    8  C   UNL     1      -9.530   9.625  65.952  1.00  0.00    -0.236 C  
HETATM    9  S   UNL     1      -8.155  10.673  66.567  1.00  0.00    -0.146 S  
HETATM   10  O   UNL     1      -7.099  10.671  65.575  1.00  0.00    -0.128 OA 
HETATM   11  O   UNL     1      -9.610  10.015  62.832  1.00  0.00    -0.267 OA 
HETATM   12  O   UNL     1      -9.588  12.199  63.359  1.00  0.00    -0.294 OA 
HETATM   13  C   UNL     1      -8.934   8.396  65.243  1.00  0.00    -0.055 C  
HETATM   14  O   UNL     1      -7.873  10.314  67.946  1.00  0.00    -0.099 OA 
ENDROOT
BRANCH   8  15
HETATM   15  C   UNL     1     -10.300   9.115  67.207  1.00  0.00    -0.270 C  
BRANCH  15  16
HETATM   16  N   UNL     1     -10.194   7.711  67.537  1.00  0.00    -0.206 NA 
HETATM   17  C   UNL     1      -9.321   7.134  68.411  1.00  0.00    -0.135 A  
HETATM   18  C   UNL     1      -9.700   5.813  68.427  1.00  0.00    -0.133 A  
HETATM   19  N   UNL     1     -10.736   5.629  67.558  1.00  0.00    -0.228 NA 
HETATM   20  N   UNL     1     -11.016   6.796  66.999  1.00  0.00    -0.401 NA 
ENDBRANCH  15  16
ENDBRANCH   8  15
TORSDOF 2
ENDMDL
MODEL       77
REMARK 921   NORMALIZED FREE ENERGY PREDICTED BY IDOCK:   -4.10 KCAL/MOL
REMARK 922        TOTAL FREE ENERGY PREDICTED BY IDOCK:   -4.68 KCAL/MOL
REMARK 923 INTER-LIGAND FREE ENERGY PREDICTED BY IDOCK:   -4.50 KCAL/MOL
REMARK 924 INTRA-LIGAND FREE ENERGY PREDICTED BY IDOCK:   -0.19 KCAL/MOL
REMARK 927      BINDING AFFINITY PREDICTED BY RF-SCORE:    0.00 PKD
ROOT
HETATM    1  C   UNL     1      -8.084  10.196  66.522  1.00  0.00    -0.121 C  
HETATM    2  C   UNL     1      -7.501  10.243  65.106  1.00  0.00    -0.130 C  
HETATM    3  C   UNL     1      -8.946  10.407  64.642  1.00  0.00    -0.209 C  
HETATM    4  N   UNL     1      -9.438  10.190  65.902  1.00  0.00    -0.182 N  
HETATM    5  O   UNL     1      -9.501  10.831  63.654  1.00  0.00    -0.236 OA 
HETATM    6  C   UNL     1     -10.461  11.103  66.471  1.00  0.00    -0.255 C  
HETATM    7  C   UNL     1     -11.185  10.329  67.591  1.00  0.00    -0.158 C  
HETATM    8  C   UNL     1      -9.723  12.400  66.909  1.00  0.00    -0.215 C  
HETATM    9  S   UNL     1      -8.142  11.696  67.519  1.00  0.00    -0.153 S  
HETATM   10  O   UNL     1      -8.317  11.313  68.904  1.00  0.00    -0.143 OA 
HETATM   11  O   UNL     1     -12.016  10.799  68.348  1.00  0.00    -0.508 OA 
HETATM   12  O   UNL     1     -10.866   9.005  67.633  1.00  0.00    -0.219 OA 
HETATM   13  C   UNL     1     -10.349  13.251  68.028  1.00  0.00    -0.243 C  
HETATM   14  O   UNL     1      -7.056  12.578  67.128  1.00  0.00    -0.136 OA 
ENDROOT
BRANCH   8  15
HETATM   15  C   UNL     1      -9.362  13.361  65.736  1.00  0.00     0.172 C  
BRANCH  15  16
HETATM   16  N   UNL     1     -10.449  14.014  65.042  1.00  0.00    -0.398 NA 
HETATM   17  C   UNL     1     -11.463  13.417  64.352  1.00  0.00    -0.384 A  
HETATM   18  C   UNL     1     -12.265  14.467  63.976  1.00  0.00    -0.229 A  
HETATM   19  N   UNL     1     -11.708  15.638  64.404  1.00  0.00    -0.318 NA 
HETATM   20  N   UNL     1     -10.581  15.350  65.035  1.00  0.00    -0.431 NA 
ENDBRANCH  15  16
ENDBRANCH   8  15
TORSDOF 2
ENDMDL
MODEL       78
REMARK 921   NORMALIZED FREE ENERGY PREDICTED BY IDOCK:   -4.06 KCAL/MOL
REMARK 922        TOTAL FREE ENERGY PREDICTED BY IDOCK:   -4.64 KCAL/MOL
REMARK 923 INTER-LIGAND FREE ENERGY PREDICTED BY IDOCK:   -4.33 KCAL/MOL
REMARK 924 INTRA-LIGAND FREE ENERGY PREDICTED BY IDOCK:   -0.31 KCAL/MOL
REMARK 927      BINDING AFFINITY PREDICTED BY RF-SCORE:    0.00 PKD
ROOT
HETATM    1  C   UNL     1     -10.542  11.451  69.119  1.00  0.00    -0.160 C  
HETATM    2  C   UNL     1     -12.000  11.233  68.704  1.00  0.00    -0.314 C  
HETATM    3  C   UNL     1     -11.678  12.147  67.524  1.00  0.00    -0.315 C  
HETATM    4  N   UNL     1     -10.438  12.450  68.019  1.00  0.00    -0.211 N  
HETATM    5  O   UNL     1     -12.147  12.352  66.428  1.00  0.00    -0.607 OA 
HETATM    6  C   UNL     1      -9.245  12.384  67.138  1.00  0.00    -0.199 C  
HETATM    7  C   UNL     1      -8.159  13.269  67.782  1.00  0.00    -0.166 C  
HETATM    8  C   UNL     1      -8.885  10.881  66.969  1.00  0.00    -0.140 C  
HETATM    9  S   UNL     1      -9.285  10.249  68.645  1.00  0.00    -0.167 S  
HETATM   10  O   UNL     1      -8.129  10.443  69.495  1.00  0.00    -0.161 OA 
HETATM   11  O   UNL     1      -7.010  13.371  67.388  1.00  0.00    -0.165 OA 
HETATM   12  O   UNL     1      -8.612  14.016  68.827  1.00  0.00    -0.133 OA 
HETATM   13  C   UNL     1      -7.427  10.515  66.639  1.00  0.00    -0.120 C  
HETATM   14  O   UNL     1      -9.895   8.937  68.517  1.00  0.00    -0.159 OA 
ENDROOT
BRANCH   8  15
HETATM   15  C   UNL     1      -9.799  10.109  65.970  1.00  0.00    -0.246 C  
BRANCH  15  16
HETATM   16  N   UNL     1      -9.500  10.221  64.560  1.00  0.00    -0.274 NA 
HETATM   17  C   UNL     1      -9.586  11.341  63.787  1.00  0.00    -0.259 A  
HETATM   18  C   UNL     1      -9.106  10.932  62.566  1.00  0.00    -0.326 A  
HETATM   19  N   UNL     1      -8.789   9.605  62.624  1.00  0.00    -0.232 NA 
HETATM   20  N   UNL     1      -9.058   9.173  63.847  1.00  0.00     0.023 NA 
ENDBRANCH  15  16
ENDBRANCH   8  15
TORSDOF 2
ENDMDL
MODEL       79
REMARK 921   NORMALIZED FREE ENERGY PREDICTED BY IDOCK:   -4.05 KCAL/MOL
REMARK 922        TOTAL FREE ENERGY PREDICTED BY IDOCK:   -4.63 KCAL/MOL
REMARK 923 INTER-LIGAND FREE ENERGY PREDICTED BY IDOCK:   -4.65 KCAL/MOL
REMARK 924 INTRA-LIGAND FREE ENERGY PREDICTED BY IDOCK:    0.02 KCAL/MOL
REMARK 927      BINDING AFFINITY PREDICTED BY RF-SCORE:    0.00 PKD
ROOT
HETATM    1  C   UNL     1      -8.582   8.053  68.781  1.00  0.00    -0.128 C  
HETATM    2  C   UNL     1      -8.664   7.226  67.495  1.00  0.00    -0.121 C  
HETATM    3  C   UNL     1     -10.173   7.227  67.728  1.00  0.00    -0.195 C  
HETATM    4  N   UNL     1     -10.043   7.819  68.957  1.00  0.00    -0.191 N  
HETATM    5  O   UNL     1     -11.160   7.057  67.050  1.00  0.00    -0.373 OA 
HETATM    6  C   UNL     1     -10.890   8.983  69.318  1.00  0.00    -0.113 C  
HETATM    7  C   UNL     1     -10.915   9.062  70.858  1.00  0.00    -0.268 C  
HETATM    8  C   UNL     1     -10.301  10.221  68.585  1.00  0.00    -0.184 C  
HETATM    9  S   UNL     1      -8.507   9.852  68.688  1.00  0.00    -0.119 S  
HETATM   10  O   UNL     1      -8.010  10.351  69.954  1.00  0.00    -0.132 OA 
HETATM   11  O   UNL     1     -11.429   9.956  71.509  1.00  0.00    -0.365 OA 
HETATM   12  O   UNL     1     -10.360   7.979  71.469  1.00  0.00    -0.201 OA 
HETATM   13  C   UNL     1     -10.555  11.614  69.190  1.00  0.00    -0.147 C  
HETATM   14  O   UNL     1      -7.876  10.245  67.441  1.00  0.00    -0.102 OA 
ENDROOT
BRANCH   8  15
HETATM   15  C   UNL     1     -10.656  10.298  67.068  1.00  0.00    -0.239 C  
BRANCH  15  16
HETATM   16  N   UNL     1     -10.829  11.608  66.483  1.00  0.00    -0.273 NA 
HETATM   17  C   UNL     1      -9.850  12.450  66.045  1.00  0.00    -0.257 A  
HETATM   18  C   UNL     1     -10.545  13.503  65.500  1.00  0.00    -0.296 A  
HETATM   19  N   UNL     1     -11.885  13.290  65.654  1.00  0.00    -0.360 NA 
HETATM   20  N   UNL     1     -12.047  12.135  66.281  1.00  0.00    -0.589 NA 
ENDBRANCH  15  16
ENDBRANCH   8  15
TORSDOF 2
ENDMDL
MODEL       80
REMARK 921   NORMALIZED FREE ENERGY PREDICTED BY IDOCK:   -4.03 KCAL/MOL
REMARK 922        TOTAL FREE ENERGY PREDICTED BY IDOCK:   -4.60 KCAL/MOL
REMARK 923 INTER-LIGAND FREE ENERGY PREDICTED BY IDOCK:   -4.59 KCAL/MOL
REMARK 924 INTRA-LIGAND FREE ENERGY PREDICTED BY IDOCK:   -0.01 KCAL/MOL
REMARK 927      BINDING AFFINITY PREDICTED BY RF-SCORE:    0.00 PKD
ROOT
HETATM    1  C   UNL     1      -9.465  11.939  66.402  1.00  0.00    -0.228 C  
HETATM    2  C   UNL     1      -8.088  11.278  66.285  1.00  0.00    -0.108 C  
HETATM    3  C   UNL     1      -7.773  11.969  67.609  1.00  0.00    -0.144 C  
HETATM    4  N   UNL     1      -8.948  12.674  67.590  1.00  0.00    -0.176 N  
HETATM    5  O   UNL     1      -6.978  11.811  68.507  1.00  0.00    -0.071 OA 
HETATM    6  C   UNL     1      -9.808  12.724  68.798  1.00  0.00     0.032 C  
HETATM    7  C   UNL     1     -10.706  13.970  68.662  1.00  0.00    -0.259 C  
HETATM    8  C   UNL     1     -10.549  11.359  68.888  1.00  0.00    -0.202 C  
HETATM    9  S   UNL     1     -10.845  11.020  67.109  1.00  0.00    -0.280 S  
HETATM   10  O   UNL     1     -12.075  11.676  66.716  1.00  0.00    -0.472 OA 
HETATM   11  O   UNL     1     -11.611  14.271  69.420  1.00  0.00    -0.269 OA 
HETATM   12  O   UNL     1     -10.356  14.784  67.628  1.00  0.00    -0.236 OA 
HETATM   13  C   UNL     1     -11.897  11.311  69.630  1.00  0.00    -0.430 C  
HETATM   14  O   UNL     1     -10.655   9.601  66.866  1.00  0.00    -0.228 OA 
ENDROOT
BRANCH   8  15
HETATM   15  C   UNL     1      -9.674  10.187  69.428  1.00  0.00    -0.229 C  
BRANCH  15  16
HETATM   16  N   UNL     1     -10.319   9.192  70.255  1.00  0.00    -0.200 NA 
HETATM   17  C   UNL     1     -10.872   8.015  69.846  1.00  0.00    -0.217 A  
HETATM   18  C   UNL     1     -11.255   7.409  71.018  1.00  0.00    -0.264 A  
HETATM   19  N   UNL     1     -10.965   8.231  72.069  1.00  0.00    -0.282 NA 
HETATM   20  N   UNL     1     -10.412   9.334  71.587  1.00  0.00    -0.330 NA 
ENDBRANCH  15  16
ENDBRANCH   8  15
TORSDOF 2
ENDMDL
MODEL       81
REMARK 921   NORMALIZED FREE ENERGY PREDICTED BY IDOCK:   -4.01 KCAL/MOL
REMARK 922        TOTAL FREE ENERGY PREDICTED BY IDOCK:   -4.58 KCAL/MOL
REMARK 923 INTER-LIGAND FREE ENERGY PREDICTED BY IDOCK:   -4.28 KCAL/MOL
REMARK 924 INTRA-LIGAND FREE ENERGY PREDICTED BY IDOCK:   -0.30 KCAL/MOL
REMARK 927      BINDING AFFINITY PREDICTED BY RF-SCORE:    0.00 PKD
ROOT
HETATM    1  C   UNL     1      -9.717  12.315  65.874  1.00  0.00    -0.235 C  
HETATM    2  C   UNL     1     -10.337  11.939  64.525  1.00  0.00    -0.334 C  
HETATM    3  C   UNL     1      -9.324  10.797  64.509  1.00  0.00    -0.236 C  
HETATM    4  N   UNL     1      -8.689  11.265  65.629  1.00  0.00    -0.131 N  
HETATM    5  O   UNL     1      -9.223   9.729  63.949  1.00  0.00    -0.256 OA 
HETATM    6  C   UNL     1      -8.367  10.341  66.746  1.00  0.00    -0.124 C  
HETATM    7  C   UNL     1      -7.228  10.992  67.556  1.00  0.00    -0.096 C  
HETATM    8  C   UNL     1      -9.690  10.083  67.521  1.00  0.00    -0.159 C  
HETATM    9  S   UNL     1     -10.477  11.737  67.403  1.00  0.00    -0.217 S  
HETATM   10  O   UNL     1      -9.985  12.555  68.491  1.00  0.00    -0.219 OA 
HETATM   11  O   UNL     1      -6.777  10.565  68.605  1.00  0.00    -0.052 OA 
HETATM   12  O   UNL     1      -6.689  12.089  66.955  1.00  0.00    -0.129 OA 
HETATM   13  C   UNL     1      -9.598   9.685  69.005  1.00  0.00    -0.168 C  
HETATM   14  O   UNL     1     -11.904  11.562  67.197  1.00  0.00    -0.595 OA 
ENDROOT
BRANCH   8  15
HETATM   15  C   UNL     1     -10.657   9.077  66.825  1.00  0.00    -0.131 C  
BRANCH  15  16
HETATM   16  N   UNL     1     -10.324   7.672  66.886  1.00  0.00    -0.314 NA 
HETATM   17  C   UNL     1     -11.032   6.684  67.505  1.00  0.00    -0.338 A  
HETATM   18  C   UNL     1     -10.343   5.539  67.185  1.00  0.00    -0.248 A  
HETATM   19  N   UNL     1      -9.249   5.863  66.435  1.00  0.00    -0.147 NA 
HETATM   20  N   UNL     1      -9.233   7.177  66.279  1.00  0.00    -0.156 NA 
ENDBRANCH  15  16
ENDBRANCH   8  15
TORSDOF 2
ENDMDL
MODEL       82
REMARK 921   NORMALIZED FREE ENERGY PREDICTED BY IDOCK:   -4.01 KCAL/MOL
REMARK 922        TOTAL FREE ENERGY PREDICTED BY IDOCK:   -4.58 KCAL/MOL
REMARK 923 INTER-LIGAND FREE ENERGY PREDICTED BY IDOCK:   -4.28 KCAL/MOL
REMARK 924 INTRA-LIGAND FREE ENERGY PREDICTED BY IDOCK:   -0.30 KCAL/MOL
REMARK 927      BINDING AFFINITY PREDICTED BY RF-SCORE:    0.00 PKD
ROOT
HETATM    1  C   UNL     1     -11.031   7.600  70.136  1.00  0.00    -0.246 C  
HETATM    2  C   UNL     1     -11.202   6.475  69.111  1.00  0.00    -0.367 C  
HETATM    3  C   UNL     1      -9.802   6.035  69.535  1.00  0.00    -0.161 C  
HETATM    4  N   UNL     1      -9.622   7.148  70.312  1.00  0.00    -0.169 N  
HETATM    5  O   UNL     1      -9.157   5.013  69.482  1.00  0.00    -0.103 OA 
HETATM    6  C   UNL     1      -9.109   7.015  71.699  1.00  0.00    -0.138 C  
HETATM    7  C   UNL     1      -8.514   8.382  72.093  1.00  0.00    -0.181 C  
HETATM    8  C   UNL     1     -10.289   6.509  72.577  1.00  0.00    -0.194 C  
HETATM    9  S   UNL     1     -11.691   7.405  71.802  1.00  0.00    -0.299 S  
HETATM   10  O   UNL     1     -11.786   8.717  72.408  1.00  0.00    -0.357 OA 
HETATM   11  O   UNL     1      -8.094   8.674  73.199  1.00  0.00    -0.405 OA 
HETATM   12  O   UNL     1      -8.422   9.257  71.054  1.00  0.00    -0.248 OA 
HETATM   13  C   UNL     1     -10.268   6.833  74.081  1.00  0.00    -0.370 C  
HETATM   14  O   UNL     1     -12.845   6.525  71.764  1.00  0.00    -0.293 OA 
ENDROOT
BRANCH   8  15
HETATM   15  C   UNL     1     -10.595   4.988  72.429  1.00  0.00    -0.215 C  
BRANCH  15  16
HETATM   16  N   UNL     1      -9.804   4.064  73.210  1.00  0.00    -0.125 NA 
HETATM   17  C   UNL     1     -10.236   3.271  74.232  1.00  0.00    -0.163 A  
HETATM   18  C   UNL     1      -9.127   2.529  74.562  1.00  0.00    -0.077 A  
HETATM   19  N   UNL     1      -8.077   2.912  73.778  1.00  0.00    -0.070 NA 
HETATM   20  N   UNL     1      -8.498   3.872  72.969  1.00  0.00    -0.094 NA 
ENDBRANCH  15  16
ENDBRANCH   8  15
TORSDOF 2
ENDMDL
MODEL       83
REMARK 921   NORMALIZED FREE ENERGY PREDICTED BY IDOCK:   -4.01 KCAL/MOL
REMARK 922        TOTAL FREE ENERGY PREDICTED BY IDOCK:   -4.58 KCAL/MOL
REMARK 923 INTER-LIGAND FREE ENERGY PREDICTED BY IDOCK:   -4.62 KCAL/MOL
REMARK 924 INTRA-LIGAND FREE ENERGY PREDICTED BY IDOCK:    0.05 KCAL/MOL
REMARK 927      BINDING AFFINITY PREDICTED BY RF-SCORE:    0.00 PKD
ROOT
HETATM    1  C   UNL     1      -8.507  13.755  68.770  1.00  0.00     0.026 C  
HETATM    2  C   UNL     1      -7.092  14.094  69.248  1.00  0.00    -0.079 C  
HETATM    3  C   UNL     1      -6.783  14.356  67.776  1.00  0.00    -0.175 C  
HETATM    4  N   UNL     1      -8.004  13.883  67.374  1.00  0.00    -0.179 N  
HETATM    5  O   UNL     1      -5.950  14.978  67.157  1.00  0.00    -0.254 OA 
HETATM    6  C   UNL     1      -8.827  14.660  66.413  1.00  0.00    -0.078 C  
HETATM    7  C   UNL     1      -9.813  13.671  65.760  1.00  0.00    -0.211 C  
HETATM    8  C   UNL     1      -9.467  15.834  67.206  1.00  0.00    -0.212 C  
HETATM    9  S   UNL     1      -9.796  15.014  68.814  1.00  0.00    -0.239 S  
HETATM   10  O   UNL     1     -11.080  14.351  68.735  1.00  0.00    -0.236 OA 
HETATM   11  O   UNL     1     -10.712  13.976  64.995  1.00  0.00    -0.347 OA 
HETATM   12  O   UNL     1      -9.554  12.367  66.055  1.00  0.00    -0.242 OA 
HETATM   13  C   UNL     1     -10.783  16.435  66.680  1.00  0.00    -0.173 C  
HETATM   14  O   UNL     1      -9.515  15.954  69.885  1.00  0.00    -0.144 OA 
ENDROOT
BRANCH   8  15
HETATM   15  C   UNL     1      -8.496  17.018  67.498  1.00  0.00    -0.200 C  
BRANCH  15  16
HETATM   16  N   UNL     1      -9.048  18.354  67.514  1.00  0.00    -0.270 NA 
HETATM   17  C   UNL     1      -9.171  19.206  66.456  1.00  0.00    -0.345 A  
HETATM   18  C   UNL     1      -9.835  20.287  66.984  1.00  0.00    -0.467 A  
HETATM   19  N   UNL     1     -10.054  20.079  68.316  1.00  0.00    -0.428 NA 
HETATM   20  N   UNL     1      -9.545  18.900  68.635  1.00  0.00    -0.373 NA 
ENDBRANCH  15  16
ENDBRANCH   8  15
TORSDOF 2
ENDMDL
MODEL       84
REMARK 921   NORMALIZED FREE ENERGY PREDICTED BY IDOCK:   -3.99 KCAL/MOL
REMARK 922        TOTAL FREE ENERGY PREDICTED BY IDOCK:   -4.56 KCAL/MOL
REMARK 923 INTER-LIGAND FREE ENERGY PREDICTED BY IDOCK:   -4.31 KCAL/MOL
REMARK 924 INTRA-LIGAND FREE ENERGY PREDICTED BY IDOCK:   -0.26 KCAL/MOL
REMARK 927      BINDING AFFINITY PREDICTED BY RF-SCORE:    0.00 PKD
ROOT
HETATM    1  C   UNL     1      -7.943   7.544  69.349  1.00  0.00    -0.123 C  
HETATM    2  C   UNL     1      -8.558   7.962  68.010  1.00  0.00    -0.126 C  
HETATM    3  C   UNL     1      -9.632   6.920  68.311  1.00  0.00    -0.128 C  
HETATM    4  N   UNL     1      -8.962   6.459  69.413  1.00  0.00    -0.131 N  
HETATM    5  O   UNL     1     -10.767   6.709  67.949  1.00  0.00    -0.220 OA 
HETATM    6  C   UNL     1      -9.681   6.263  70.697  1.00  0.00    -0.176 C  
HETATM    7  C   UNL     1      -8.851   5.266  71.531  1.00  0.00    -0.134 C  
HETATM    8  C   UNL     1      -9.886   7.670  71.326  1.00  0.00    -0.171 C  
HETATM    9  S   UNL     1      -8.315   8.487  70.841  1.00  0.00    -0.162 S  
HETATM   10  O   UNL     1      -7.311   8.174  71.836  1.00  0.00    -0.075 OA 
HETATM   11  O   UNL     1      -9.084   4.950  72.685  1.00  0.00    -0.130 OA 
HETATM   12  O   UNL     1      -7.835   4.686  70.836  1.00  0.00    -0.073 OA 
HETATM   13  C   UNL     1     -10.041   7.769  72.854  1.00  0.00    -0.363 C  
HETATM   14  O   UNL     1      -8.596   9.866  70.483  1.00  0.00    -0.127 OA 
ENDROOT
BRANCH   8  15
HETATM   15  C   UNL     1     -11.038   8.500  70.683  1.00  0.00    -0.252 C  
BRANCH  15  16
HETATM   16  N   UNL     1     -12.355   8.389  71.268  1.00  0.00    -0.294 NA 
HETATM   17  C   UNL     1     -13.075   9.379  71.870  1.00  0.00    -0.424 A  
HETATM   18  C   UNL     1     -14.276   8.779  72.161  1.00  0.00    -0.426 A  
HETATM   19  N   UNL     1     -14.235   7.470  71.772  1.00  0.00    -0.417 NA 
HETATM   20  N   UNL     1     -13.042   7.236  71.247  1.00  0.00    -0.355 NA 
ENDBRANCH  15  16
ENDBRANCH   8  15
TORSDOF 2
ENDMDL
MODEL       85
REMARK 921   NORMALIZED FREE ENERGY PREDICTED BY IDOCK:   -3.98 KCAL/MOL
REMARK 922        TOTAL FREE ENERGY PREDICTED BY IDOCK:   -4.54 KCAL/MOL
REMARK 923 INTER-LIGAND FREE ENERGY PREDICTED BY IDOCK:   -4.66 KCAL/MOL
REMARK 924 INTRA-LIGAND FREE ENERGY PREDICTED BY IDOCK:    0.12 KCAL/MOL
REMARK 927      BINDING AFFINITY PREDICTED BY RF-SCORE:    0.00 PKD
ROOT
HETATM    1  C   UNL     1     -12.061  13.296  68.624  1.00  0.00    -0.222 C  
HETATM    2  C   UNL     1     -11.830  12.288  69.754  1.00  0.00    -0.388 C  
HETATM    3  C   UNL     1     -11.198  11.406  68.681  1.00  0.00    -0.243 C  
HETATM    4  N   UNL     1     -11.574  12.256  67.675  1.00  0.00    -0.341 N  
HETATM    5  O   UNL     1     -10.425  10.475  68.661  1.00  0.00    -0.171 OA 
HETATM    6  C   UNL     1     -10.593  12.671  66.641  1.00  0.00    -0.248 C  
HETATM    7  C   UNL     1     -11.401  13.136  65.413  1.00  0.00    -0.297 C  
HETATM    8  C   UNL     1      -9.669  13.739  67.291  1.00  0.00    -0.242 C  
HETATM    9  S   UNL     1     -10.876  14.627  68.352  1.00  0.00    -0.254 S  
HETATM   10  O   UNL     1     -11.519  15.650  67.554  1.00  0.00    -0.256 OA 
HETATM   11  O   UNL     1     -10.927  13.643  64.410  1.00  0.00    -0.386 OA 
HETATM   12  O   UNL     1     -12.732  12.865  65.501  1.00  0.00    -0.568 OA 
HETATM   13  C   UNL     1      -8.977  14.760  66.370  1.00  0.00    -0.223 C  
HETATM   14  O   UNL     1     -10.233  14.966  69.609  1.00  0.00    -0.187 OA 
ENDROOT
BRANCH   8  15
HETATM   15  C   UNL     1      -8.582  13.155  68.243  1.00  0.00    -0.166 C  
BRANCH  15  16
HETATM   16  N   UNL     1      -7.670  12.173  67.702  1.00  0.00    -0.137 NA 
HETATM   17  C   UNL     1      -7.822  11.454  66.553  1.00  0.00    -0.105 A  
HETATM   18  C   UNL     1      -6.647  10.748  66.451  1.00  0.00    -0.128 A  
HETATM   19  N   UNL     1      -5.858  11.024  67.531  1.00  0.00    -0.044 NA 
HETATM   20  N   UNL     1      -6.506  11.881  68.304  1.00  0.00    -0.050 NA 
ENDBRANCH  15  16
ENDBRANCH   8  15
TORSDOF 2
ENDMDL
MODEL       86
REMARK 921   NORMALIZED FREE ENERGY PREDICTED BY IDOCK:   -3.94 KCAL/MOL
REMARK 922        TOTAL FREE ENERGY PREDICTED BY IDOCK:   -4.50 KCAL/MOL
REMARK 923 INTER-LIGAND FREE ENERGY PREDICTED BY IDOCK:   -4.20 KCAL/MOL
REMARK 924 INTRA-LIGAND FREE ENERGY PREDICTED BY IDOCK:   -0.30 KCAL/MOL
REMARK 927      BINDING AFFINITY PREDICTED BY RF-SCORE:    0.00 PKD
ROOT
HETATM    1  C   UNL     1      -9.604  14.300  68.205  1.00  0.00    -0.221 C  
HETATM    2  C   UNL     1      -8.097  14.438  67.969  1.00  0.00    -0.142 C  
HETATM    3  C   UNL     1      -8.072  12.911  67.995  1.00  0.00    -0.159 C  
HETATM    4  N   UNL     1      -9.386  12.836  68.374  1.00  0.00    -0.181 N  
HETATM    5  O   UNL     1      -7.331  12.045  67.592  1.00  0.00    -0.102 OA 
HETATM    6  C   UNL     1     -10.314  11.915  67.672  1.00  0.00    -0.200 C  
HETATM    7  C   UNL     1     -11.497  11.652  68.626  1.00  0.00    -0.290 C  
HETATM    8  C   UNL     1     -10.674  12.579  66.312  1.00  0.00    -0.260 C  
HETATM    9  S   UNL     1     -10.740  14.345  66.807  1.00  0.00    -0.296 S  
HETATM   10  O   UNL     1     -12.068  14.628  67.310  1.00  0.00    -0.358 OA 
HETATM   11  O   UNL     1     -12.502  11.022  68.344  1.00  0.00    -0.352 OA 
HETATM   12  O   UNL     1     -11.300  12.133  69.884  1.00  0.00    -0.173 OA 
HETATM   13  C   UNL     1     -12.011  12.201  65.649  1.00  0.00    -0.280 C  
HETATM   14  O   UNL     1     -10.166  15.150  65.744  1.00  0.00    -0.293 OA 
ENDROOT
BRANCH   8  15
HETATM   15  C   UNL     1      -9.562  12.460  65.225  1.00  0.00     0.012 C  
BRANCH  15  16
HETATM   16  N   UNL     1      -9.411  11.189  64.553  1.00  0.00    -0.235 NA 
HETATM   17  C   UNL     1      -9.761  10.891  63.269  1.00  0.00    -0.362 A  
HETATM   18  C   UNL     1      -9.324   9.598  63.104  1.00  0.00     0.042 A  
HETATM   19  N   UNL     1      -8.773   9.153  64.271  1.00  0.00    -0.184 NA 
HETATM   20  N   UNL     1      -8.854  10.130  65.161  1.00  0.00    -0.170 NA 
ENDBRANCH  15  16
ENDBRANCH   8  15
TORSDOF 2
ENDMDL
MODEL       87
REMARK 921   NORMALIZED FREE ENERGY PREDICTED BY IDOCK:   -3.89 KCAL/MOL
REMARK 922        TOTAL FREE ENERGY PREDICTED BY IDOCK:   -4.45 KCAL/MOL
REMARK 923 INTER-LIGAND FREE ENERGY PREDICTED BY IDOCK:   -4.14 KCAL/MOL
REMARK 924 INTRA-LIGAND FREE ENERGY PREDICTED BY IDOCK:   -0.31 KCAL/MOL
REMARK 927      BINDING AFFINITY PREDICTED BY RF-SCORE:    0.00 PKD
ROOT
HETATM    1  C   UNL     1     -10.644   4.884  71.020  1.00  0.00    -0.015 C  
HETATM    2  C   UNL     1      -9.846   4.342  69.831  1.00  0.00    -0.267 C  
HETATM    3  C   UNL     1     -10.212   5.652  69.137  1.00  0.00    -0.236 C  
HETATM    4  N   UNL     1     -11.054   6.023  70.152  1.00  0.00    -0.361 N  
HETATM    5  O   UNL     1      -9.776   6.301  68.214  1.00  0.00    -0.119 OA 
HETATM    6  C   UNL     1     -10.974   7.390  70.726  1.00  0.00    -0.255 C  
HETATM    7  C   UNL     1     -12.329   7.674  71.405  1.00  0.00    -0.333 C  
HETATM    8  C   UNL     1      -9.728   7.423  71.655  1.00  0.00    -0.154 C  
HETATM    9  S   UNL     1      -9.791   5.731  72.363  1.00  0.00    -0.164 S  
HETATM   10  O   UNL     1     -10.667   5.750  73.516  1.00  0.00    -0.254 OA 
HETATM   11  O   UNL     1     -12.589   8.662  72.070  1.00  0.00    -0.332 OA 
HETATM   12  O   UNL     1     -13.280   6.736  71.140  1.00  0.00    -0.214 OA 
HETATM   13  C   UNL     1      -9.709   8.441  72.810  1.00  0.00    -0.298 C  
HETATM   14  O   UNL     1      -8.436   5.220  72.473  1.00  0.00    -0.117 OA 
ENDROOT
BRANCH   8  15
HETATM   15  C   UNL     1      -8.368   7.543  70.903  1.00  0.00    -0.114 C  
BRANCH  15  16
HETATM   16  N   UNL     1      -8.019   8.830  70.344  1.00  0.00    -0.100 NA 
HETATM   17  C   UNL     1      -8.597   9.447  69.274  1.00  0.00    -0.143 A  
HETATM   18  C   UNL     1      -7.968  10.668  69.222  1.00  0.00    -0.135 A  
HETATM   19  N   UNL     1      -7.029  10.737  70.211  1.00  0.00    -0.222 NA 
HETATM   20  N   UNL     1      -7.052   9.593  70.878  1.00  0.00    -0.304 NA 
ENDBRANCH  15  16
ENDBRANCH   8  15
TORSDOF 2
ENDMDL
MODEL       88
REMARK 921   NORMALIZED FREE ENERGY PREDICTED BY IDOCK:   -3.89 KCAL/MOL
REMARK 922        TOTAL FREE ENERGY PREDICTED BY IDOCK:   -4.44 KCAL/MOL
REMARK 923 INTER-LIGAND FREE ENERGY PREDICTED BY IDOCK:   -4.48 KCAL/MOL
REMARK 924 INTRA-LIGAND FREE ENERGY PREDICTED BY IDOCK:    0.04 KCAL/MOL
REMARK 927      BINDING AFFINITY PREDICTED BY RF-SCORE:    0.00 PKD
ROOT
HETATM    1  C   UNL     1      -8.889   5.121  70.798  1.00  0.00    -0.133 C  
HETATM    2  C   UNL     1      -9.959   4.165  71.332  1.00  0.00    -0.223 C  
HETATM    3  C   UNL     1     -10.266   5.261  72.349  1.00  0.00    -0.195 C  
HETATM    4  N   UNL     1      -9.190   6.012  71.954  1.00  0.00    -0.151 N  
HETATM    5  O   UNL     1     -11.203   5.560  73.054  1.00  0.00    -0.285 OA 
HETATM    6  C   UNL     1      -9.352   7.463  71.683  1.00  0.00    -0.149 C  
HETATM    7  C   UNL     1      -7.954   8.103  71.804  1.00  0.00    -0.121 C  
HETATM    8  C   UNL     1     -10.041   7.594  70.295  1.00  0.00    -0.198 C  
HETATM    9  S   UNL     1      -9.261   6.195  69.399  1.00  0.00    -0.133 S  
HETATM   10  O   UNL     1      -8.009   6.654  68.835  1.00  0.00    -0.109 OA 
HETATM   11  O   UNL     1      -7.687   9.264  71.546  1.00  0.00    -0.340 OA 
HETATM   12  O   UNL     1      -7.011   7.261  72.310  1.00  0.00    -0.062 OA 
HETATM   13  C   UNL     1      -9.812   8.885  69.488  1.00  0.00    -0.180 C  
HETATM   14  O   UNL     1     -10.262   5.562  68.558  1.00  0.00    -0.169 OA 
ENDROOT
BRANCH   8  15
HETATM   15  C   UNL     1     -11.574   7.316  70.310  1.00  0.00    -0.174 C  
BRANCH  15  16
HETATM   16  N   UNL     1     -12.408   8.185  71.110  1.00  0.00    -0.262 NA 
HETATM   17  C   UNL     1     -12.229   9.518  71.336  1.00  0.00    -0.371 A  
HETATM   18  C   UNL     1     -13.334   9.876  72.070  1.00  0.00    -0.432 A  
HETATM   19  N   UNL     1     -14.108   8.772  72.292  1.00  0.00    -0.454 NA 
HETATM   20  N   UNL     1     -13.516   7.736  71.719  1.00  0.00    -0.338 NA 
ENDBRANCH  15  16
ENDBRANCH   8  15
TORSDOF 2
ENDMDL
MODEL       89
REMARK 921   NORMALIZED FREE ENERGY PREDICTED BY IDOCK:   -3.89 KCAL/MOL
REMARK 922        TOTAL FREE ENERGY PREDICTED BY IDOCK:   -4.44 KCAL/MOL
REMARK 923 INTER-LIGAND FREE ENERGY PREDICTED BY IDOCK:   -4.68 KCAL/MOL
REMARK 924 INTRA-LIGAND FREE ENERGY PREDICTED BY IDOCK:    0.24 KCAL/MOL
REMARK 927      BINDING AFFINITY PREDICTED BY RF-SCORE:    0.00 PKD
ROOT
HETATM    1  C   UNL     1      -8.330   8.576  68.123  1.00  0.00    -0.127 C  
HETATM    2  C   UNL     1      -7.576   7.906  69.275  1.00  0.00    -0.097 C  
HETATM    3  C   UNL     1      -7.402   9.319  69.828  1.00  0.00    -0.072 C  
HETATM    4  N   UNL     1      -7.930   9.890  68.701  1.00  0.00    -0.085 N  
HETATM    5  O   UNL     1      -7.169   9.809  70.909  1.00  0.00    -0.310 OA 
HETATM    6  C   UNL     1      -8.974  10.939  68.814  1.00  0.00    -0.164 C  
HETATM    7  C   UNL     1      -8.959  11.736  67.494  1.00  0.00    -0.168 C  
HETATM    8  C   UNL     1     -10.310  10.220  69.158  1.00  0.00    -0.223 C  
HETATM    9  S   UNL     1     -10.128   8.684  68.169  1.00  0.00    -0.204 S  
HETATM   10  O   UNL     1     -10.601   8.947  66.826  1.00  0.00    -0.243 OA 
HETATM   11  O   UNL     1      -9.752  12.609  67.190  1.00  0.00    -0.203 OA 
HETATM   12  O   UNL     1      -7.907  11.430  66.685  1.00  0.00    -0.153 OA 
HETATM   13  C   UNL     1     -11.629  10.908  68.763  1.00  0.00    -0.378 C  
HETATM   14  O   UNL     1     -10.659   7.570  68.934  1.00  0.00    -0.211 OA 
ENDROOT
BRANCH   8  15
HETATM   15  C   UNL     1     -10.437   9.780  70.648  1.00  0.00    -0.289 C  
BRANCH  15  16
HETATM   16  N   UNL     1     -11.756   9.787  71.241  1.00  0.00    -0.368 NA 
HETATM   17  C   UNL     1     -12.490   8.705  71.629  1.00  0.00    -0.335 A  
HETATM   18  C   UNL     1     -13.606   9.259  72.208  1.00  0.00    -0.480 A  
HETATM   19  N   UNL     1     -13.534  10.620  72.121  1.00  0.00    -0.280 NA 
HETATM   20  N   UNL     1     -12.406  10.932  71.504  1.00  0.00    -0.291 NA 
ENDBRANCH  15  16
ENDBRANCH   8  15
TORSDOF 2
ENDMDL
MODEL       90
REMARK 921   NORMALIZED FREE ENERGY PREDICTED BY IDOCK:   -3.86 KCAL/MOL
REMARK 922        TOTAL FREE ENERGY PREDICTED BY IDOCK:   -4.42 KCAL/MOL
REMARK 923 INTER-LIGAND FREE ENERGY PREDICTED BY IDOCK:   -4.60 KCAL/MOL
REMARK 924 INTRA-LIGAND FREE ENERGY PREDICTED BY IDOCK:    0.19 KCAL/MOL
REMARK 927      BINDING AFFINITY PREDICTED BY RF-SCORE:    0.00 PKD
ROOT
HETATM    1  C   UNL     1      -9.980  12.902  65.418  1.00  0.00    -0.194 C  
HETATM    2  C   UNL     1     -11.186  12.065  64.982  1.00  0.00    -0.374 C  
HETATM    3  C   UNL     1     -10.840  11.165  66.166  1.00  0.00    -0.185 C  
HETATM    4  N   UNL     1      -9.676  11.841  66.418  1.00  0.00    -0.209 N  
HETATM    5  O   UNL     1     -11.427  10.352  66.843  1.00  0.00    -0.110 OA 
HETATM    6  C   UNL     1      -9.347  12.270  67.800  1.00  0.00    -0.194 C  
HETATM    7  C   UNL     1      -7.821  12.485  67.855  1.00  0.00    -0.144 C  
HETATM    8  C   UNL     1     -10.220  13.519  68.111  1.00  0.00    -0.249 C  
HETATM    9  S   UNL     1     -10.222  14.344  66.472  1.00  0.00    -0.281 S  
HETATM   10  O   UNL     1      -9.041  15.178  66.378  1.00  0.00    -0.276 OA 
HETATM   11  O   UNL     1      -7.207  12.939  68.805  1.00  0.00    -0.102 OA 
HETATM   12  O   UNL     1      -7.168  12.047  66.743  1.00  0.00    -0.086 OA 
HETATM   13  C   UNL     1      -9.711  14.518  69.166  1.00  0.00    -0.062 C  
HETATM   14  O   UNL     1     -11.540  14.903  66.231  1.00  0.00    -0.328 OA 
ENDROOT
BRANCH   8  15
HETATM   15  C   UNL     1     -11.706  13.196  68.451  1.00  0.00    -0.351 C  
BRANCH  15  16
HETATM   16  N   UNL     1     -11.966  12.333  69.582  1.00  0.00    -0.301 NA 
HETATM   17  C   UNL     1     -11.619  11.021  69.713  1.00  0.00    -0.325 A  
HETATM   18  C   UNL     1     -12.008  10.707  70.993  1.00  0.00    -0.339 A  
HETATM   19  N   UNL     1     -12.596  11.797  71.568  1.00  0.00    -0.269 NA 
HETATM   20  N   UNL     1     -12.587  12.782  70.684  1.00  0.00    -0.225 NA 
ENDBRANCH  15  16
ENDBRANCH   8  15
TORSDOF 2
ENDMDL
MODEL       91
REMARK 921   NORMALIZED FREE ENERGY PREDICTED BY IDOCK:   -3.84 KCAL/MOL
REMARK 922        TOTAL FREE ENERGY PREDICTED BY IDOCK:   -4.40 KCAL/MOL
REMARK 923 INTER-LIGAND FREE ENERGY PREDICTED BY IDOCK:   -4.33 KCAL/MOL
REMARK 924 INTRA-LIGAND FREE ENERGY PREDICTED BY IDOCK:   -0.07 KCAL/MOL
REMARK 927      BINDING AFFINITY PREDICTED BY RF-SCORE:    0.00 PKD
ROOT
HETATM    1  C   UNL     1      -8.934   8.152  72.923  1.00  0.00    -0.260 C  
HETATM    2  C   UNL     1      -7.489   8.309  72.443  1.00  0.00    -0.153 C  
HETATM    3  C   UNL     1      -7.523   6.798  72.219  1.00  0.00    -0.092 C  
HETATM    4  N   UNL     1      -8.752   6.678  72.812  1.00  0.00    -0.123 N  
HETATM    5  O   UNL     1      -6.901   6.002  71.554  1.00  0.00    -0.063 OA 
HETATM    6  C   UNL     1      -9.827   5.897  72.150  1.00  0.00    -0.162 C  
HETATM    7  C   UNL     1     -10.833   5.494  73.248  1.00  0.00    -0.293 C  
HETATM    8  C   UNL     1     -10.392   6.781  71.002  1.00  0.00    -0.206 C  
HETATM    9  S   UNL     1     -10.297   8.441  71.778  1.00  0.00    -0.290 S  
HETATM   10  O   UNL     1     -11.502   8.654  72.552  1.00  0.00    -0.348 OA 
HETATM   11  O   UNL     1     -11.897   4.932  73.055  1.00  0.00    -0.251 OA 
HETATM   12  O   UNL     1     -10.397   5.758  74.511  1.00  0.00    -0.271 OA 
HETATM   13  C   UNL     1     -11.840   6.535  70.541  1.00  0.00    -0.393 C  
HETATM   14  O   UNL     1      -9.885   9.404  70.772  1.00  0.00    -0.264 OA 
ENDROOT
BRANCH   8  15
HETATM   15  C   UNL     1      -9.496   6.830  69.728  1.00  0.00    -0.144 C  
BRANCH  15  16
HETATM   16  N   UNL     1      -9.951   6.115  68.557  1.00  0.00    -0.140 NA 
HETATM   17  C   UNL     1     -10.688   6.612  67.524  1.00  0.00    -0.317 A  
HETATM   18  C   UNL     1     -10.764   5.562  66.641  1.00  0.00    -0.261 A  
HETATM   19  N   UNL     1     -10.121   4.479  67.169  1.00  0.00    -0.157 NA 
HETATM   20  N   UNL     1      -9.647   4.823  68.356  1.00  0.00    -0.144 NA 
ENDBRANCH  15  16
ENDBRANCH   8  15
TORSDOF 2
ENDMDL
MODEL       92
REMARK 921   NORMALIZED FREE ENERGY PREDICTED BY IDOCK:   -3.84 KCAL/MOL
REMARK 922        TOTAL FREE ENERGY PREDICTED BY IDOCK:   -4.40 KCAL/MOL
REMARK 923 INTER-LIGAND FREE ENERGY PREDICTED BY IDOCK:   -4.42 KCAL/MOL
REMARK 924 INTRA-LIGAND FREE ENERGY PREDICTED BY IDOCK:    0.02 KCAL/MOL
REMARK 927      BINDING AFFINITY PREDICTED BY RF-SCORE:    0.00 PKD
ROOT
HETATM    1  C   UNL     1      -8.499   8.571  66.854  1.00  0.00    -0.113 C  
HETATM    2  C   UNL     1      -9.706   7.647  67.034  1.00  0.00    -0.255 C  
HETATM    3  C   UNL     1      -9.962   8.424  68.323  1.00  0.00    -0.187 C  
HETATM    4  N   UNL     1      -8.783   9.112  68.213  1.00  0.00    -0.129 N  
HETATM    5  O   UNL     1     -10.910   8.620  69.049  1.00  0.00    -0.153 OA 
HETATM    6  C   UNL     1      -8.760  10.586  68.387  1.00  0.00    -0.137 C  
HETATM    7  C   UNL     1      -7.312  10.976  68.748  1.00  0.00    -0.111 C  
HETATM    8  C   UNL     1      -9.325  11.210  67.079  1.00  0.00    -0.170 C  
HETATM    9  S   UNL     1      -8.643  10.049  65.832  1.00  0.00    -0.144 S  
HETATM   10  O   UNL     1      -7.309  10.488  65.480  1.00  0.00    -0.147 OA 
HETATM   11  O   UNL     1      -6.898  12.117  68.862  1.00  0.00    -0.090 OA 
HETATM   12  O   UNL     1      -6.509   9.908  69.010  1.00  0.00    -0.047 OA 
HETATM   13  C   UNL     1      -8.894  12.640  66.709  1.00  0.00    -0.168 C  
HETATM   14  O   UNL     1      -9.643   9.827  64.802  1.00  0.00    -0.293 OA 
ENDROOT
BRANCH   8  15
HETATM   15  C   UNL     1     -10.877  11.140  66.952  1.00  0.00    -0.279 C  
BRANCH  15  16
HETATM   16  N   UNL     1     -11.544  12.217  66.256  1.00  0.00    -0.417 NA 
HETATM   17  C   UNL     1     -11.795  12.302  64.918  1.00  0.00    -0.358 A  
HETATM   18  C   UNL     1     -12.525  13.460  64.795  1.00  0.00    -0.365 A  
HETATM   19  N   UNL     1     -12.658  14.044  66.022  1.00  0.00    -0.468 NA 
HETATM   20  N   UNL     1     -12.031  13.286  66.908  1.00  0.00    -0.387 NA 
ENDBRANCH  15  16
ENDBRANCH   8  15
TORSDOF 2
ENDMDL
MODEL       93
REMARK 921   NORMALIZED FREE ENERGY PREDICTED BY IDOCK:   -3.80 KCAL/MOL
REMARK 922        TOTAL FREE ENERGY PREDICTED BY IDOCK:   -4.35 KCAL/MOL
REMARK 923 INTER-LIGAND FREE ENERGY PREDICTED BY IDOCK:   -4.45 KCAL/MOL
REMARK 924 INTRA-LIGAND FREE ENERGY PREDICTED BY IDOCK:    0.10 KCAL/MOL
REMARK 927      BINDING AFFINITY PREDICTED BY RF-SCORE:    0.00 PKD
ROOT
HETATM    1  C   UNL     1     -10.507  10.172  68.567  1.00  0.00    -0.195 C  
HETATM    2  C   UNL     1      -9.753   9.964  69.883  1.00  0.00    -0.274 C  
HETATM    3  C   UNL     1      -8.485  10.077  69.039  1.00  0.00    -0.147 C  
HETATM    4  N   UNL     1      -9.195  10.089  67.867  1.00  0.00    -0.137 N  
HETATM    5  O   UNL     1      -7.322  10.337  69.244  1.00  0.00    -0.076 OA 
HETATM    6  C   UNL     1      -8.902  11.107  66.827  1.00  0.00    -0.161 C  
HETATM    7  C   UNL     1      -9.429  10.551  65.489  1.00  0.00    -0.216 C  
HETATM    8  C   UNL     1      -9.537  12.444  67.305  1.00  0.00    -0.199 C  
HETATM    9  S   UNL     1     -11.067  11.822  68.104  1.00  0.00    -0.267 S  
HETATM   10  O   UNL     1     -12.090  11.685  67.087  1.00  0.00    -0.575 OA 
HETATM   11  O   UNL     1      -9.454  11.161  64.434  1.00  0.00    -0.232 OA 
HETATM   12  O   UNL     1      -9.819   9.248  65.556  1.00  0.00    -0.265 OA 
HETATM   13  C   UNL     1      -9.924  13.486  66.240  1.00  0.00    -0.302 C  
HETATM   14  O   UNL     1     -11.318  12.601  69.303  1.00  0.00    -0.260 OA 
ENDROOT
BRANCH   8  15
HETATM   15  C   UNL     1      -8.723  13.182  68.410  1.00  0.00    -0.120 C  
BRANCH  15  16
HETATM   16  N   UNL     1      -8.705  14.627  68.380  1.00  0.00    -0.169 NA 
HETATM   17  C   UNL     1      -9.374  15.477  69.212  1.00  0.00    -0.266 A  
HETATM   18  C   UNL     1      -8.943  16.722  68.822  1.00  0.00    -0.254 A  
HETATM   19  N   UNL     1      -8.081  16.595  67.771  1.00  0.00    -0.174 NA 
HETATM   20  N   UNL     1      -7.961  15.306  67.493  1.00  0.00    -0.160 NA 
ENDBRANCH  15  16
ENDBRANCH   8  15
TORSDOF 2
ENDMDL
MODEL       94
REMARK 921   NORMALIZED FREE ENERGY PREDICTED BY IDOCK:   -3.79 KCAL/MOL
REMARK 922        TOTAL FREE ENERGY PREDICTED BY IDOCK:   -4.34 KCAL/MOL
REMARK 923 INTER-LIGAND FREE ENERGY PREDICTED BY IDOCK:   -4.25 KCAL/MOL
REMARK 924 INTRA-LIGAND FREE ENERGY PREDICTED BY IDOCK:   -0.09 KCAL/MOL
REMARK 927      BINDING AFFINITY PREDICTED BY RF-SCORE:    0.00 PKD
ROOT
HETATM    1  C   UNL     1      -9.249   8.833  66.830  1.00  0.00    -0.156 C  
HETATM    2  C   UNL     1     -10.524   8.060  67.178  1.00  0.00    -0.408 C  
HETATM    3  C   UNL     1     -10.406   8.714  68.553  1.00  0.00    -0.196 C  
HETATM    4  N   UNL     1      -9.181   9.250  68.259  1.00  0.00    -0.132 N  
HETATM    5  O   UNL     1     -11.155   8.949  69.473  1.00  0.00    -0.146 OA 
HETATM    6  C   UNL     1      -8.903  10.680  68.547  1.00  0.00    -0.148 C  
HETATM    7  C   UNL     1      -7.371  10.833  68.632  1.00  0.00    -0.097 C  
HETATM    8  C   UNL     1      -9.609  11.515  67.441  1.00  0.00    -0.168 C  
HETATM    9  S   UNL     1      -9.363  10.422  65.987  1.00  0.00    -0.188 S  
HETATM   10  O   UNL     1      -8.072  10.720  65.404  1.00  0.00    -0.138 OA 
HETATM   11  O   UNL     1      -6.775  11.890  68.753  1.00  0.00    -0.075 OA 
HETATM   12  O   UNL     1      -6.703   9.647  68.632  1.00  0.00    -0.052 OA 
HETATM   13  C   UNL     1      -9.046  12.909  67.111  1.00  0.00    -0.220 C  
HETATM   14  O   UNL     1     -10.565  10.451  65.172  1.00  0.00    -0.191 OA 
ENDROOT
BRANCH   8  15
HETATM   15  C   UNL     1     -11.148  11.664  67.633  1.00  0.00    -0.255 C  
BRANCH  15  16
HETATM   16  N   UNL     1     -11.614  12.426  68.770  1.00  0.00    -0.303 NA 
HETATM   17  C   UNL     1     -11.934  13.751  68.798  1.00  0.00    -0.365 A  
HETATM   18  C   UNL     1     -12.403  13.948  70.075  1.00  0.00    -0.316 A  
HETATM   19  N   UNL     1     -12.319  12.777  70.773  1.00  0.00    -0.354 NA 
HETATM   20  N   UNL     1     -11.810  11.856  69.970  1.00  0.00    -0.337 NA 
ENDBRANCH  15  16
ENDBRANCH   8  15
TORSDOF 2
ENDMDL
MODEL       95
REMARK 921   NORMALIZED FREE ENERGY PREDICTED BY IDOCK:   -3.78 KCAL/MOL
REMARK 922        TOTAL FREE ENERGY PREDICTED BY IDOCK:   -4.32 KCAL/MOL
REMARK 923 INTER-LIGAND FREE ENERGY PREDICTED BY IDOCK:   -4.02 KCAL/MOL
REMARK 924 INTRA-LIGAND FREE ENERGY PREDICTED BY IDOCK:   -0.31 KCAL/MOL
REMARK 927      BINDING AFFINITY PREDICTED BY RF-SCORE:    0.00 PKD
ROOT
HETATM    1  C   UNL     1      -9.788  10.394  68.079  1.00  0.00    -0.150 C  
HETATM    2  C   UNL     1     -10.526  11.485  68.860  1.00  0.00    -0.212 C  
HETATM    3  C   UNL     1     -11.390  10.349  69.403  1.00  0.00    -0.250 C  
HETATM    4  N   UNL     1     -10.818   9.432  68.561  1.00  0.00    -0.155 N  
HETATM    5  O   UNL     1     -12.104  10.180  70.365  1.00  0.00    -0.272 OA 
HETATM    6  C   UNL     1     -10.349   8.126  69.088  1.00  0.00    -0.220 C  
HETATM    7  C   UNL     1     -10.283   7.154  67.893  1.00  0.00    -0.187 C  
HETATM    8  C   UNL     1      -9.005   8.387  69.827  1.00  0.00    -0.146 C  
HETATM    9  S   UNL     1      -8.274   9.679  68.747  1.00  0.00    -0.109 S  
HETATM   10  O   UNL     1      -7.567   9.024  67.666  1.00  0.00    -0.091 OA 
HETATM   11  O   UNL     1      -9.840   6.019  67.932  1.00  0.00    -0.112 OA 
HETATM   12  O   UNL     1     -10.842   7.650  66.755  1.00  0.00    -0.274 OA 
HETATM   13  C   UNL     1      -8.005   7.224  69.951  1.00  0.00    -0.122 C  
HETATM   14  O   UNL     1      -7.603  10.660  69.580  1.00  0.00    -0.149 OA 
ENDROOT
BRANCH   8  15
HETATM   15  C   UNL     1      -9.163   9.024  71.241  1.00  0.00    -0.244 C  
BRANCH  15  16
HETATM   16  N   UNL     1      -9.561   8.158  72.328  1.00  0.00    -0.224 NA 
HETATM   17  C   UNL     1      -8.792   7.747  73.377  1.00  0.00    -0.242 A  
HETATM   18  C   UNL     1      -9.664   7.029  74.160  1.00  0.00    -0.271 A  
HETATM   19  N   UNL     1     -10.890   6.995  73.559  1.00  0.00    -0.323 NA 
HETATM   20  N   UNL     1     -10.808   7.670  72.423  1.00  0.00    -0.264 NA 
ENDBRANCH  15  16
ENDBRANCH   8  15
TORSDOF 2
ENDMDL
MODEL       96
REMARK 921   NORMALIZED FREE ENERGY PREDICTED BY IDOCK:   -3.76 KCAL/MOL
REMARK 922        TOTAL FREE ENERGY PREDICTED BY IDOCK:   -4.30 KCAL/MOL
REMARK 923 INTER-LIGAND FREE ENERGY PREDICTED BY IDOCK:   -4.36 KCAL/MOL
REMARK 924 INTRA-LIGAND FREE ENERGY PREDICTED BY IDOCK:    0.06 KCAL/MOL
REMARK 927      BINDING AFFINITY PREDICTED BY RF-SCORE:    0.00 PKD
ROOT
HETATM    1  C   UNL     1      -8.374   7.755  66.337  1.00  0.00    -0.131 C  
HETATM    2  C   UNL     1      -8.247   9.003  65.459  1.00  0.00    -0.124 C  
HETATM    3  C   UNL     1      -9.692   9.290  65.861  1.00  0.00    -0.285 C  
HETATM    4  N   UNL     1      -9.819   8.083  66.495  1.00  0.00    -0.236 N  
HETATM    5  O   UNL     1     -10.410  10.263  65.894  1.00  0.00    -0.237 OA 
HETATM    6  C   UNL     1     -10.396   8.015  67.861  1.00  0.00    -0.222 C  
HETATM    7  C   UNL     1     -10.902   6.572  68.065  1.00  0.00    -0.295 C  
HETATM    8  C   UNL     1      -9.294   8.494  68.848  1.00  0.00    -0.146 C  
HETATM    9  S   UNL     1      -7.798   7.797  68.045  1.00  0.00    -0.126 S  
HETATM   10  O   UNL     1      -7.629   6.432  68.500  1.00  0.00    -0.093 OA 
HETATM   11  O   UNL     1     -11.343   6.122  69.109  1.00  0.00    -0.399 OA 
HETATM   12  O   UNL     1     -10.886   5.822  66.929  1.00  0.00    -0.295 OA 
HETATM   13  C   UNL     1      -9.352   7.994  70.302  1.00  0.00    -0.159 C  
HETATM   14  O   UNL     1      -6.713   8.755  68.165  1.00  0.00    -0.063 OA 
ENDROOT
BRANCH   8  15
HETATM   15  C   UNL     1      -9.099  10.040  68.891  1.00  0.00    -0.159 C  
BRANCH  15  16
HETATM   16  N   UNL     1     -10.253  10.856  69.192  1.00  0.00    -0.214 NA 
HETATM   17  C   UNL     1     -10.652  11.989  68.545  1.00  0.00    -0.231 A  
HETATM   18  C   UNL     1     -11.840  12.312  69.155  1.00  0.00    -0.301 A  
HETATM   19  N   UNL     1     -12.099  11.412  70.149  1.00  0.00    -0.344 NA 
HETATM   20  N   UNL     1     -11.106  10.537  70.178  1.00  0.00    -0.300 NA 
ENDBRANCH  15  16
ENDBRANCH   8  15
TORSDOF 2
ENDMDL
MODEL       97
REMARK 921   NORMALIZED FREE ENERGY PREDICTED BY IDOCK:   -3.75 KCAL/MOL
REMARK 922        TOTAL FREE ENERGY PREDICTED BY IDOCK:   -4.30 KCAL/MOL
REMARK 923 INTER-LIGAND FREE ENERGY PREDICTED BY IDOCK:   -4.02 KCAL/MOL
REMARK 924 INTRA-LIGAND FREE ENERGY PREDICTED BY IDOCK:   -0.27 KCAL/MOL
REMARK 927      BINDING AFFINITY PREDICTED BY RF-SCORE:    0.00 PKD
ROOT
HETATM    1  C   UNL     1     -10.588   6.064  69.019  1.00  0.00    -0.291 C  
HETATM    2  C   UNL     1      -9.445   5.071  68.793  1.00  0.00    -0.192 C  
HETATM    3  C   UNL     1      -8.530   6.292  68.844  1.00  0.00    -0.120 C  
HETATM    4  N   UNL     1      -9.589   7.160  68.874  1.00  0.00    -0.142 N  
HETATM    5  O   UNL     1      -7.356   6.493  69.058  1.00  0.00    -0.088 OA 
HETATM    6  C   UNL     1      -9.624   8.261  69.868  1.00  0.00    -0.171 C  
HETATM    7  C   UNL     1     -10.589   9.333  69.321  1.00  0.00    -0.222 C  
HETATM    8  C   UNL     1     -10.014   7.631  71.235  1.00  0.00    -0.179 C  
HETATM    9  S   UNL     1     -11.211   6.353  70.686  1.00  0.00    -0.355 S  
HETATM   10  O   UNL     1     -12.519   6.966  70.582  1.00  0.00    -0.321 OA 
HETATM   11  O   UNL     1     -10.943  10.333  69.921  1.00  0.00    -0.260 OA 
HETATM   12  O   UNL     1     -10.980   9.109  68.036  1.00  0.00    -0.125 OA 
HETATM   13  C   UNL     1     -10.697   8.529  72.282  1.00  0.00    -0.411 C  
HETATM   14  O   UNL     1     -11.018   5.157  71.487  1.00  0.00    -0.103 OA 
ENDROOT
BRANCH   8  15
HETATM   15  C   UNL     1      -8.852   6.878  71.950  1.00  0.00    -0.126 C  
BRANCH  15  16
HETATM   16  N   UNL     1      -7.894   7.667  72.691  1.00  0.00    -0.095 NA 
HETATM   17  C   UNL     1      -7.573   7.547  74.011  1.00  0.00    -0.128 A  
HETATM   18  C   UNL     1      -6.557   8.455  74.184  1.00  0.00    -0.133 A  
HETATM   19  N   UNL     1      -6.325   9.106  73.006  1.00  0.00    -0.310 NA 
HETATM   20  N   UNL     1      -7.168   8.631  72.103  1.00  0.00    -0.252 NA 
ENDBRANCH  15  16
ENDBRANCH   8  15
TORSDOF 2
ENDMDL
MODEL       98
REMARK 921   NORMALIZED FREE ENERGY PREDICTED BY IDOCK:   -3.75 KCAL/MOL
REMARK 922        TOTAL FREE ENERGY PREDICTED BY IDOCK:   -4.29 KCAL/MOL
REMARK 923 INTER-LIGAND FREE ENERGY PREDICTED BY IDOCK:   -4.45 KCAL/MOL
REMARK 924 INTRA-LIGAND FREE ENERGY PREDICTED BY IDOCK:    0.15 KCAL/MOL
REMARK 927      BINDING AFFINITY PREDICTED BY RF-SCORE:    0.00 PKD
ROOT
HETATM    1  C   UNL     1      -8.660   6.768  68.411  1.00  0.00    -0.125 C  
HETATM    2  C   UNL     1      -8.349   5.598  69.347  1.00  0.00    -0.107 C  
HETATM    3  C   UNL     1      -7.912   6.666  70.347  1.00  0.00    -0.115 C  
HETATM    4  N   UNL     1      -8.042   7.669  69.424  1.00  0.00    -0.125 N  
HETATM    5  O   UNL     1      -7.768   6.730  71.547  1.00  0.00    -0.094 OA 
HETATM    6  C   UNL     1      -8.768   8.916  69.772  1.00  0.00    -0.139 C  
HETATM    7  C   UNL     1      -8.286  10.007  68.795  1.00  0.00    -0.121 C  
HETATM    8  C   UNL     1     -10.287   8.587  69.729  1.00  0.00    -0.212 C  
HETATM    9  S   UNL     1     -10.338   7.420  68.314  1.00  0.00    -0.187 S  
HETATM   10  O   UNL     1     -10.456   8.188  67.092  1.00  0.00    -0.295 OA 
HETATM   11  O   UNL     1      -8.743  11.134  68.718  1.00  0.00    -0.161 OA 
HETATM   12  O   UNL     1      -7.220   9.628  68.037  1.00  0.00    -0.079 OA 
HETATM   13  C   UNL     1     -11.273   9.738  69.455  1.00  0.00    -0.181 C  
HETATM   14  O   UNL     1     -11.285   6.361  68.615  1.00  0.00    -0.329 OA 
ENDROOT
BRANCH   8  15
HETATM   15  C   UNL     1     -10.811   7.807  70.972  1.00  0.00    -0.239 C  
BRANCH  15  16
HETATM   16  N   UNL     1     -12.144   8.109  71.444  1.00  0.00    -0.293 NA 
HETATM   17  C   UNL     1     -12.542   9.218  72.131  1.00  0.00    -0.371 A  
HETATM   18  C   UNL     1     -13.902   9.058  72.250  1.00  0.00    -0.484 A  
HETATM   19  N   UNL     1     -14.270   7.873  71.680  1.00  0.00    -0.442 NA 
HETATM   20  N   UNL     1     -13.180   7.288  71.210  1.00  0.00    -0.347 NA 
ENDBRANCH  15  16
ENDBRANCH   8  15
TORSDOF 2
ENDMDL
MODEL       99
REMARK 921   NORMALIZED FREE ENERGY PREDICTED BY IDOCK:   -3.73 KCAL/MOL
REMARK 922        TOTAL FREE ENERGY PREDICTED BY IDOCK:   -4.27 KCAL/MOL
REMARK 923 INTER-LIGAND FREE ENERGY PREDICTED BY IDOCK:   -3.99 KCAL/MOL
REMARK 924 INTRA-LIGAND FREE ENERGY PREDICTED BY IDOCK:   -0.27 KCAL/MOL
REMARK 927      BINDING AFFINITY PREDICTED BY RF-SCORE:    0.00 PKD
ROOT
HETATM    1  C   UNL     1     -11.422   7.276  72.482  1.00  0.00    -0.281 C  
HETATM    2  C   UNL     1     -12.628   6.799  71.668  1.00  0.00    -0.380 C  
HETATM    3  C   UNL     1     -11.680   6.818  70.471  1.00  0.00    -0.375 C  
HETATM    4  N   UNL     1     -10.678   7.404  71.198  1.00  0.00    -0.230 N  
HETATM    5  O   UNL     1     -11.644   6.297  69.379  1.00  0.00    -0.403 OA 
HETATM    6  C   UNL     1      -9.298   6.859  71.143  1.00  0.00    -0.162 C  
HETATM    7  C   UNL     1      -8.348   7.992  71.581  1.00  0.00    -0.124 C  
HETATM    8  C   UNL     1      -9.278   5.577  72.023  1.00  0.00    -0.140 C  
HETATM    9  S   UNL     1     -10.412   6.080  73.376  1.00  0.00    -0.265 S  
HETATM   10  O   UNL     1      -9.643   6.793  74.375  1.00  0.00    -0.242 OA 
HETATM   11  O   UNL     1      -7.147   7.875  71.755  1.00  0.00    -0.062 OA 
HETATM   12  O   UNL     1      -8.959   9.203  71.698  1.00  0.00    -0.336 OA 
HETATM   13  C   UNL     1      -7.938   5.139  72.640  1.00  0.00    -0.102 C  
HETATM   14  O   UNL     1     -11.230   4.940  73.748  1.00  0.00    -0.296 OA 
ENDROOT
BRANCH   8  15
HETATM   15  C   UNL     1      -9.915   4.325  71.348  1.00  0.00    -0.168 C  
BRANCH  15  16
HETATM   16  N   UNL     1      -9.168   3.675  70.295  1.00  0.00    -0.135 NA 
HETATM   17  C   UNL     1      -8.500   2.488  70.371  1.00  0.00    -0.050 A  
HETATM   18  C   UNL     1      -8.051   2.283  69.088  1.00  0.00    -0.044 A  
HETATM   19  N   UNL     1      -8.417   3.341  68.306  1.00  0.00    -0.082 NA 
HETATM   20  N   UNL     1      -9.082   4.200  69.062  1.00  0.00    -0.117 NA 
ENDBRANCH  15  16
ENDBRANCH   8  15
TORSDOF 2
ENDMDL
MODEL      100
REMARK 921   NORMALIZED FREE ENERGY PREDICTED BY IDOCK:   -3.73 KCAL/MOL
REMARK 922        TOTAL FREE ENERGY PREDICTED BY IDOCK:   -4.27 KCAL/MOL
REMARK 923 INTER-LIGAND FREE ENERGY PREDICTED BY IDOCK:   -4.22 KCAL/MOL
REMARK 924 INTRA-LIGAND FREE ENERGY PREDICTED BY IDOCK:   -0.05 KCAL/MOL
REMARK 927      BINDING AFFINITY PREDICTED BY RF-SCORE:    0.00 PKD
ROOT
HETATM    1  C   UNL     1      -7.513   6.466  70.780  1.00  0.00    -0.087 C  
HETATM    2  C   UNL     1      -6.962   7.449  71.817  1.00  0.00    -0.062 C  
HETATM    3  C   UNL     1      -7.555   8.539  70.927  1.00  0.00    -0.080 C  
HETATM    4  N   UNL     1      -7.881   7.643  69.944  1.00  0.00    -0.101 N  
HETATM    5  O   UNL     1      -7.894   9.692  71.069  1.00  0.00    -0.310 OA 
HETATM    6  C   UNL     1      -9.235   7.661  69.336  1.00  0.00    -0.149 C  
HETATM    7  C   UNL     1      -9.123   6.967  67.964  1.00  0.00    -0.120 C  
HETATM    8  C   UNL     1     -10.202   6.997  70.356  1.00  0.00    -0.196 C  
HETATM    9  S   UNL     1      -9.117   5.687  71.046  1.00  0.00    -0.146 S  
HETATM   10  O   UNL     1      -9.203   4.524  70.188  1.00  0.00    -0.109 OA 
HETATM   11  O   UNL     1     -10.059   6.707  67.228  1.00  0.00    -0.141 OA 
HETATM   12  O   UNL     1      -7.840   6.715  67.583  1.00  0.00    -0.108 OA 
HETATM   13  C   UNL     1     -11.487   6.341  69.820  1.00  0.00    -0.449 C  
HETATM   14  O   UNL     1      -9.368   5.574  72.471  1.00  0.00    -0.143 OA 
ENDROOT
BRANCH   8  15
HETATM   15  C   UNL     1     -10.608   7.915  71.549  1.00  0.00    -0.222 C  
BRANCH  15  16
HETATM   16  N   UNL     1     -11.368   9.108  71.251  1.00  0.00    -0.306 NA 
HETATM   17  C   UNL     1     -12.556   9.487  71.804  1.00  0.00    -0.405 A  
HETATM   18  C   UNL     1     -12.793  10.723  71.253  1.00  0.00    -0.438 A  
HETATM   19  N   UNL     1     -11.788  11.031  70.381  1.00  0.00    -0.344 NA 
HETATM   20  N   UNL     1     -10.932  10.022  70.369  1.00  0.00    -0.301 NA 
ENDBRANCH  15  16
ENDBRANCH   8  15
TORSDOF 2
ENDMDL
MODEL      101
REMARK 921   NORMALIZED FREE ENERGY PREDICTED BY IDOCK:   -3.73 KCAL/MOL
REMARK 922        TOTAL FREE ENERGY PREDICTED BY IDOCK:   -4.26 KCAL/MOL
REMARK 923 INTER-LIGAND FREE ENERGY PREDICTED BY IDOCK:   -4.14 KCAL/MOL
REMARK 924 INTRA-LIGAND FREE ENERGY PREDICTED BY IDOCK:   -0.13 KCAL/MOL
REMARK 927      BINDING AFFINITY PREDICTED BY RF-SCORE:    0.00 PKD
ROOT
HETATM    1  C   UNL     1      -9.120   8.089  69.295  1.00  0.00    -0.148 C  
HETATM    2  C   UNL     1      -9.219   6.780  68.508  1.00  0.00    -0.128 C  
HETATM    3  C   UNL     1     -10.514   7.356  67.938  1.00  0.00    -0.205 C  
HETATM    4  N   UNL     1     -10.477   8.433  68.784  1.00  0.00    -0.205 N  
HETATM    5  O   UNL     1     -11.199   7.161  66.961  1.00  0.00    -0.277 OA 
HETATM    6  C   UNL     1     -10.688   9.804  68.256  1.00  0.00    -0.233 C  
HETATM    7  C   UNL     1     -11.127  10.683  69.445  1.00  0.00    -0.260 C  
HETATM    8  C   UNL     1      -9.370  10.229  67.548  1.00  0.00    -0.148 C  
HETATM    9  S   UNL     1      -8.128   9.451  68.653  1.00  0.00    -0.105 S  
HETATM   10  O   UNL     1      -7.851  10.363  69.743  1.00  0.00    -0.157 OA 
HETATM   11  O   UNL     1     -11.288  11.891  69.406  1.00  0.00    -0.259 OA 
HETATM   12  O   UNL     1     -11.401   9.975  70.575  1.00  0.00    -0.284 OA 
HETATM   13  C   UNL     1      -9.056  11.732  67.434  1.00  0.00    -0.175 C  
HETATM   14  O   UNL     1      -7.048   8.919  67.841  1.00  0.00    -0.077 OA 
ENDROOT
BRANCH   8  15
HETATM   15  C   UNL     1      -9.168   9.600  66.136  1.00  0.00    -0.174 C  
BRANCH  15  16
HETATM   16  N   UNL     1      -9.649  10.344  64.993  1.00  0.00    -0.254 NA 
HETATM   17  C   UNL     1     -10.890  10.885  64.826  1.00  0.00    -0.083 A  
HETATM   18  C   UNL     1     -10.796  11.555  63.630  1.00  0.00    -0.415 A  
HETATM   19  N   UNL     1      -9.548  11.374  63.106  1.00  0.00    -0.369 NA 
HETATM   20  N   UNL     1      -8.860  10.608  63.939  1.00  0.00    -0.179 NA 
ENDBRANCH  15  16
ENDBRANCH   8  15
TORSDOF 2
ENDMDL
MODEL      102
REMARK 921   NORMALIZED FREE ENERGY PREDICTED BY IDOCK:   -3.67 KCAL/MOL
REMARK 922        TOTAL FREE ENERGY PREDICTED BY IDOCK:   -4.21 KCAL/MOL
REMARK 923 INTER-LIGAND FREE ENERGY PREDICTED BY IDOCK:   -3.93 KCAL/MOL
REMARK 924 INTRA-LIGAND FREE ENERGY PREDICTED BY IDOCK:   -0.27 KCAL/MOL
REMARK 927      BINDING AFFINITY PREDICTED BY RF-SCORE:    0.00 PKD
ROOT
HETATM    1  C   UNL     1      -8.160  11.295  66.335  1.00  0.00    -0.138 C  
HETATM    2  C   UNL     1      -6.740  11.574  66.836  1.00  0.00    -0.139 C  
HETATM    3  C   UNL     1      -7.393  11.820  68.194  1.00  0.00    -0.094 C  
HETATM    4  N   UNL     1      -8.655  11.731  67.671  1.00  0.00    -0.146 N  
HETATM    5  O   UNL     1      -7.030  11.820  69.348  1.00  0.00    -0.099 OA 
HETATM    6  C   UNL     1      -9.681  10.888  68.335  1.00  0.00    -0.176 C  
HETATM    7  C   UNL     1     -11.059  11.404  67.872  1.00  0.00    -0.261 C  
HETATM    8  C   UNL     1      -9.356   9.409  67.980  1.00  0.00    -0.129 C  
HETATM    9  S   UNL     1      -8.766   9.600  66.252  1.00  0.00    -0.145 S  
HETATM   10  O   UNL     1      -9.915   9.572  65.371  1.00  0.00    -0.284 OA 
HETATM   11  O   UNL     1     -12.129  10.885  68.135  1.00  0.00    -0.563 OA 
HETATM   12  O   UNL     1     -10.997  12.574  67.177  1.00  0.00    -0.246 OA 
HETATM   13  C   UNL     1     -10.507   8.387  67.998  1.00  0.00    -0.242 C  
HETATM   14  O   UNL     1      -7.649   8.698  66.037  1.00  0.00    -0.090 OA 
ENDROOT
BRANCH   8  15
HETATM   15  C   UNL     1      -8.174   8.798  68.791  1.00  0.00    -0.116 C  
BRANCH  15  16
HETATM   16  N   UNL     1      -8.412   8.461  70.177  1.00  0.00    -0.122 NA 
HETATM   17  C   UNL     1      -8.586   7.215  70.703  1.00  0.00    -0.143 A  
HETATM   18  C   UNL     1      -8.678   7.441  72.055  1.00  0.00    -0.110 A  
HETATM   19  N   UNL     1      -8.598   8.782  72.297  1.00  0.00    -0.399 NA 
HETATM   20  N   UNL     1      -8.459   9.401  71.134  1.00  0.00    -0.290 NA 
ENDBRANCH  15  16
ENDBRANCH   8  15
TORSDOF 2
ENDMDL
MODEL      103
REMARK 921   NORMALIZED FREE ENERGY PREDICTED BY IDOCK:   -3.67 KCAL/MOL
REMARK 922        TOTAL FREE ENERGY PREDICTED BY IDOCK:   -4.20 KCAL/MOL
REMARK 923 INTER-LIGAND FREE ENERGY PREDICTED BY IDOCK:   -4.14 KCAL/MOL
REMARK 924 INTRA-LIGAND FREE ENERGY PREDICTED BY IDOCK:   -0.06 KCAL/MOL
REMARK 927      BINDING AFFINITY PREDICTED BY RF-SCORE:    0.00 PKD
ROOT
HETATM    1  C   UNL     1      -8.211   8.918  68.793  1.00  0.00    -0.115 C  
HETATM    2  C   UNL     1      -8.214  10.063  69.811  1.00  0.00    -0.191 C  
HETATM    3  C   UNL     1      -9.736   9.986  69.718  1.00  0.00    -0.226 C  
HETATM    4  N   UNL     1      -9.687   9.085  68.687  1.00  0.00    -0.157 N  
HETATM    5  O   UNL     1     -10.670  10.325  70.408  1.00  0.00    -0.292 OA 
HETATM    6  C   UNL     1     -10.524   7.859  68.727  1.00  0.00    -0.176 C  
HETATM    7  C   UNL     1     -10.671   7.366  67.273  1.00  0.00    -0.308 C  
HETATM    8  C   UNL     1      -9.840   6.871  69.714  1.00  0.00    -0.171 C  
HETATM    9  S   UNL     1      -8.072   7.213  69.360  1.00  0.00    -0.132 S  
HETATM   10  O   UNL     1      -7.664   6.394  68.238  1.00  0.00    -0.101 OA 
HETATM   11  O   UNL     1     -11.208   6.325  66.934  1.00  0.00    -0.335 OA 
HETATM   12  O   UNL     1     -10.201   8.247  66.348  1.00  0.00    -0.253 OA 
HETATM   13  C   UNL     1     -10.098   5.365  69.530  1.00  0.00    -0.310 C  
HETATM   14  O   UNL     1      -7.331   7.178  70.608  1.00  0.00    -0.073 OA 
ENDROOT
BRANCH   8  15
HETATM   15  C   UNL     1     -10.068   7.205  71.219  1.00  0.00    -0.189 C  
BRANCH  15  16
HETATM   16  N   UNL     1     -10.380   6.112  72.112  1.00  0.00    -0.194 NA 
HETATM   17  C   UNL     1      -9.499   5.358  72.829  1.00  0.00    -0.145 A  
HETATM   18  C   UNL     1     -10.306   4.533  73.575  1.00  0.00    -0.188 A  
HETATM   19  N   UNL     1     -11.613   4.780  73.268  1.00  0.00    -0.292 NA 
HETATM   20  N   UNL     1     -11.646   5.734  72.351  1.00  0.00    -0.296 NA 
ENDBRANCH  15  16
ENDBRANCH   8  15
TORSDOF 2
ENDMDL
MODEL      104
REMARK 921   NORMALIZED FREE ENERGY PREDICTED BY IDOCK:   -3.66 KCAL/MOL
REMARK 922        TOTAL FREE ENERGY PREDICTED BY IDOCK:   -4.19 KCAL/MOL
REMARK 923 INTER-LIGAND FREE ENERGY PREDICTED BY IDOCK:   -4.17 KCAL/MOL
REMARK 924 INTRA-LIGAND FREE ENERGY PREDICTED BY IDOCK:   -0.02 KCAL/MOL
REMARK 927      BINDING AFFINITY PREDICTED BY RF-SCORE:    0.00 PKD
ROOT
HETATM    1  C   UNL     1     -10.367   8.330  69.066  1.00  0.00    -0.221 C  
HETATM    2  C   UNL     1      -8.938   8.656  68.623  1.00  0.00    -0.142 C  
HETATM    3  C   UNL     1      -8.843   9.456  69.920  1.00  0.00    -0.199 C  
HETATM    4  N   UNL     1     -10.174   9.283  70.195  1.00  0.00    -0.200 N  
HETATM    5  O   UNL     1      -7.952   9.866  70.629  1.00  0.00    -0.257 OA 
HETATM    6  C   UNL     1     -10.607   8.848  71.546  1.00  0.00    -0.329 C  
HETATM    7  C   UNL     1     -12.083   9.265  71.704  1.00  0.00    -0.379 C  
HETATM    8  C   UNL     1     -10.317   7.323  71.650  1.00  0.00    -0.197 C  
HETATM    9  S   UNL     1     -10.708   6.790  69.938  1.00  0.00    -0.269 S  
HETATM   10  O   UNL     1     -12.130   6.527  69.854  1.00  0.00    -0.229 OA 
HETATM   11  O   UNL     1     -12.799   8.979  72.648  1.00  0.00    -0.381 OA 
HETATM   12  O   UNL     1     -12.532  10.071  70.702  1.00  0.00    -0.284 OA 
HETATM   13  C   UNL     1     -11.159   6.488  72.631  1.00  0.00    -0.291 C  
HETATM   14  O   UNL     1      -9.746   5.782  69.531  1.00  0.00    -0.141 OA 
ENDROOT
BRANCH   8  15
HETATM   15  C   UNL     1      -8.820   6.969  71.898  1.00  0.00    -0.125 C  
BRANCH  15  16
HETATM   16  N   UNL     1      -8.527   5.874  72.794  1.00  0.00    -0.122 NA 
HETATM   17  C   UNL     1      -8.282   5.950  74.134  1.00  0.00    -0.103 A  
HETATM   18  C   UNL     1      -8.160   4.636  74.519  1.00  0.00    -0.094 A  
HETATM   19  N   UNL     1      -8.293   3.829  73.425  1.00  0.00    -0.087 NA 
HETATM   20  N   UNL     1      -8.493   4.601  72.368  1.00  0.00    -0.114 NA 
ENDBRANCH  15  16
ENDBRANCH   8  15
TORSDOF 2
ENDMDL
MODEL      105
REMARK 921   NORMALIZED FREE ENERGY PREDICTED BY IDOCK:   -3.64 KCAL/MOL
REMARK 922        TOTAL FREE ENERGY PREDICTED BY IDOCK:   -4.17 KCAL/MOL
REMARK 923 INTER-LIGAND FREE ENERGY PREDICTED BY IDOCK:   -4.14 KCAL/MOL
REMARK 924 INTRA-LIGAND FREE ENERGY PREDICTED BY IDOCK:   -0.03 KCAL/MOL
REMARK 927      BINDING AFFINITY PREDICTED BY RF-SCORE:    0.00 PKD
ROOT
HETATM    1  C   UNL     1     -11.302   6.021  70.904  1.00  0.00    -0.229 C  
HETATM    2  C   UNL     1     -11.960   7.358  70.551  1.00  0.00    -0.140 C  
HETATM    3  C   UNL     1     -12.072   7.568  72.059  1.00  0.00    -0.291 C  
HETATM    4  N   UNL     1     -11.638   6.298  72.329  1.00  0.00    -0.306 N  
HETATM    5  O   UNL     1     -12.208   8.515  72.799  1.00  0.00    -0.331 OA 
HETATM    6  C   UNL     1     -10.578   6.071  73.344  1.00  0.00    -0.260 C  
HETATM    7  C   UNL     1     -10.700   4.603  73.803  1.00  0.00    -0.288 C  
HETATM    8  C   UNL     1      -9.225   6.467  72.688  1.00  0.00    -0.137 C  
HETATM    9  S   UNL     1      -9.504   5.894  70.967  1.00  0.00    -0.166 S  
HETATM   10  O   UNL     1      -9.146   4.494  70.888  1.00  0.00    -0.120 OA 
HETATM   11  O   UNL     1      -9.927   4.035  74.555  1.00  0.00    -0.134 OA 
HETATM   12  O   UNL     1     -11.820   3.979  73.344  1.00  0.00    -0.096 OA 
HETATM   13  C   UNL     1      -7.938   5.814  73.223  1.00  0.00    -0.110 C  
HETATM   14  O   UNL     1      -8.920   6.859  70.053  1.00  0.00    -0.141 OA 
ENDROOT
BRANCH   8  15
HETATM   15  C   UNL     1      -8.974   8.004  72.613  1.00  0.00    -0.218 C  
BRANCH  15  16
HETATM   16  N   UNL     1      -7.620   8.474  72.798  1.00  0.00    -0.327 NA 
HETATM   17  C   UNL     1      -6.663   8.628  71.838  1.00  0.00    -0.073 A  
HETATM   18  C   UNL     1      -5.606   9.185  72.517  1.00  0.00    -0.061 A  
HETATM   19  N   UNL     1      -5.932   9.314  73.836  1.00  0.00    -0.319 NA 
HETATM   20  N   UNL     1      -7.161   8.852  74.002  1.00  0.00    -0.393 NA 
ENDBRANCH  15  16
ENDBRANCH   8  15
TORSDOF 2
ENDMDL
MODEL      106
REMARK 921   NORMALIZED FREE ENERGY PREDICTED BY IDOCK:   -3.63 KCAL/MOL
REMARK 922        TOTAL FREE ENERGY PREDICTED BY IDOCK:   -4.16 KCAL/MOL
REMARK 923 INTER-LIGAND FREE ENERGY PREDICTED BY IDOCK:   -3.91 KCAL/MOL
REMARK 924 INTRA-LIGAND FREE ENERGY PREDICTED BY IDOCK:   -0.25 KCAL/MOL
REMARK 927      BINDING AFFINITY PREDICTED BY RF-SCORE:    0.00 PKD
ROOT
HETATM    1  C   UNL     1     -10.504  15.812  67.084  1.00  0.00    -0.309 C  
HETATM    2  C   UNL     1     -11.533  15.707  65.955  1.00  0.00     0.160 C  
HETATM    3  C   UNL     1     -10.488  14.854  65.239  1.00  0.00    -0.404 C  
HETATM    4  N   UNL     1      -9.538  15.113  66.191  1.00  0.00    -0.293 N  
HETATM    5  O   UNL     1     -10.493  14.032  64.351  1.00  0.00    -0.368 OA 
HETATM    6  C   UNL     1      -8.740  14.003  66.771  1.00  0.00    -0.110 C  
HETATM    7  C   UNL     1      -7.454  14.627  67.351  1.00  0.00    -0.186 C  
HETATM    8  C   UNL     1      -9.657  13.266  67.789  1.00  0.00    -0.214 C  
HETATM    9  S   UNL     1     -10.592  14.683  68.487  1.00  0.00    -0.252 S  
HETATM   10  O   UNL     1      -9.820  15.249  69.573  1.00  0.00    -0.234 OA 
HETATM   11  O   UNL     1      -6.612  14.028  67.998  1.00  0.00    -0.113 OA 
HETATM   12  O   UNL     1      -7.283  15.935  67.016  1.00  0.00    -0.213 OA 
HETATM   13  C   UNL     1      -8.990  12.498  68.944  1.00  0.00     0.312 C  
HETATM   14  O   UNL     1     -11.970  14.277  68.694  1.00  0.00    -0.333 OA 
ENDROOT
BRANCH   8  15
HETATM   15  C   UNL     1     -10.706  12.315  67.137  1.00  0.00    -0.233 C  
BRANCH  15  16
HETATM   16  N   UNL     1     -10.337  10.929  66.957  1.00  0.00    -0.221 NA 
HETATM   17  C   UNL     1      -9.472  10.421  66.032  1.00  0.00    -0.185 A  
HETATM   18  C   UNL     1      -9.405   9.085  66.347  1.00  0.00    -0.206 A  
HETATM   19  N   UNL     1     -10.237   8.825  67.399  1.00  0.00    -0.232 NA 
HETATM   20  N   UNL     1     -10.822   9.960  67.749  1.00  0.00    -0.278 NA 
ENDBRANCH  15  16
ENDBRANCH   8  15
TORSDOF 2
ENDMDL
MODEL      107
REMARK 921   NORMALIZED FREE ENERGY PREDICTED BY IDOCK:   -3.63 KCAL/MOL
REMARK 922        TOTAL FREE ENERGY PREDICTED BY IDOCK:   -4.16 KCAL/MOL
REMARK 923 INTER-LIGAND FREE ENERGY PREDICTED BY IDOCK:   -3.85 KCAL/MOL
REMARK 924 INTRA-LIGAND FREE ENERGY PREDICTED BY IDOCK:   -0.31 KCAL/MOL
REMARK 927      BINDING AFFINITY PREDICTED BY RF-SCORE:    0.00 PKD
ROOT
HETATM    1  C   UNL     1      -7.649  11.366  67.692  1.00  0.00    -0.108 C  
HETATM    2  C   UNL     1      -6.437  10.991  68.550  1.00  0.00    -0.054 C  
HETATM    3  C   UNL     1      -7.456  10.671  69.641  1.00  0.00    -0.115 C  
HETATM    4  N   UNL     1      -8.494  11.175  68.903  1.00  0.00    -0.131 N  
HETATM    5  O   UNL     1      -7.474   9.999  70.647  1.00  0.00    -0.302 OA 
HETATM    6  C   UNL     1      -9.750  10.398  68.752  1.00  0.00    -0.183 C  
HETATM    7  C   UNL     1     -10.859  11.401  68.375  1.00  0.00    -0.207 C  
HETATM    8  C   UNL     1      -9.469   9.274  67.715  1.00  0.00    -0.140 C  
HETATM    9  S   UNL     1      -8.353  10.157  66.556  1.00  0.00    -0.126 S  
HETATM   10  O   UNL     1      -9.166  10.864  65.589  1.00  0.00    -0.189 OA 
HETATM   11  O   UNL     1     -12.002  11.105  68.071  1.00  0.00    -0.625 OA 
HETATM   12  O   UNL     1     -10.475  12.703  68.478  1.00  0.00    -0.235 OA 
HETATM   13  C   UNL     1     -10.658   8.705  66.919  1.00  0.00    -0.270 C  
HETATM   14  O   UNL     1      -7.314   9.242  66.120  1.00  0.00    -0.093 OA 
ENDROOT
BRANCH   8  15
HETATM   15  C   UNL     1      -8.662   8.066  68.280  1.00  0.00    -0.130 C  
BRANCH  15  16
HETATM   16  N   UNL     1      -9.395   7.036  68.981  1.00  0.00    -0.137 NA 
HETATM   17  C   UNL     1     -10.040   7.154  70.177  1.00  0.00    -0.188 A  
HETATM   18  C   UNL     1     -10.645   5.931  70.344  1.00  0.00    -0.286 A  
HETATM   19  N   UNL     1     -10.326   5.120  69.293  1.00  0.00    -0.212 NA 
HETATM   20  N   UNL     1      -9.538   5.801  68.475  1.00  0.00    -0.122 NA 
ENDBRANCH  15  16
ENDBRANCH   8  15
TORSDOF 2
ENDMDL
MODEL      108
REMARK 921   NORMALIZED FREE ENERGY PREDICTED BY IDOCK:   -3.62 KCAL/MOL
REMARK 922        TOTAL FREE ENERGY PREDICTED BY IDOCK:   -4.14 KCAL/MOL
REMARK 923 INTER-LIGAND FREE ENERGY PREDICTED BY IDOCK:   -5.12 KCAL/MOL
REMARK 924 INTRA-LIGAND FREE ENERGY PREDICTED BY IDOCK:    0.98 KCAL/MOL
REMARK 927      BINDING AFFINITY PREDICTED BY RF-SCORE:    0.00 PKD
ROOT
HETATM    1  C   UNL     1     -11.093  13.987  67.419  1.00  0.00    -0.303 C  
HETATM    2  C   UNL     1     -11.066  13.093  68.662  1.00  0.00    -0.304 C  
HETATM    3  C   UNL     1     -11.891  12.113  67.831  1.00  0.00    -0.269 C  
HETATM    4  N   UNL     1     -12.036  13.010  66.806  1.00  0.00    -0.390 N  
HETATM    5  O   UNL     1     -12.127  10.927  67.863  1.00  0.00    -0.527 OA 
HETATM    6  C   UNL     1     -11.780  12.590  65.405  1.00  0.00    -0.398 C  
HETATM    7  C   UNL     1     -12.526  13.585  64.493  1.00  0.00    -0.291 C  
HETATM    8  C   UNL     1     -10.237  12.526  65.222  1.00  0.00    -0.282 C  
HETATM    9  S   UNL     1      -9.716  13.950  66.256  1.00  0.00    -0.266 S  
HETATM   10  O   UNL     1      -9.775  15.148  65.445  1.00  0.00    -0.316 OA 
HETATM   11  O   UNL     1     -12.457  13.611  63.276  1.00  0.00    -0.801 OA 
HETATM   12  O   UNL     1     -13.358  14.425  65.167  1.00  0.00    -0.542 OA 
HETATM   13  C   UNL     1      -9.664  12.709  63.805  1.00  0.00     0.308 C  
HETATM   14  O   UNL     1      -8.498  13.594  66.962  1.00  0.00    -0.196 OA 
ENDROOT
BRANCH   8  15
HETATM   15  C   UNL     1      -9.569  11.258  65.837  1.00  0.00    -0.221 C  
BRANCH  15  16
HETATM   16  N   UNL     1      -8.163  11.047  65.580  1.00  0.00    -0.086 NA 
HETATM   17  C   UNL     1      -7.137  11.160  66.471  1.00  0.00    -0.124 A  
HETATM   18  C   UNL     1      -6.034  10.766  65.752  1.00  0.00    -0.126 A  
HETATM   19  N   UNL     1      -6.409  10.471  64.473  1.00  0.00    -0.047 NA 
HETATM   20  N   UNL     1      -7.714  10.670  64.372  1.00  0.00     0.057 NA 
ENDBRANCH  15  16
ENDBRANCH   8  15
TORSDOF 2
ENDMDL
MODEL      109
REMARK 921   NORMALIZED FREE ENERGY PREDICTED BY IDOCK:   -3.61 KCAL/MOL
REMARK 922        TOTAL FREE ENERGY PREDICTED BY IDOCK:   -4.13 KCAL/MOL
REMARK 923 INTER-LIGAND FREE ENERGY PREDICTED BY IDOCK:   -3.91 KCAL/MOL
REMARK 924 INTRA-LIGAND FREE ENERGY PREDICTED BY IDOCK:   -0.22 KCAL/MOL
REMARK 927      BINDING AFFINITY PREDICTED BY RF-SCORE:    0.00 PKD
ROOT
HETATM    1  C   UNL     1      -9.105   6.390  72.594  1.00  0.00    -0.135 C  
HETATM    2  C   UNL     1      -8.818   5.000  72.020  1.00  0.00    -0.139 C  
HETATM    3  C   UNL     1      -9.933   5.310  71.023  1.00  0.00    -0.201 C  
HETATM    4  N   UNL     1     -10.270   6.469  71.670  1.00  0.00    -0.193 N  
HETATM    5  O   UNL     1     -10.263   4.906  69.932  1.00  0.00    -0.257 OA 
HETATM    6  C   UNL     1     -10.458   7.725  70.901  1.00  0.00    -0.206 C  
HETATM    7  C   UNL     1     -11.329   8.658  71.767  1.00  0.00    -0.323 C  
HETATM    8  C   UNL     1      -9.041   8.257  70.543  1.00  0.00    -0.147 C  
HETATM    9  S   UNL     1      -8.118   7.802  72.063  1.00  0.00    -0.114 S  
HETATM   10  O   UNL     1      -8.284   8.863  73.034  1.00  0.00    -0.371 OA 
HETATM   11  O   UNL     1     -11.601   9.816  71.499  1.00  0.00    -0.380 OA 
HETATM   12  O   UNL     1     -11.855   8.049  72.865  1.00  0.00    -0.337 OA 
HETATM   13  C   UNL     1      -8.872   9.767  70.297  1.00  0.00    -0.188 C  
HETATM   14  O   UNL     1      -6.791   7.348  71.685  1.00  0.00    -0.053 OA 
ENDROOT
BRANCH   8  15
HETATM   15  C   UNL     1      -8.354   7.510  69.361  1.00  0.00    -0.132 C  
BRANCH  15  16
HETATM   16  N   UNL     1      -8.547   8.036  68.029  1.00  0.00    -0.129 NA 
HETATM   17  C   UNL     1      -7.580   8.439  67.155  1.00  0.00    -0.093 A  
HETATM   18  C   UNL     1      -8.281   8.757  66.016  1.00  0.00    -0.118 A  
HETATM   19  N   UNL     1      -9.616   8.578  66.241  1.00  0.00    -0.239 NA 
HETATM   20  N   UNL     1      -9.769   8.158  67.488  1.00  0.00    -0.153 NA 
ENDBRANCH  15  16
ENDBRANCH   8  15
TORSDOF 2
ENDMDL
MODEL      110
REMARK 921   NORMALIZED FREE ENERGY PREDICTED BY IDOCK:   -3.59 KCAL/MOL
REMARK 922        TOTAL FREE ENERGY PREDICTED BY IDOCK:   -4.12 KCAL/MOL
REMARK 923 INTER-LIGAND FREE ENERGY PREDICTED BY IDOCK:   -4.04 KCAL/MOL
REMARK 924 INTRA-LIGAND FREE ENERGY PREDICTED BY IDOCK:   -0.08 KCAL/MOL
REMARK 927      BINDING AFFINITY PREDICTED BY RF-SCORE:    0.00 PKD
ROOT
HETATM    1  C   UNL     1      -8.537   9.310  68.388  1.00  0.00    -0.124 C  
HETATM    2  C   UNL     1      -7.059   9.199  68.771  1.00  0.00    -0.073 C  
HETATM    3  C   UNL     1      -7.475   9.833  70.096  1.00  0.00    -0.164 C  
HETATM    4  N   UNL     1      -8.749  10.069  69.652  1.00  0.00    -0.198 N  
HETATM    5  O   UNL     1      -7.021   9.889  71.216  1.00  0.00    -0.318 OA 
HETATM    6  C   UNL     1      -9.914   9.697  70.494  1.00  0.00    -0.254 C  
HETATM    7  C   UNL     1     -11.108  10.546  70.013  1.00  0.00    -0.308 C  
HETATM    8  C   UNL     1     -10.086   8.155  70.379  1.00  0.00    -0.194 C  
HETATM    9  S   UNL     1      -9.633   7.897  68.619  1.00  0.00    -0.157 S  
HETATM   10  O   UNL     1     -10.814   8.102  67.808  1.00  0.00    -0.143 OA 
HETATM   11  O   UNL     1     -12.256  10.432  70.407  1.00  0.00    -0.288 OA 
HETATM   12  O   UNL     1     -10.762  11.522  69.129  1.00  0.00    -0.214 OA 
HETATM   13  C   UNL     1     -11.485   7.560  70.621  1.00  0.00    -0.291 C  
HETATM   14  O   UNL     1      -8.866   6.669  68.510  1.00  0.00    -0.123 OA 
ENDROOT
BRANCH   8  15
HETATM   15  C   UNL     1      -9.072   7.330  71.228  1.00  0.00    -0.146 C  
BRANCH  15  16
HETATM   16  N   UNL     1      -9.592   6.560  72.335  1.00  0.00    -0.146 NA 
HETATM   17  C   UNL     1      -9.684   5.202  72.422  1.00  0.00    -0.153 A  
HETATM   18  C   UNL     1     -10.150   4.988  73.697  1.00  0.00    -0.177 A  
HETATM   19  N   UNL     1     -10.355   6.189  74.313  1.00  0.00    -0.298 NA 
HETATM   20  N   UNL     1     -10.032   7.148  73.459  1.00  0.00    -0.267 NA 
ENDBRANCH  15  16
ENDBRANCH   8  15
TORSDOF 2
ENDMDL
MODEL      111
REMARK 921   NORMALIZED FREE ENERGY PREDICTED BY IDOCK:   -3.56 KCAL/MOL
REMARK 922        TOTAL FREE ENERGY PREDICTED BY IDOCK:   -4.08 KCAL/MOL
REMARK 923 INTER-LIGAND FREE ENERGY PREDICTED BY IDOCK:   -4.07 KCAL/MOL
REMARK 924 INTRA-LIGAND FREE ENERGY PREDICTED BY IDOCK:   -0.01 KCAL/MOL
REMARK 927      BINDING AFFINITY PREDICTED BY RF-SCORE:    0.00 PKD
ROOT
HETATM    1  C   UNL     1     -10.289   8.282  70.744  1.00  0.00    -0.193 C  
HETATM    2  C   UNL     1     -11.225   8.747  71.863  1.00  0.00    -0.438 C  
HETATM    3  C   UNL     1     -12.199   7.703  71.323  1.00  0.00    -0.315 C  
HETATM    4  N   UNL     1     -11.407   7.436  70.239  1.00  0.00    -0.255 N  
HETATM    5  O   UNL     1     -13.155   7.098  71.754  1.00  0.00    -0.356 OA 
HETATM    6  C   UNL     1     -11.097   6.033  69.868  1.00  0.00    -0.399 C  
HETATM    7  C   UNL     1     -10.689   6.039  68.380  1.00  0.00    -0.280 C  
HETATM    8  C   UNL     1     -10.019   5.524  70.866  1.00  0.00    -0.199 C  
HETATM    9  S   UNL     1      -9.021   7.048  71.089  1.00  0.00    -0.145 S  
HETATM   10  O   UNL     1      -8.033   7.106  70.032  1.00  0.00    -0.113 OA 
HETATM   11  O   UNL     1     -10.267   5.076  67.763  1.00  0.00    -0.154 OA 
HETATM   12  O   UNL     1     -10.907   7.231  67.759  1.00  0.00    -0.205 OA 
HETATM   13  C   UNL     1      -9.087   4.386  70.412  1.00  0.00    -0.168 C  
HETATM   14  O   UNL     1      -8.620   7.145  72.481  1.00  0.00    -0.115 OA 
ENDROOT
BRANCH   8  15
HETATM   15  C   UNL     1     -10.574   5.143  72.272  1.00  0.00    -0.218 C  
BRANCH  15  16
HETATM   16  N   UNL     1     -10.020   3.976  72.920  1.00  0.00    -0.141 NA 
HETATM   17  C   UNL     1     -10.442   2.685  72.792  1.00  0.00    -0.137 A  
HETATM   18  C   UNL     1      -9.531   1.969  73.531  1.00  0.00    -0.075 A  
HETATM   19  N   UNL     1      -8.634   2.827  74.100  1.00  0.00    -0.072 NA 
HETATM   20  N   UNL     1      -8.958   4.058  73.738  1.00  0.00    -0.092 NA 
ENDBRANCH  15  16
ENDBRANCH   8  15
TORSDOF 2
ENDMDL
MODEL      112
REMARK 921   NORMALIZED FREE ENERGY PREDICTED BY IDOCK:   -3.55 KCAL/MOL
REMARK 922        TOTAL FREE ENERGY PREDICTED BY IDOCK:   -4.07 KCAL/MOL
REMARK 923 INTER-LIGAND FREE ENERGY PREDICTED BY IDOCK:   -3.89 KCAL/MOL
REMARK 924 INTRA-LIGAND FREE ENERGY PREDICTED BY IDOCK:   -0.18 KCAL/MOL
REMARK 927      BINDING AFFINITY PREDICTED BY RF-SCORE:    0.00 PKD
ROOT
HETATM    1  C   UNL     1      -9.505  10.741  66.706  1.00  0.00    -0.173 C  
HETATM    2  C   UNL     1      -9.914   9.849  65.530  1.00  0.00    -0.363 C  
HETATM    3  C   UNL     1      -9.060   8.775  66.201  1.00  0.00    -0.202 C  
HETATM    4  N   UNL     1      -8.584   9.652  67.138  1.00  0.00    -0.131 N  
HETATM    5  O   UNL     1      -8.990   7.567  66.162  1.00  0.00    -0.163 OA 
HETATM    6  C   UNL     1      -8.582   9.281  68.575  1.00  0.00    -0.128 C  
HETATM    7  C   UNL     1      -7.536  10.176  69.271  1.00  0.00    -0.117 C  
HETATM    8  C   UNL     1     -10.044   9.422  69.086  1.00  0.00    -0.195 C  
HETATM    9  S   UNL     1     -10.591  10.895  68.137  1.00  0.00    -0.215 S  
HETATM   10  O   UNL     1     -10.206  12.081  68.872  1.00  0.00    -0.169 OA 
HETATM   11  O   UNL     1      -7.336  10.220  70.473  1.00  0.00    -0.281 OA 
HETATM   12  O   UNL     1      -6.769  10.893  68.405  1.00  0.00    -0.058 OA 
HETATM   13  C   UNL     1     -10.269   9.690  70.585  1.00  0.00    -0.346 C  
HETATM   14  O   UNL     1     -11.968  10.698  67.720  1.00  0.00    -0.359 OA 
ENDROOT
BRANCH   8  15
HETATM   15  C   UNL     1     -10.985   8.250  68.674  1.00  0.00     0.212 C  
BRANCH  15  16
HETATM   16  N   UNL     1     -10.809   6.980  69.341  1.00  0.00    -0.238 NA 
HETATM   17  C   UNL     1     -10.016   5.944  68.945  1.00  0.00    -0.157 A  
HETATM   18  C   UNL     1     -10.136   5.031  69.965  1.00  0.00    -0.272 A  
HETATM   19  N   UNL     1     -11.005   5.512  70.903  1.00  0.00    -0.184 NA 
HETATM   20  N   UNL     1     -11.430   6.698  70.498  1.00  0.00    -0.352 NA 
ENDBRANCH  15  16
ENDBRANCH   8  15
TORSDOF 2
ENDMDL
MODEL      113
REMARK 921   NORMALIZED FREE ENERGY PREDICTED BY IDOCK:   -3.54 KCAL/MOL
REMARK 922        TOTAL FREE ENERGY PREDICTED BY IDOCK:   -4.06 KCAL/MOL
REMARK 923 INTER-LIGAND FREE ENERGY PREDICTED BY IDOCK:   -3.75 KCAL/MOL
REMARK 924 INTRA-LIGAND FREE ENERGY PREDICTED BY IDOCK:   -0.31 KCAL/MOL
REMARK 927      BINDING AFFINITY PREDICTED BY RF-SCORE:    0.00 PKD
ROOT
HETATM    1  C   UNL     1      -8.590   6.760  67.796  1.00  0.00    -0.121 C  
HETATM    2  C   UNL     1      -7.288   6.019  68.116  1.00  0.00    -0.085 C  
HETATM    3  C   UNL     1      -7.254   6.869  69.385  1.00  0.00    -0.089 C  
HETATM    4  N   UNL     1      -8.323   7.624  68.980  1.00  0.00    -0.127 N  
HETATM    5  O   UNL     1      -6.723   6.796  70.469  1.00  0.00    -0.051 OA 
HETATM    6  C   UNL     1      -9.449   7.883  69.912  1.00  0.00    -0.160 C  
HETATM    7  C   UNL     1     -10.177   9.143  69.401  1.00  0.00    -0.210 C  
HETATM    8  C   UNL     1     -10.302   6.584  69.971  1.00  0.00    -0.198 C  
HETATM    9  S   UNL     1     -10.175   6.019  68.230  1.00  0.00    -0.203 S  
HETATM   10  O   UNL     1     -11.209   6.677  67.459  1.00  0.00    -0.319 OA 
HETATM   11  O   UNL     1     -11.213   9.592  69.859  1.00  0.00    -0.242 OA 
HETATM   12  O   UNL     1      -9.514   9.788  68.401  1.00  0.00    -0.139 OA 
HETATM   13  C   UNL     1     -11.791   6.707  70.342  1.00  0.00    -0.407 C  
HETATM   14  O   UNL     1     -10.051   4.572  68.215  1.00  0.00    -0.078 OA 
ENDROOT
BRANCH   8  15
HETATM   15  C   UNL     1      -9.690   5.454  70.854  1.00  0.00    -0.180 C  
BRANCH  15  16
HETATM   16  N   UNL     1      -9.936   5.505  72.277  1.00  0.00    -0.171 NA 
HETATM   17  C   UNL     1      -9.426   6.401  73.170  1.00  0.00    -0.138 A  
HETATM   18  C   UNL     1     -10.040   6.070  74.353  1.00  0.00    -0.304 A  
HETATM   19  N   UNL     1     -10.852   4.990  74.156  1.00  0.00    -0.314 NA 
HETATM   20  N   UNL     1     -10.761   4.636  72.883  1.00  0.00    -0.217 NA 
ENDBRANCH  15  16
ENDBRANCH   8  15
TORSDOF 2
ENDMDL
MODEL      114
REMARK 921   NORMALIZED FREE ENERGY PREDICTED BY IDOCK:   -3.54 KCAL/MOL
REMARK 922        TOTAL FREE ENERGY PREDICTED BY IDOCK:   -4.05 KCAL/MOL
REMARK 923 INTER-LIGAND FREE ENERGY PREDICTED BY IDOCK:   -3.77 KCAL/MOL
REMARK 924 INTRA-LIGAND FREE ENERGY PREDICTED BY IDOCK:   -0.28 KCAL/MOL
REMARK 927      BINDING AFFINITY PREDICTED BY RF-SCORE:    0.00 PKD
ROOT
HETATM    1  C   UNL     1     -10.128   6.043  69.069  1.00  0.00    -0.176 C  
HETATM    2  C   UNL     1     -11.344   6.370  69.939  1.00  0.00    -0.500 C  
HETATM    3  C   UNL     1     -10.564   7.613  70.358  1.00  0.00    -0.230 C  
HETATM    4  N   UNL     1      -9.435   7.199  69.703  1.00  0.00    -0.152 N  
HETATM    5  O   UNL     1     -10.834   8.694  70.831  1.00  0.00    -0.222 OA 
HETATM    6  C   UNL     1      -8.702   8.135  68.814  1.00  0.00    -0.138 C  
HETATM    7  C   UNL     1      -7.263   7.597  68.680  1.00  0.00    -0.082 C  
HETATM    8  C   UNL     1      -9.514   8.240  67.492  1.00  0.00    -0.149 C  
HETATM    9  S   UNL     1     -10.115   6.514  67.329  1.00  0.00    -0.187 S  
HETATM   10  O   UNL     1      -9.096   5.736  66.656  1.00  0.00    -0.125 OA 
HETATM   11  O   UNL     1      -6.406   8.054  67.943  1.00  0.00    -0.049 OA 
HETATM   12  O   UNL     1      -6.982   6.573  69.533  1.00  0.00    -0.062 OA 
HETATM   13  C   UNL     1      -8.761   8.624  66.205  1.00  0.00    -0.180 C  
HETATM   14  O   UNL     1     -11.477   6.539  66.826  1.00  0.00    -0.155 OA 
ENDROOT
BRANCH   8  15
HETATM   15  C   UNL     1     -10.778   9.147  67.584  1.00  0.00    -0.189 C  
BRANCH  15  16
HETATM   16  N   UNL     1     -10.588  10.577  67.489  1.00  0.00    -0.239 NA 
HETATM   17  C   UNL     1     -10.834  11.370  66.406  1.00  0.00    -0.271 A  
HETATM   18  C   UNL     1     -10.582  12.640  66.868  1.00  0.00    -0.240 A  
HETATM   19  N   UNL     1     -10.168  12.576  68.167  1.00  0.00    -0.225 NA 
HETATM   20  N   UNL     1     -10.152  11.303  68.530  1.00  0.00    -0.198 NA 
ENDBRANCH  15  16
ENDBRANCH   8  15
TORSDOF 2
ENDMDL
MODEL      115
REMARK 921   NORMALIZED FREE ENERGY PREDICTED BY IDOCK:   -3.48 KCAL/MOL
REMARK 922        TOTAL FREE ENERGY PREDICTED BY IDOCK:   -3.99 KCAL/MOL
REMARK 923 INTER-LIGAND FREE ENERGY PREDICTED BY IDOCK:   -3.67 KCAL/MOL
REMARK 924 INTRA-LIGAND FREE ENERGY PREDICTED BY IDOCK:   -0.31 KCAL/MOL
REMARK 927      BINDING AFFINITY PREDICTED BY RF-SCORE:    0.00 PKD
ROOT
HETATM    1  C   UNL     1     -10.311   6.481  72.834  1.00  0.00    -0.210 C  
HETATM    2  C   UNL     1     -11.731   5.909  72.821  1.00  0.00    -0.183 C  
HETATM    3  C   UNL     1     -11.902   6.673  71.510  1.00  0.00    -0.337 C  
HETATM    4  N   UNL     1     -10.690   7.297  71.646  1.00  0.00    -0.215 N  
HETATM    5  O   UNL     1     -12.635   6.605  70.551  1.00  0.00    -0.171 OA 
HETATM    6  C   UNL     1      -9.739   7.338  70.506  1.00  0.00    -0.176 C  
HETATM    7  C   UNL     1      -8.777   8.515  70.764  1.00  0.00    -0.160 C  
HETATM    8  C   UNL     1      -9.082   5.932  70.408  1.00  0.00    -0.147 C  
HETATM    9  S   UNL     1      -8.942   5.502  72.187  1.00  0.00    -0.136 S  
HETATM   10  O   UNL     1      -7.706   6.058  72.696  1.00  0.00    -0.098 OA 
HETATM   11  O   UNL     1      -7.800   8.787  70.087  1.00  0.00    -0.082 OA 
HETATM   12  O   UNL     1      -9.151   9.308  71.806  1.00  0.00    -0.303 OA 
HETATM   13  C   UNL     1      -7.688   5.824  69.764  1.00  0.00    -0.084 C  
HETATM   14  O   UNL     1      -9.240   4.090  72.351  1.00  0.00    -0.112 OA 
ENDROOT
BRANCH   8  15
HETATM   15  C   UNL     1      -9.986   4.844  69.754  1.00  0.00    -0.244 C  
BRANCH  15  16
HETATM   16  N   UNL     1     -10.139   4.871  68.317  1.00  0.00    -0.114 NA 
HETATM   17  C   UNL     1     -10.732   5.846  67.570  1.00  0.00    -0.276 A  
HETATM   18  C   UNL     1     -10.528   5.435  66.275  1.00  0.00    -0.221 A  
HETATM   19  N   UNL     1      -9.868   4.239  66.278  1.00  0.00    -0.216 NA 
HETATM   20  N   UNL     1      -9.657   3.891  67.537  1.00  0.00    -0.186 NA 
ENDBRANCH  15  16
ENDBRANCH   8  15
TORSDOF 2
ENDMDL
MODEL      116
REMARK 921   NORMALIZED FREE ENERGY PREDICTED BY IDOCK:   -3.41 KCAL/MOL
REMARK 922        TOTAL FREE ENERGY PREDICTED BY IDOCK:   -3.91 KCAL/MOL
REMARK 923 INTER-LIGAND FREE ENERGY PREDICTED BY IDOCK:   -3.64 KCAL/MOL
REMARK 924 INTRA-LIGAND FREE ENERGY PREDICTED BY IDOCK:   -0.27 KCAL/MOL
REMARK 927      BINDING AFFINITY PREDICTED BY RF-SCORE:    0.00 PKD
ROOT
HETATM    1  C   UNL     1      -8.631   6.879  66.334  1.00  0.00    -0.134 C  
HETATM    2  C   UNL     1      -8.506   5.382  66.630  1.00  0.00    -0.108 C  
HETATM    3  C   UNL     1      -7.731   5.811  67.874  1.00  0.00    -0.097 C  
HETATM    4  N   UNL     1      -7.718   7.125  67.485  1.00  0.00    -0.109 N  
HETATM    5  O   UNL     1      -7.451   5.316  68.941  1.00  0.00    -0.071 OA 
HETATM    6  C   UNL     1      -8.092   8.192  68.447  1.00  0.00    -0.128 C  
HETATM    7  C   UNL     1      -7.474   9.505  67.927  1.00  0.00    -0.083 C  
HETATM    8  C   UNL     1      -9.642   8.173  68.569  1.00  0.00    -0.148 C  
HETATM    9  S   UNL     1     -10.111   7.774  66.840  1.00  0.00    -0.289 S  
HETATM   10  O   UNL     1     -10.174   9.009  66.088  1.00  0.00    -0.267 OA 
HETATM   11  O   UNL     1      -7.661  10.609  68.408  1.00  0.00    -0.091 OA 
HETATM   12  O   UNL     1      -6.610   9.328  66.889  1.00  0.00    -0.066 OA 
HETATM   13  C   UNL     1     -10.355   9.471  68.987  1.00  0.00    -0.219 C  
HETATM   14  O   UNL     1     -11.242   6.864  66.861  1.00  0.00    -0.353 OA 
ENDROOT
BRANCH   8  15
HETATM   15  C   UNL     1     -10.202   7.023  69.461  1.00  0.00    -0.199 C  
BRANCH  15  16
HETATM   16  N   UNL     1     -10.323   7.270  70.880  1.00  0.00    -0.201 NA 
HETATM   17  C   UNL     1      -9.316   7.301  71.799  1.00  0.00    -0.149 A  
HETATM   18  C   UNL     1      -9.947   7.665  72.964  1.00  0.00    -0.285 A  
HETATM   19  N   UNL     1     -11.286   7.803  72.730  1.00  0.00    -0.383 NA 
HETATM   20  N   UNL     1     -11.508   7.534  71.453  1.00  0.00    -0.258 NA 
ENDBRANCH  15  16
ENDBRANCH   8  15
TORSDOF 2
ENDMDL
MODEL      117
REMARK 921   NORMALIZED FREE ENERGY PREDICTED BY IDOCK:   -3.41 KCAL/MOL
REMARK 922        TOTAL FREE ENERGY PREDICTED BY IDOCK:   -3.91 KCAL/MOL
REMARK 923 INTER-LIGAND FREE ENERGY PREDICTED BY IDOCK:   -3.88 KCAL/MOL
REMARK 924 INTRA-LIGAND FREE ENERGY PREDICTED BY IDOCK:   -0.02 KCAL/MOL
REMARK 927      BINDING AFFINITY PREDICTED BY RF-SCORE:    0.00 PKD
ROOT
HETATM    1  C   UNL     1     -11.229  13.307  67.352  1.00  0.00    -0.289 C  
HETATM    2  C   UNL     1     -11.951  13.220  68.700  1.00  0.00    -0.345 C  
HETATM    3  C   UNL     1     -11.909  11.708  68.492  1.00  0.00    -0.292 C  
HETATM    4  N   UNL     1     -11.420  11.836  67.219  1.00  0.00    -0.316 N  
HETATM    5  O   UNL     1     -11.987  10.729  69.198  1.00  0.00    -0.304 OA 
HETATM    6  C   UNL     1     -10.255  11.026  66.782  1.00  0.00    -0.229 C  
HETATM    7  C   UNL     1     -10.294  10.973  65.242  1.00  0.00    -0.275 C  
HETATM    8  C   UNL     1      -8.987  11.674  67.408  1.00  0.00    -0.166 C  
HETATM    9  S   UNL     1      -9.433  13.452  67.303  1.00  0.00    -0.243 S  
HETATM   10  O   UNL     1      -9.053  13.941  65.994  1.00  0.00    -0.017 OA 
HETATM   11  O   UNL     1      -9.434  10.480  64.532  1.00  0.00    -0.225 OA 
HETATM   12  O   UNL     1     -11.441  11.475  64.708  1.00  0.00    -0.201 OA 
HETATM   13  C   UNL     1      -7.637  11.461  66.700  1.00  0.00    -0.119 C  
HETATM   14  O   UNL     1      -8.969  14.121  68.505  1.00  0.00    -0.189 OA 
ENDROOT
BRANCH   8  15
HETATM   15  C   UNL     1      -8.780  11.353  68.919  1.00  0.00    -0.004 C  
BRANCH  15  16
HETATM   16  N   UNL     1      -8.557   9.974  69.290  1.00  0.00    -0.155 NA 
HETATM   17  C   UNL     1      -9.080   8.866  68.691  1.00  0.00    -0.137 A  
HETATM   18  C   UNL     1      -8.486   7.822  69.359  1.00  0.00    -0.134 A  
HETATM   19  N   UNL     1      -7.673   8.316  70.339  1.00  0.00    -0.081 NA 
HETATM   20  N   UNL     1      -7.744   9.637  70.303  1.00  0.00    -0.162 NA 
ENDBRANCH  15  16
ENDBRANCH   8  15
TORSDOF 2
ENDMDL
MODEL      118
REMARK 921   NORMALIZED FREE ENERGY PREDICTED BY IDOCK:   -3.37 KCAL/MOL
REMARK 922        TOTAL FREE ENERGY PREDICTED BY IDOCK:   -3.87 KCAL/MOL
REMARK 923 INTER-LIGAND FREE ENERGY PREDICTED BY IDOCK:   -3.86 KCAL/MOL
REMARK 924 INTRA-LIGAND FREE ENERGY PREDICTED BY IDOCK:   -0.00 KCAL/MOL
REMARK 927      BINDING AFFINITY PREDICTED BY RF-SCORE:    0.00 PKD
ROOT
HETATM    1  C   UNL     1      -8.850   8.171  68.997  1.00  0.00    -0.144 C  
HETATM    2  C   UNL     1      -9.407   7.372  70.180  1.00  0.00    -0.158 C  
HETATM    3  C   UNL     1      -9.372   8.696  70.940  1.00  0.00    -0.189 C  
HETATM    4  N   UNL     1      -8.718   9.334  69.919  1.00  0.00    -0.162 N  
HETATM    5  O   UNL     1      -9.917   9.154  71.918  1.00  0.00    -0.308 OA 
HETATM    6  C   UNL     1      -9.196  10.654  69.436  1.00  0.00    -0.051 C  
HETATM    7  C   UNL     1      -8.008  11.332  68.725  1.00  0.00    -0.137 C  
HETATM    8  C   UNL     1     -10.453  10.392  68.559  1.00  0.00    -0.186 C  
HETATM    9  S   UNL     1      -9.972   8.819  67.744  1.00  0.00    -0.207 S  
HETATM   10  O   UNL     1      -9.198   9.135  66.562  1.00  0.00    -0.155 OA 
HETATM   11  O   UNL     1      -8.061  12.385  68.114  1.00  0.00    -0.146 OA 
HETATM   12  O   UNL     1      -6.826  10.678  68.894  1.00  0.00    -0.057 OA 
HETATM   13  C   UNL     1     -10.809  11.422  67.472  1.00  0.00    -0.291 C  
HETATM   14  O   UNL     1     -11.141   7.963  67.654  1.00  0.00    -0.004 OA 
ENDROOT
BRANCH   8  15
HETATM   15  C   UNL     1     -11.752  10.097  69.369  1.00  0.00    -0.028 C  
BRANCH  15  16
HETATM   16  N   UNL     1     -12.195  11.095  70.317  1.00  0.00    -0.337 NA 
HETATM   17  C   UNL     1     -12.173  12.449  70.157  1.00  0.00    -0.229 A  
HETATM   18  C   UNL     1     -12.784  12.922  71.294  1.00  0.00    -0.278 A  
HETATM   19  N   UNL     1     -13.114  11.871  72.101  1.00  0.00    -0.377 NA 
HETATM   20  N   UNL     1     -12.726  10.756  71.502  1.00  0.00    -0.421 NA 
ENDBRANCH  15  16
ENDBRANCH   8  15
TORSDOF 2
ENDMDL
MODEL      119
REMARK 921   NORMALIZED FREE ENERGY PREDICTED BY IDOCK:   -3.34 KCAL/MOL
REMARK 922        TOTAL FREE ENERGY PREDICTED BY IDOCK:   -3.83 KCAL/MOL
REMARK 923 INTER-LIGAND FREE ENERGY PREDICTED BY IDOCK:   -3.88 KCAL/MOL
REMARK 924 INTRA-LIGAND FREE ENERGY PREDICTED BY IDOCK:    0.06 KCAL/MOL
REMARK 927      BINDING AFFINITY PREDICTED BY RF-SCORE:    0.00 PKD
ROOT
HETATM    1  C   UNL     1     -10.065  13.261  67.184  1.00  0.00    -0.239 C  
HETATM    2  C   UNL     1      -8.657  13.850  67.053  1.00  0.00    -0.190 C  
HETATM    3  C   UNL     1      -8.315  13.002  68.276  1.00  0.00    -0.158 C  
HETATM    4  N   UNL     1      -9.621  12.633  68.460  1.00  0.00    -0.161 N  
HETATM    5  O   UNL     1      -7.306  12.558  68.774  1.00  0.00    -0.108 OA 
HETATM    6  C   UNL     1      -9.970  11.207  68.684  1.00  0.00    -0.205 C  
HETATM    7  C   UNL     1     -11.347  11.183  69.378  1.00  0.00    -0.283 C  
HETATM    8  C   UNL     1      -9.892  10.495  67.304  1.00  0.00    -0.177 C  
HETATM    9  S   UNL     1     -10.530  11.820  66.206  1.00  0.00    -0.254 S  
HETATM   10  O   UNL     1     -11.975  11.736  66.181  1.00  0.00    -0.464 OA 
HETATM   11  O   UNL     1     -11.994  10.179  69.621  1.00  0.00    -0.124 OA 
HETATM   12  O   UNL     1     -11.777  12.410  69.779  1.00  0.00    -0.307 OA 
HETATM   13  C   UNL     1     -10.738   9.227  67.090  1.00  0.00    -0.222 C  
HETATM   14  O   UNL     1      -9.768  11.810  64.969  1.00  0.00    -0.240 OA 
ENDROOT
BRANCH   8  15
HETATM   15  C   UNL     1      -8.442  10.178  66.826  1.00  0.00    -0.126 C  
BRANCH  15  16
HETATM   16  N   UNL     1      -8.223   8.933  66.124  1.00  0.00    -0.113 NA 
HETATM   17  C   UNL     1      -8.067   7.695  66.672  1.00  0.00    -0.119 A  
HETATM   18  C   UNL     1      -7.986   6.862  65.582  1.00  0.00    -0.120 A  
HETATM   19  N   UNL     1      -8.055   7.605  64.438  1.00  0.00    -0.120 NA 
HETATM   20  N   UNL     1      -8.175   8.877  64.783  1.00  0.00    -0.154 NA 
ENDBRANCH  15  16
ENDBRANCH   8  15
TORSDOF 2
ENDMDL
MODEL      120
REMARK 921   NORMALIZED FREE ENERGY PREDICTED BY IDOCK:   -3.30 KCAL/MOL
REMARK 922        TOTAL FREE ENERGY PREDICTED BY IDOCK:   -3.79 KCAL/MOL
REMARK 923 INTER-LIGAND FREE ENERGY PREDICTED BY IDOCK:   -3.50 KCAL/MOL
REMARK 924 INTRA-LIGAND FREE ENERGY PREDICTED BY IDOCK:   -0.29 KCAL/MOL
REMARK 927      BINDING AFFINITY PREDICTED BY RF-SCORE:    0.00 PKD
ROOT
HETATM    1  C   UNL     1     -10.938   7.777  71.417  1.00  0.00    -0.235 C  
HETATM    2  C   UNL     1     -11.827   6.556  71.166  1.00  0.00    -0.383 C  
HETATM    3  C   UNL     1     -11.402   6.692  69.706  1.00  0.00    -0.354 C  
HETATM    4  N   UNL     1     -10.758   7.877  69.941  1.00  0.00    -0.247 N  
HETATM    5  O   UNL     1     -11.364   5.967  68.738  1.00  0.00    -0.284 OA 
HETATM    6  C   UNL     1      -9.382   8.094  69.428  1.00  0.00    -0.155 C  
HETATM    7  C   UNL     1      -9.159   9.618  69.363  1.00  0.00    -0.188 C  
HETATM    8  C   UNL     1      -8.417   7.306  70.359  1.00  0.00    -0.139 C  
HETATM    9  S   UNL     1      -9.241   7.551  71.981  1.00  0.00    -0.135 S  
HETATM   10  O   UNL     1      -8.780   8.804  72.543  1.00  0.00    -0.406 OA 
HETATM   11  O   UNL     1      -8.105  10.164  69.085  1.00  0.00    -0.112 OA 
HETATM   12  O   UNL     1     -10.290  10.345  69.578  1.00  0.00    -0.222 OA 
HETATM   13  C   UNL     1      -6.959   7.785  70.469  1.00  0.00    -0.046 C  
HETATM   14  O   UNL     1      -9.146   6.320  72.745  1.00  0.00    -0.133 OA 
ENDROOT
BRANCH   8  15
HETATM   15  C   UNL     1      -8.388   5.769  70.101  1.00  0.00    -0.117 C  
BRANCH  15  16
HETATM   16  N   UNL     1      -7.706   5.299  68.916  1.00  0.00    -0.081 NA 
HETATM   17  C   UNL     1      -6.577   4.536  68.864  1.00  0.00    -0.045 A  
HETATM   18  C   UNL     1      -6.408   4.294  67.522  1.00  0.00    -0.037 A  
HETATM   19  N   UNL     1      -7.390   4.931  66.819  1.00  0.00    -0.084 NA 
HETATM   20  N   UNL     1      -8.167   5.565  67.683  1.00  0.00    -0.101 NA 
ENDBRANCH  15  16
ENDBRANCH   8  15
TORSDOF 2
ENDMDL
MODEL      121
REMARK 921   NORMALIZED FREE ENERGY PREDICTED BY IDOCK:   -3.29 KCAL/MOL
REMARK 922        TOTAL FREE ENERGY PREDICTED BY IDOCK:   -3.77 KCAL/MOL
REMARK 923 INTER-LIGAND FREE ENERGY PREDICTED BY IDOCK:   -3.51 KCAL/MOL
REMARK 924 INTRA-LIGAND FREE ENERGY PREDICTED BY IDOCK:   -0.27 KCAL/MOL
REMARK 927      BINDING AFFINITY PREDICTED BY RF-SCORE:    0.00 PKD
ROOT
HETATM    1  C   UNL     1      -9.268   7.371  67.532  1.00  0.00    -0.130 C  
HETATM    2  C   UNL     1      -7.769   7.222  67.256  1.00  0.00    -0.109 C  
HETATM    3  C   UNL     1      -7.598   8.428  68.177  1.00  0.00    -0.098 C  
HETATM    4  N   UNL     1      -8.950   8.631  68.261  1.00  0.00    -0.142 N  
HETATM    5  O   UNL     1      -6.700   8.902  68.835  1.00  0.00    -0.052 OA 
HETATM    6  C   UNL     1      -9.593   8.844  69.582  1.00  0.00    -0.169 C  
HETATM    7  C   UNL     1     -10.932   9.562  69.322  1.00  0.00    -0.145 C  
HETATM    8  C   UNL     1      -9.690   7.454  70.272  1.00  0.00    -0.172 C  
HETATM    9  S   UNL     1     -10.046   6.384  68.824  1.00  0.00    -0.171 S  
HETATM   10  O   UNL     1     -11.476   6.385  68.596  1.00  0.00    -0.254 OA 
HETATM   11  O   UNL     1     -11.776   9.806  70.168  1.00  0.00    -0.221 OA 
HETATM   12  O   UNL     1     -11.083   9.987  68.037  1.00  0.00    -0.266 OA 
HETATM   13  C   UNL     1     -10.792   7.240  71.326  1.00  0.00    -0.255 C  
HETATM   14  O   UNL     1      -9.324   5.134  68.977  1.00  0.00    -0.109 OA 
ENDROOT
BRANCH   8  15
HETATM   15  C   UNL     1      -8.350   6.945  70.885  1.00  0.00    -0.130 C  
BRANCH  15  16
HETATM   16  N   UNL     1      -8.051   7.316  72.250  1.00  0.00    -0.100 NA 
HETATM   17  C   UNL     1      -7.891   6.478  73.314  1.00  0.00    -0.096 A  
HETATM   18  C   UNL     1      -7.531   7.318  74.340  1.00  0.00    -0.117 A  
HETATM   19  N   UNL     1      -7.522   8.607  73.889  1.00  0.00    -0.399 NA 
HETATM   20  N   UNL     1      -7.866   8.596  72.610  1.00  0.00    -0.373 NA 
ENDBRANCH  15  16
ENDBRANCH   8  15
TORSDOF 2
ENDMDL
MODEL      122
REMARK 921   NORMALIZED FREE ENERGY PREDICTED BY IDOCK:   -3.24 KCAL/MOL
REMARK 922        TOTAL FREE ENERGY PREDICTED BY IDOCK:   -3.73 KCAL/MOL
REMARK 923 INTER-LIGAND FREE ENERGY PREDICTED BY IDOCK:   -3.47 KCAL/MOL
REMARK 924 INTRA-LIGAND FREE ENERGY PREDICTED BY IDOCK:   -0.26 KCAL/MOL
REMARK 927      BINDING AFFINITY PREDICTED BY RF-SCORE:    0.00 PKD
ROOT
HETATM    1  C   UNL     1     -10.331   8.542  68.605  1.00  0.00    -0.198 C  
HETATM    2  C   UNL     1     -10.595   7.291  67.763  1.00  0.00    -0.289 C  
HETATM    3  C   UNL     1      -9.139   6.933  68.050  1.00  0.00    -0.120 C  
HETATM    4  N   UNL     1      -8.898   8.140  68.651  1.00  0.00    -0.134 N  
HETATM    5  O   UNL     1      -8.472   5.923  68.042  1.00  0.00    -0.111 OA 
HETATM    6  C   UNL     1      -8.207   8.196  69.963  1.00  0.00    -0.120 C  
HETATM    7  C   UNL     1      -7.611   9.612  70.099  1.00  0.00    -0.158 C  
HETATM    8  C   UNL     1      -9.247   7.790  71.045  1.00  0.00    -0.151 C  
HETATM    9  S   UNL     1     -10.766   8.555  70.355  1.00  0.00    -0.230 S  
HETATM   10  O   UNL     1     -10.825   9.932  70.797  1.00  0.00    -0.309 OA 
HETATM   11  O   UNL     1      -7.063  10.052  71.095  1.00  0.00    -0.291 OA 
HETATM   12  O   UNL     1      -7.683  10.347  68.955  1.00  0.00    -0.094 OA 
HETATM   13  C   UNL     1      -9.043   8.306  72.481  1.00  0.00    -0.323 C  
HETATM   14  O   UNL     1     -11.885   7.657  70.580  1.00  0.00    -0.251 OA 
ENDROOT
BRANCH   8  15
HETATM   15  C   UNL     1      -9.518   6.257  71.132  1.00  0.00    -0.170 C  
BRANCH  15  16
HETATM   16  N   UNL     1      -8.719   5.484  72.057  1.00  0.00    -0.131 NA 
HETATM   17  C   UNL     1      -7.409   5.132  71.918  1.00  0.00    -0.086 A  
HETATM   18  C   UNL     1      -7.115   4.496  73.100  1.00  0.00    -0.077 A  
HETATM   19  N   UNL     1      -8.234   4.450  73.881  1.00  0.00    -0.099 NA 
HETATM   20  N   UNL     1      -9.219   5.038  73.220  1.00  0.00    -0.128 NA 
ENDBRANCH  15  16
ENDBRANCH   8  15
TORSDOF 2
ENDMDL
MODEL      123
REMARK 921   NORMALIZED FREE ENERGY PREDICTED BY IDOCK:   -3.23 KCAL/MOL
REMARK 922        TOTAL FREE ENERGY PREDICTED BY IDOCK:   -3.71 KCAL/MOL
REMARK 923 INTER-LIGAND FREE ENERGY PREDICTED BY IDOCK:   -3.54 KCAL/MOL
REMARK 924 INTRA-LIGAND FREE ENERGY PREDICTED BY IDOCK:   -0.17 KCAL/MOL
REMARK 927      BINDING AFFINITY PREDICTED BY RF-SCORE:    0.00 PKD
ROOT
HETATM    1  C   UNL     1      -7.759   6.940  66.415  1.00  0.00    -0.098 C  
HETATM    2  C   UNL     1      -8.962   6.105  65.963  1.00  0.00    -0.156 C  
HETATM    3  C   UNL     1      -9.754   6.900  67.000  1.00  0.00    -0.163 C  
HETATM    4  N   UNL     1      -8.625   7.501  67.490  1.00  0.00    -0.122 N  
HETATM    5  O   UNL     1     -10.919   7.164  67.191  1.00  0.00    -0.342 OA 
HETATM    6  C   UNL     1      -8.594   8.969  67.704  1.00  0.00    -0.120 C  
HETATM    7  C   UNL     1      -7.474   9.253  68.727  1.00  0.00    -0.076 C  
HETATM    8  C   UNL     1      -8.421   9.631  66.308  1.00  0.00    -0.119 C  
HETATM    9  S   UNL     1      -7.301   8.423  65.499  1.00  0.00    -0.085 S  
HETATM   10  O   UNL     1      -5.936   8.764  65.843  1.00  0.00    -0.050 OA 
HETATM   11  O   UNL     1      -7.093  10.360  69.064  1.00  0.00    -0.064 OA 
HETATM   12  O   UNL     1      -6.966   8.129  69.304  1.00  0.00    -0.053 OA 
HETATM   13  C   UNL     1      -7.775  11.026  66.238  1.00  0.00    -0.132 C  
HETATM   14  O   UNL     1      -7.697   8.274  64.110  1.00  0.00    -0.122 OA 
ENDROOT
BRANCH   8  15
HETATM   15  C   UNL     1      -9.724   9.675  65.452  1.00  0.00    -0.295 C  
BRANCH  15  16
HETATM   16  N   UNL     1     -10.519  10.881  65.499  1.00  0.00    -0.247 NA 
HETATM   17  C   UNL     1     -11.065  11.465  66.604  1.00  0.00    -0.271 A  
HETATM   18  C   UNL     1     -11.631  12.619  66.118  1.00  0.00    -0.393 A  
HETATM   19  N   UNL     1     -11.449  12.678  64.766  1.00  0.00    -0.310 NA 
HETATM   20  N   UNL     1     -10.786  11.594  64.393  1.00  0.00    -0.322 NA 
ENDBRANCH  15  16
ENDBRANCH   8  15
TORSDOF 2
ENDMDL
MODEL      124
REMARK 921   NORMALIZED FREE ENERGY PREDICTED BY IDOCK:   -3.22 KCAL/MOL
REMARK 922        TOTAL FREE ENERGY PREDICTED BY IDOCK:   -3.70 KCAL/MOL
REMARK 923 INTER-LIGAND FREE ENERGY PREDICTED BY IDOCK:   -4.36 KCAL/MOL
REMARK 924 INTRA-LIGAND FREE ENERGY PREDICTED BY IDOCK:    0.65 KCAL/MOL
REMARK 927      BINDING AFFINITY PREDICTED BY RF-SCORE:    0.00 PKD
ROOT
HETATM    1  C   UNL     1     -10.167  17.888  66.509  1.00  0.00    -0.379 C  
HETATM    2  C   UNL     1      -9.726  19.312  66.858  1.00  0.00    -0.406 C  
HETATM    3  C   UNL     1      -9.879  18.877  68.314  1.00  0.00    -0.374 C  
HETATM    4  N   UNL     1     -10.429  17.674  67.960  1.00  0.00    -0.384 N  
HETATM    5  O   UNL     1      -9.458  19.252  69.384  1.00  0.00    -0.201 OA 
HETATM    6  C   UNL     1      -9.933  16.417  68.572  1.00  0.00    -0.239 C  
HETATM    7  C   UNL     1     -11.051  15.366  68.415  1.00  0.00    -0.301 C  
HETATM    8  C   UNL     1      -8.580  16.076  67.886  1.00  0.00    -0.164 C  
HETATM    9  S   UNL     1      -8.928  16.623  66.169  1.00  0.00    -0.237 S  
HETATM   10  O   UNL     1      -9.573  15.534  65.465  1.00  0.00    -0.312 OA 
HETATM   11  O   UNL     1     -10.956  14.187  68.710  1.00  0.00    -0.241 OA 
HETATM   12  O   UNL     1     -12.228  15.885  67.968  1.00  0.00     0.246 OA 
HETATM   13  C   UNL     1      -8.130  14.605  67.854  1.00  0.00    -0.149 C  
HETATM   14  O   UNL     1      -7.735  17.249  65.627  1.00  0.00    -0.393 OA 
ENDROOT
BRANCH   8  15
HETATM   15  C   UNL     1      -7.373  16.925  68.389  1.00  0.00    -0.202 C  
BRANCH  15  16
HETATM   16  N   UNL     1      -6.650  16.445  69.545  1.00  0.00    -0.213 NA 
HETATM   17  C   UNL     1      -6.626  15.171  70.032  1.00  0.00    -0.146 A  
HETATM   18  C   UNL     1      -5.726  15.234  71.068  1.00  0.00     0.064 A  
HETATM   19  N   UNL     1      -5.273  16.516  71.198  1.00  0.00    -0.137 NA 
HETATM   20  N   UNL     1      -5.865  17.255  70.274  1.00  0.00    -0.191 NA 
ENDBRANCH  15  16
ENDBRANCH   8  15
TORSDOF 2
ENDMDL
MODEL      125
REMARK 921   NORMALIZED FREE ENERGY PREDICTED BY IDOCK:   -3.20 KCAL/MOL
REMARK 922        TOTAL FREE ENERGY PREDICTED BY IDOCK:   -3.68 KCAL/MOL
REMARK 923 INTER-LIGAND FREE ENERGY PREDICTED BY IDOCK:   -3.88 KCAL/MOL
REMARK 924 INTRA-LIGAND FREE ENERGY PREDICTED BY IDOCK:    0.20 KCAL/MOL
REMARK 927      BINDING AFFINITY PREDICTED BY RF-SCORE:    0.00 PKD
ROOT
HETATM    1  C   UNL     1      -9.511  17.139  67.657  1.00  0.00    -0.241 C  
HETATM    2  C   UNL     1     -10.643  16.156  67.346  1.00  0.00    -0.311 C  
HETATM    3  C   UNL     1      -9.862  15.842  66.072  1.00  0.00    -0.337 C  
HETATM    4  N   UNL     1      -8.963  16.849  66.303  1.00  0.00    -0.278 N  
HETATM    5  O   UNL     1      -9.817  14.928  65.280  1.00  0.00    -0.327 OA 
HETATM    6  C   UNL     1      -7.506  16.589  66.190  1.00  0.00     0.118 C  
HETATM    7  C   UNL     1      -6.821  17.952  65.961  1.00  0.00    -0.301 C  
HETATM    8  C   UNL     1      -7.078  15.821  67.472  1.00  0.00    -0.186 C  
HETATM    9  S   UNL     1      -8.149  16.631  68.723  1.00  0.00    -0.241 S  
HETATM   10  O   UNL     1      -7.476  17.823  69.197  1.00  0.00    -0.206 OA 
HETATM   11  O   UNL     1      -5.617  18.137  65.926  1.00  0.00    -0.161 OA 
HETATM   12  O   UNL     1      -7.695  18.968  65.721  1.00  0.00    -0.454 OA 
HETATM   13  C   UNL     1      -5.613  15.931  67.932  1.00  0.00    -0.150 C  
HETATM   14  O   UNL     1      -8.618  15.626  69.659  1.00  0.00    -0.230 OA 
ENDROOT
BRANCH   8  15
HETATM   15  C   UNL     1      -7.457  14.309  67.471  1.00  0.00    -0.182 C  
BRANCH  15  16
HETATM   16  N   UNL     1      -6.633  13.408  68.246  1.00  0.00    -0.092 NA 
HETATM   17  C   UNL     1      -5.661  12.573  67.779  1.00  0.00    -0.116 A  
HETATM   18  C   UNL     1      -5.130  12.020  68.919  1.00  0.00    -0.050 A  
HETATM   19  N   UNL     1      -5.802  12.494  70.009  1.00  0.00    -0.137 NA 
HETATM   20  N   UNL     1      -6.739  13.327  69.582  1.00  0.00     0.002 NA 
ENDBRANCH  15  16
ENDBRANCH   8  15
TORSDOF 2
ENDMDL
MODEL      126
REMARK 921   NORMALIZED FREE ENERGY PREDICTED BY IDOCK:   -3.18 KCAL/MOL
REMARK 922        TOTAL FREE ENERGY PREDICTED BY IDOCK:   -3.65 KCAL/MOL
REMARK 923 INTER-LIGAND FREE ENERGY PREDICTED BY IDOCK:   -3.38 KCAL/MOL
REMARK 924 INTRA-LIGAND FREE ENERGY PREDICTED BY IDOCK:   -0.27 KCAL/MOL
REMARK 927      BINDING AFFINITY PREDICTED BY RF-SCORE:    0.00 PKD
ROOT
HETATM    1  C   UNL     1      -8.488   9.156  68.683  1.00  0.00    -0.127 C  
HETATM    2  C   UNL     1      -6.978   9.031  68.464  1.00  0.00    -0.064 C  
HETATM    3  C   UNL     1      -7.130   7.622  69.032  1.00  0.00    -0.078 C  
HETATM    4  N   UNL     1      -8.441   7.834  69.368  1.00  0.00    -0.133 N  
HETATM    5  O   UNL     1      -6.498   6.591  68.989  1.00  0.00    -0.039 OA 
HETATM    6  C   UNL     1      -9.476   6.833  69.007  1.00  0.00    -0.133 C  
HETATM    7  C   UNL     1     -10.674   7.062  69.952  1.00  0.00    -0.240 C  
HETATM    8  C   UNL     1      -9.767   7.003  67.489  1.00  0.00    -0.136 C  
HETATM    9  S   UNL     1      -9.623   8.825  67.321  1.00  0.00    -0.178 S  
HETATM   10  O   UNL     1     -10.904   9.417  67.645  1.00  0.00    -0.267 OA 
HETATM   11  O   UNL     1     -11.747   6.490  69.877  1.00  0.00    -0.406 OA 
HETATM   12  O   UNL     1     -10.412   7.935  70.963  1.00  0.00    -0.202 OA 
HETATM   13  C   UNL     1     -11.144   6.566  66.958  1.00  0.00    -0.411 C  
HETATM   14  O   UNL     1      -8.966   9.129  66.062  1.00  0.00    -0.157 OA 
ENDROOT
BRANCH   8  15
HETATM   15  C   UNL     1      -8.685   6.381  66.554  1.00  0.00    -0.133 C  
BRANCH  15  16
HETATM   16  N   UNL     1      -8.844   4.997  66.170  1.00  0.00    -0.122 NA 
HETATM   17  C   UNL     1      -8.807   3.906  66.987  1.00  0.00    -0.126 A  
HETATM   18  C   UNL     1      -9.104   2.859  66.148  1.00  0.00    -0.130 A  
HETATM   19  N   UNL     1      -9.269   3.330  64.877  1.00  0.00    -0.141 NA 
HETATM   20  N   UNL     1      -9.083   4.640  64.898  1.00  0.00    -0.155 NA 
ENDBRANCH  15  16
ENDBRANCH   8  15
TORSDOF 2
ENDMDL
MODEL      127
REMARK 921   NORMALIZED FREE ENERGY PREDICTED BY IDOCK:   -3.18 KCAL/MOL
REMARK 922        TOTAL FREE ENERGY PREDICTED BY IDOCK:   -3.65 KCAL/MOL
REMARK 923 INTER-LIGAND FREE ENERGY PREDICTED BY IDOCK:   -3.35 KCAL/MOL
REMARK 924 INTRA-LIGAND FREE ENERGY PREDICTED BY IDOCK:   -0.30 KCAL/MOL
REMARK 927      BINDING AFFINITY PREDICTED BY RF-SCORE:    0.00 PKD
ROOT
HETATM    1  C   UNL     1     -10.278  10.583  69.010  1.00  0.00    -0.216 C  
HETATM    2  C   UNL     1     -11.397  10.732  67.975  1.00  0.00    -0.378 C  
HETATM    3  C   UNL     1     -10.358  10.266  66.958  1.00  0.00    -0.243 C  
HETATM    4  N   UNL     1      -9.346  10.310  67.880  1.00  0.00    -0.138 N  
HETATM    5  O   UNL     1     -10.379   9.771  65.854  1.00  0.00    -0.214 OA 
HETATM    6  C   UNL     1      -8.411   9.165  68.019  1.00  0.00    -0.121 C  
HETATM    7  C   UNL     1      -7.131   9.706  68.687  1.00  0.00    -0.072 C  
HETATM    8  C   UNL     1      -9.166   8.051  68.798  1.00  0.00    -0.143 C  
HETATM    9  S   UNL     1     -10.143   9.066  69.975  1.00  0.00    -0.208 S  
HETATM   10  O   UNL     1      -9.320   9.339  71.135  1.00  0.00    -0.254 OA 
HETATM   11  O   UNL     1      -6.187   9.027  69.051  1.00  0.00    -0.043 OA 
HETATM   12  O   UNL     1      -7.098  11.064  68.784  1.00  0.00    -0.072 OA 
HETATM   13  C   UNL     1      -8.334   7.032  69.598  1.00  0.00    -0.133 C  
HETATM   14  O   UNL     1     -11.459   8.471  70.125  1.00  0.00    -0.154 OA 
ENDROOT
BRANCH   8  15
HETATM   15  C   UNL     1     -10.191   7.249  67.941  1.00  0.00    -0.191 C  
BRANCH  15  16
HETATM   16  N   UNL     1      -9.679   6.209  67.077  1.00  0.00    -0.135 NA 
HETATM   17  C   UNL     1      -9.827   4.863  67.233  1.00  0.00    -0.184 A  
HETATM   18  C   UNL     1      -9.243   4.337  66.105  1.00  0.00    -0.145 A  
HETATM   19  N   UNL     1      -8.740   5.351  65.341  1.00  0.00    -0.153 NA 
HETATM   20  N   UNL     1      -8.992   6.494  65.960  1.00  0.00    -0.149 NA 
ENDBRANCH  15  16
ENDBRANCH   8  15
TORSDOF 2
ENDMDL
MODEL      128
REMARK 921   NORMALIZED FREE ENERGY PREDICTED BY IDOCK:   -3.16 KCAL/MOL
REMARK 922        TOTAL FREE ENERGY PREDICTED BY IDOCK:   -3.63 KCAL/MOL
REMARK 923 INTER-LIGAND FREE ENERGY PREDICTED BY IDOCK:   -3.34 KCAL/MOL
REMARK 924 INTRA-LIGAND FREE ENERGY PREDICTED BY IDOCK:   -0.29 KCAL/MOL
REMARK 927      BINDING AFFINITY PREDICTED BY RF-SCORE:    0.00 PKD
ROOT
HETATM    1  C   UNL     1      -7.009   5.862  66.907  1.00  0.00    -0.068 C  
HETATM    2  C   UNL     1      -6.172   5.513  68.141  1.00  0.00    -0.033 C  
HETATM    3  C   UNL     1      -6.638   6.859  68.693  1.00  0.00    -0.054 C  
HETATM    4  N   UNL     1      -7.233   7.206  67.509  1.00  0.00    -0.088 N  
HETATM    5  O   UNL     1      -6.733   7.366  69.787  1.00  0.00    -0.042 OA 
HETATM    6  C   UNL     1      -8.616   7.746  67.498  1.00  0.00    -0.122 C  
HETATM    7  C   UNL     1      -8.786   8.524  66.178  1.00  0.00    -0.167 C  
HETATM    8  C   UNL     1      -9.578   6.541  67.706  1.00  0.00    -0.122 C  
HETATM    9  S   UNL     1      -8.695   5.240  66.760  1.00  0.00    -0.112 S  
HETATM   10  O   UNL     1      -9.093   5.334  65.371  1.00  0.00    -0.160 OA 
HETATM   11  O   UNL     1      -9.828   9.016  65.780  1.00  0.00    -0.262 OA 
HETATM   12  O   UNL     1      -7.624   8.691  65.489  1.00  0.00    -0.083 OA 
HETATM   13  C   UNL     1     -11.014   6.656  67.165  1.00  0.00    -0.478 C  
HETATM   14  O   UNL     1      -8.809   3.982  67.477  1.00  0.00    -0.105 OA 
ENDROOT
BRANCH   8  15
HETATM   15  C   UNL     1      -9.670   6.039  69.178  1.00  0.00    -0.137 C  
BRANCH  15  16
HETATM   16  N   UNL     1     -10.412   6.847  70.119  1.00  0.00    -0.203 NA 
HETATM   17  C   UNL     1     -11.586   6.524  70.735  1.00  0.00    -0.377 A  
HETATM   18  C   UNL     1     -11.808   7.579  71.588  1.00  0.00    -0.291 A  
HETATM   19  N   UNL     1     -10.811   8.500  71.439  1.00  0.00    -0.244 NA 
HETATM   20  N   UNL     1      -9.973   8.052  70.517  1.00  0.00    -0.190 NA 
ENDBRANCH  15  16
ENDBRANCH   8  15
TORSDOF 2
ENDMDL
MODEL      129
REMARK 921   NORMALIZED FREE ENERGY PREDICTED BY IDOCK:   -3.13 KCAL/MOL
REMARK 922        TOTAL FREE ENERGY PREDICTED BY IDOCK:   -3.60 KCAL/MOL
REMARK 923 INTER-LIGAND FREE ENERGY PREDICTED BY IDOCK:   -3.80 KCAL/MOL
REMARK 924 INTRA-LIGAND FREE ENERGY PREDICTED BY IDOCK:    0.20 KCAL/MOL
REMARK 927      BINDING AFFINITY PREDICTED BY RF-SCORE:    0.00 PKD
ROOT
HETATM    1  C   UNL     1     -11.387  10.912  67.584  1.00  0.00    -0.270 C  
HETATM    2  C   UNL     1     -11.465  12.308  66.958  1.00  0.00    -0.419 C  
HETATM    3  C   UNL     1     -10.390  12.695  67.970  1.00  0.00    -0.228 C  
HETATM    4  N   UNL     1     -10.473  11.487  68.610  1.00  0.00    -0.197 N  
HETATM    5  O   UNL     1      -9.560  13.570  68.069  1.00  0.00    -0.207 OA 
HETATM    6  C   UNL     1      -9.239  10.729  68.937  1.00  0.00    -0.173 C  
HETATM    7  C   UNL     1      -9.596   9.757  70.080  1.00  0.00    -0.237 C  
HETATM    8  C   UNL     1      -8.743  10.072  67.617  1.00  0.00    -0.121 C  
HETATM    9  S   UNL     1     -10.346   9.648  66.831  1.00  0.00    -0.219 S  
HETATM   10  O   UNL     1     -10.771   8.356  67.328  1.00  0.00    -0.285 OA 
HETATM   11  O   UNL     1      -8.854   8.904  70.535  1.00  0.00    -0.156 OA 
HETATM   12  O   UNL     1     -10.828   9.975  70.617  1.00  0.00    -0.304 OA 
HETATM   13  C   UNL     1      -7.888   8.796  67.716  1.00  0.00    -0.102 C  
HETATM   14  O   UNL     1     -10.246   9.893  65.403  1.00  0.00    -0.273 OA 
ENDROOT
BRANCH   8  15
HETATM   15  C   UNL     1      -8.015  11.051  66.647  1.00  0.00    -0.156 C  
BRANCH  15  16
HETATM   16  N   UNL     1      -6.968  10.512  65.808  1.00  0.00    -0.135 NA 
HETATM   17  C   UNL     1      -5.696  10.192  66.181  1.00  0.00    -0.065 A  
HETATM   18  C   UNL     1      -5.152   9.640  65.047  1.00  0.00    -0.044 A  
HETATM   19  N   UNL     1      -6.072   9.675  64.039  1.00  0.00    -0.096 NA 
HETATM   20  N   UNL     1      -7.175  10.235  64.511  1.00  0.00    -0.112 NA 
ENDBRANCH  15  16
ENDBRANCH   8  15
TORSDOF 2
ENDMDL
MODEL      130
REMARK 921   NORMALIZED FREE ENERGY PREDICTED BY IDOCK:   -3.11 KCAL/MOL
REMARK 922        TOTAL FREE ENERGY PREDICTED BY IDOCK:   -3.58 KCAL/MOL
REMARK 923 INTER-LIGAND FREE ENERGY PREDICTED BY IDOCK:   -3.33 KCAL/MOL
REMARK 924 INTRA-LIGAND FREE ENERGY PREDICTED BY IDOCK:   -0.25 KCAL/MOL
REMARK 927      BINDING AFFINITY PREDICTED BY RF-SCORE:    0.00 PKD
ROOT
HETATM    1  C   UNL     1      -8.632   9.868  65.835  1.00  0.00    -0.137 C  
HETATM    2  C   UNL     1      -9.467  11.133  66.055  1.00  0.00    -0.234 C  
HETATM    3  C   UNL     1     -10.397  10.236  66.868  1.00  0.00    -0.239 C  
HETATM    4  N   UNL     1      -9.719   9.103  66.508  1.00  0.00    -0.219 N  
HETATM    5  O   UNL     1     -11.234  10.399  67.727  1.00  0.00    -0.309 OA 
HETATM    6  C   UNL     1      -9.326   8.108  67.537  1.00  0.00    -0.140 C  
HETATM    7  C   UNL     1      -9.101   6.768  66.808  1.00  0.00    -0.140 C  
HETATM    8  C   UNL     1      -8.094   8.689  68.287  1.00  0.00    -0.118 C  
HETATM    9  S   UNL     1      -7.222   9.525  66.905  1.00  0.00    -0.087 S  
HETATM   10  O   UNL     1      -6.377   8.553  66.243  1.00  0.00    -0.055 OA 
HETATM   11  O   UNL     1      -8.668   5.751  67.322  1.00  0.00    -0.110 OA 
HETATM   12  O   UNL     1      -9.502   6.781  65.507  1.00  0.00     0.275 OA 
HETATM   13  C   UNL     1      -7.121   7.704  68.960  1.00  0.00    -0.078 C  
HETATM   14  O   UNL     1      -6.669  10.776  67.390  1.00  0.00    -0.072 OA 
ENDROOT
BRANCH   8  15
HETATM   15  C   UNL     1      -8.439   9.794  69.331  1.00  0.00    -0.159 C  
BRANCH  15  16
HETATM   16  N   UNL     1      -9.072   9.381  70.563  1.00  0.00    -0.253 NA 
HETATM   17  C   UNL     1     -10.398   9.132  70.765  1.00  0.00    -0.258 A  
HETATM   18  C   UNL     1     -10.454   8.687  72.063  1.00  0.00    -0.352 A  
HETATM   19  N   UNL     1      -9.201   8.714  72.606  1.00  0.00    -0.329 NA 
HETATM   20  N   UNL     1      -8.365   9.165  71.684  1.00  0.00    -0.317 NA 
ENDBRANCH  15  16
ENDBRANCH   8  15
TORSDOF 2
ENDMDL
MODEL      131
REMARK 921   NORMALIZED FREE ENERGY PREDICTED BY IDOCK:   -3.08 KCAL/MOL
REMARK 922        TOTAL FREE ENERGY PREDICTED BY IDOCK:   -3.55 KCAL/MOL
REMARK 923 INTER-LIGAND FREE ENERGY PREDICTED BY IDOCK:   -3.51 KCAL/MOL
REMARK 924 INTRA-LIGAND FREE ENERGY PREDICTED BY IDOCK:   -0.03 KCAL/MOL
REMARK 927      BINDING AFFINITY PREDICTED BY RF-SCORE:    0.00 PKD
ROOT
HETATM    1  C   UNL     1      -8.482   8.171  66.225  1.00  0.00    -0.131 C  
HETATM    2  C   UNL     1      -6.963   8.075  66.400  1.00  0.00    -0.070 C  
HETATM    3  C   UNL     1      -7.084   9.396  67.156  1.00  0.00    -0.086 C  
HETATM    4  N   UNL     1      -8.408   9.530  66.833  1.00  0.00    -0.116 N  
HETATM    5  O   UNL     1      -6.418  10.001  67.966  1.00  0.00    -0.058 OA 
HETATM    6  C   UNL     1      -9.402   9.871  67.881  1.00  0.00    -0.137 C  
HETATM    7  C   UNL     1     -10.627  10.472  67.162  1.00  0.00    -0.264 C  
HETATM    8  C   UNL     1      -9.664   8.576  68.702  1.00  0.00    -0.164 C  
HETATM    9  S   UNL     1      -9.574   7.313  67.374  1.00  0.00    -0.150 S  
HETATM   10  O   UNL     1     -10.881   7.202  66.760  1.00  0.00    -0.320 OA 
HETATM   11  O   UNL     1     -11.680  10.771  67.698  1.00  0.00    -0.538 OA 
HETATM   12  O   UNL     1     -10.417  10.721  65.840  1.00  0.00    -0.252 OA 
HETATM   13  C   UNL     1     -11.014   8.435  69.427  1.00  0.00    -0.016 C  
HETATM   14  O   UNL     1      -8.900   6.136  67.893  1.00  0.00    -0.113 OA 
ENDROOT
BRANCH   8  15
HETATM   15  C   UNL     1      -8.542   8.228  69.727  1.00  0.00    -0.129 C  
BRANCH  15  16
HETATM   16  N   UNL     1      -8.946   7.805  71.049  1.00  0.00    -0.141 NA 
HETATM   17  C   UNL     1      -9.203   8.602  72.125  1.00  0.00    -0.255 A  
HETATM   18  C   UNL     1      -9.634   7.721  73.088  1.00  0.00    -0.275 A  
HETATM   19  N   UNL     1      -9.590   6.450  72.592  1.00  0.00    -0.148 NA 
HETATM   20  N   UNL     1      -9.143   6.511  71.347  1.00  0.00    -0.148 NA 
ENDBRANCH  15  16
ENDBRANCH   8  15
TORSDOF 2
ENDMDL
MODEL      132
REMARK 921   NORMALIZED FREE ENERGY PREDICTED BY IDOCK:   -3.07 KCAL/MOL
REMARK 922        TOTAL FREE ENERGY PREDICTED BY IDOCK:   -3.53 KCAL/MOL
REMARK 923 INTER-LIGAND FREE ENERGY PREDICTED BY IDOCK:   -3.21 KCAL/MOL
REMARK 924 INTRA-LIGAND FREE ENERGY PREDICTED BY IDOCK:   -0.32 KCAL/MOL
REMARK 927      BINDING AFFINITY PREDICTED BY RF-SCORE:    0.00 PKD
ROOT
HETATM    1  C   UNL     1     -10.853   6.526  68.343  1.00  0.00    -0.289 C  
HETATM    2  C   UNL     1     -11.403   6.259  69.747  1.00  0.00    -0.506 C  
HETATM    3  C   UNL     1     -10.012   5.713  70.061  1.00  0.00    -0.204 C  
HETATM    4  N   UNL     1      -9.614   5.809  68.754  1.00  0.00    -0.123 N  
HETATM    5  O   UNL     1      -9.357   5.517  71.059  1.00  0.00    -0.149 OA 
HETATM    6  C   UNL     1      -8.311   6.435  68.416  1.00  0.00    -0.116 C  
HETATM    7  C   UNL     1      -7.912   5.919  67.018  1.00  0.00    -0.102 C  
HETATM    8  C   UNL     1      -8.495   7.973  68.544  1.00  0.00    -0.128 C  
HETATM    9  S   UNL     1     -10.213   8.159  67.925  1.00  0.00    -0.222 S  
HETATM   10  O   UNL     1     -10.169   8.272  66.482  1.00  0.00    -0.288 OA 
HETATM   11  O   UNL     1      -6.950   6.300  66.375  1.00  0.00    -0.063 OA 
HETATM   12  O   UNL     1      -8.706   4.911  66.562  1.00  0.00    -0.113 OA 
HETATM   13  C   UNL     1      -7.572   8.888  67.720  1.00  0.00    -0.093 C  
HETATM   14  O   UNL     1     -10.892   9.163  68.724  1.00  0.00    -0.171 OA 
ENDROOT
BRANCH   8  15
HETATM   15  C   UNL     1      -8.489   8.501  70.011  1.00  0.00    -0.125 C  
BRANCH  15  16
HETATM   16  N   UNL     1      -7.210   8.647  70.669  1.00  0.00    -0.052 NA 
HETATM   17  C   UNL     1      -6.353   7.650  71.031  1.00  0.00    -0.035 A  
HETATM   18  C   UNL     1      -5.260   8.322  71.524  1.00  0.00    -0.033 A  
HETATM   19  N   UNL     1      -5.498   9.666  71.481  1.00  0.00    -0.071 NA 
HETATM   20  N   UNL     1      -6.708   9.853  70.977  1.00  0.00    -0.326 NA 
ENDBRANCH  15  16
ENDBRANCH   8  15
TORSDOF 2
ENDMDL
MODEL      133
REMARK 921   NORMALIZED FREE ENERGY PREDICTED BY IDOCK:   -3.07 KCAL/MOL
REMARK 922        TOTAL FREE ENERGY PREDICTED BY IDOCK:   -3.53 KCAL/MOL
REMARK 923 INTER-LIGAND FREE ENERGY PREDICTED BY IDOCK:   -3.58 KCAL/MOL
REMARK 924 INTRA-LIGAND FREE ENERGY PREDICTED BY IDOCK:    0.06 KCAL/MOL
REMARK 927      BINDING AFFINITY PREDICTED BY RF-SCORE:    0.00 PKD
ROOT
HETATM    1  C   UNL     1     -10.715   8.745  68.992  1.00  0.00    -0.112 C  
HETATM    2  C   UNL     1      -9.700   9.529  68.156  1.00  0.00    -0.166 C  
HETATM    3  C   UNL     1      -9.103   9.956  69.495  1.00  0.00    -0.223 C  
HETATM    4  N   UNL     1     -10.126   9.383  70.202  1.00  0.00    -0.216 N  
HETATM    5  O   UNL     1      -8.035  10.377  69.879  1.00  0.00    -0.132 OA 
HETATM    6  C   UNL     1      -9.833   8.511  71.368  1.00  0.00    -0.228 C  
HETATM    7  C   UNL     1     -11.103   8.482  72.241  1.00  0.00    -0.360 C  
HETATM    8  C   UNL     1      -9.363   7.140  70.805  1.00  0.00    -0.160 C  
HETATM    9  S   UNL     1     -10.442   6.995  69.328  1.00  0.00    -0.217 S  
HETATM   10  O   UNL     1     -11.702   6.410  69.737  1.00  0.00    -0.414 OA 
HETATM   11  O   UNL     1     -11.263   7.784  73.227  1.00  0.00    -0.350 OA 
HETATM   12  O   UNL     1     -12.050   9.382  71.856  1.00  0.00    -0.367 OA 
HETATM   13  C   UNL     1      -9.557   5.889  71.682  1.00  0.00    -0.173 C  
HETATM   14  O   UNL     1      -9.674   6.410  68.243  1.00  0.00    -0.126 OA 
ENDROOT
BRANCH   8  15
HETATM   15  C   UNL     1      -7.893   7.127  70.288  1.00  0.00    -0.104 C  
BRANCH  15  16
HETATM   16  N   UNL     1      -6.837   7.318  71.257  1.00  0.00    -0.054 NA 
HETATM   17  C   UNL     1      -5.886   8.295  71.256  1.00  0.00    -0.035 A  
HETATM   18  C   UNL     1      -5.200   8.085  72.428  1.00  0.00    -0.036 A  
HETATM   19  N   UNL     1      -5.717   6.994  73.066  1.00  0.00    -0.045 NA 
HETATM   20  N   UNL     1      -6.706   6.517  72.326  1.00  0.00    -0.066 NA 
ENDBRANCH  15  16
ENDBRANCH   8  15
TORSDOF 2
ENDMDL
MODEL      134
REMARK 921   NORMALIZED FREE ENERGY PREDICTED BY IDOCK:   -3.06 KCAL/MOL
REMARK 922        TOTAL FREE ENERGY PREDICTED BY IDOCK:   -3.52 KCAL/MOL
REMARK 923 INTER-LIGAND FREE ENERGY PREDICTED BY IDOCK:   -3.22 KCAL/MOL
REMARK 924 INTRA-LIGAND FREE ENERGY PREDICTED BY IDOCK:   -0.30 KCAL/MOL
REMARK 927      BINDING AFFINITY PREDICTED BY RF-SCORE:    0.00 PKD
ROOT
HETATM    1  C   UNL     1     -10.514   9.523  68.919  1.00  0.00    -0.216 C  
HETATM    2  C   UNL     1     -11.402  10.496  68.138  1.00  0.00    -0.324 C  
HETATM    3  C   UNL     1     -10.099  11.189  67.748  1.00  0.00    -0.178 C  
HETATM    4  N   UNL     1      -9.358  10.404  68.592  1.00  0.00    -0.159 N  
HETATM    5  O   UNL     1      -9.738  11.934  66.865  1.00  0.00    -0.195 OA 
HETATM    6  C   UNL     1      -8.112   9.757  68.109  1.00  0.00    -0.108 C  
HETATM    7  C   UNL     1      -7.261   9.432  69.353  1.00  0.00    -0.066 C  
HETATM    8  C   UNL     1      -8.537   8.540  67.239  1.00  0.00    -0.123 C  
HETATM    9  S   UNL     1     -10.013   7.963  68.166  1.00  0.00    -0.186 S  
HETATM   10  O   UNL     1      -9.571   7.073  69.220  1.00  0.00    -0.154 OA 
HETATM   11  O   UNL     1      -6.217   8.803  69.347  1.00  0.00    -0.040 OA 
HETATM   12  O   UNL     1      -7.743   9.981  70.502  1.00  0.00    -0.264 OA 
HETATM   13  C   UNL     1      -7.552   7.365  67.101  1.00  0.00    -0.107 C  
HETATM   14  O   UNL     1     -11.025   7.538  67.216  1.00  0.00    -0.264 OA 
ENDROOT
BRANCH   8  15
HETATM   15  C   UNL     1      -9.026   8.913  65.807  1.00  0.00    -0.203 C  
BRANCH  15  16
HETATM   16  N   UNL     1      -8.025   9.107  64.783  1.00  0.00    -0.119 NA 
HETATM   17  C   UNL     1      -7.806   8.328  63.686  1.00  0.00    -0.152 A  
HETATM   18  C   UNL     1      -6.820   8.996  63.001  1.00  0.00    -0.089 A  
HETATM   19  N   UNL     1      -6.455  10.109  63.703  1.00  0.00    -0.135 NA 
HETATM   20  N   UNL     1      -7.184  10.154  64.808  1.00  0.00    -0.140 NA 
ENDBRANCH  15  16
ENDBRANCH   8  15
TORSDOF 2
ENDMDL
MODEL      135
REMARK 921   NORMALIZED FREE ENERGY PREDICTED BY IDOCK:   -3.05 KCAL/MOL
REMARK 922        TOTAL FREE ENERGY PREDICTED BY IDOCK:   -3.51 KCAL/MOL
REMARK 923 INTER-LIGAND FREE ENERGY PREDICTED BY IDOCK:   -3.56 KCAL/MOL
REMARK 924 INTRA-LIGAND FREE ENERGY PREDICTED BY IDOCK:    0.05 KCAL/MOL
REMARK 927      BINDING AFFINITY PREDICTED BY RF-SCORE:    0.00 PKD
ROOT
HETATM    1  C   UNL     1      -8.613   4.350  68.315  1.00  0.00    -0.094 C  
HETATM    2  C   UNL     1      -9.470   3.327  69.067  1.00  0.00    -0.187 C  
HETATM    3  C   UNL     1      -9.321   4.259  70.267  1.00  0.00    -0.155 C  
HETATM    4  N   UNL     1      -8.422   5.058  69.612  1.00  0.00    -0.087 N  
HETATM    5  O   UNL     1      -9.920   4.451  71.301  1.00  0.00    -0.187 OA 
HETATM    6  C   UNL     1      -8.588   6.534  69.623  1.00  0.00    -0.132 C  
HETATM    7  C   UNL     1      -7.207   7.145  69.310  1.00  0.00    -0.085 C  
HETATM    8  C   UNL     1      -9.725   6.873  68.619  1.00  0.00    -0.136 C  
HETATM    9  S   UNL     1      -9.406   5.622  67.314  1.00  0.00    -0.116 S  
HETATM   10  O   UNL     1      -8.420   6.158  66.399  1.00  0.00    -0.116 OA 
HETATM   11  O   UNL     1      -6.986   8.331  69.135  1.00  0.00    -0.060 OA 
HETATM   12  O   UNL     1      -6.194   6.234  69.311  1.00  0.00    -0.030 OA 
HETATM   13  C   UNL     1      -9.731   8.270  67.972  1.00  0.00    -0.187 C  
HETATM   14  O   UNL     1     -10.678   5.126  66.821  1.00  0.00    -0.256 OA 
ENDROOT
BRANCH   8  15
HETATM   15  C   UNL     1     -11.162   6.600  69.158  1.00  0.00    -0.242 C  
BRANCH  15  16
HETATM   16  N   UNL     1     -11.589   7.328  70.331  1.00  0.00    -0.256 NA 
HETATM   17  C   UNL     1     -12.321   6.848  71.377  1.00  0.00    -0.376 A  
HETATM   18  C   UNL     1     -12.369   7.903  72.255  1.00  0.00    -0.256 A  
HETATM   19  N   UNL     1     -11.715   8.973  71.714  1.00  0.00    -0.347 NA 
HETATM   20  N   UNL     1     -11.262   8.616  70.522  1.00  0.00    -0.253 NA 
ENDBRANCH  15  16
ENDBRANCH   8  15
TORSDOF 2
ENDMDL
MODEL      136
REMARK 921   NORMALIZED FREE ENERGY PREDICTED BY IDOCK:   -3.05 KCAL/MOL
REMARK 922        TOTAL FREE ENERGY PREDICTED BY IDOCK:   -3.51 KCAL/MOL
REMARK 923 INTER-LIGAND FREE ENERGY PREDICTED BY IDOCK:   -3.86 KCAL/MOL
REMARK 924 INTRA-LIGAND FREE ENERGY PREDICTED BY IDOCK:    0.36 KCAL/MOL
REMARK 927      BINDING AFFINITY PREDICTED BY RF-SCORE:    0.00 PKD
ROOT
HETATM    1  C   UNL     1     -11.433  13.238  66.491  1.00  0.00    -0.337 C  
HETATM    2  C   UNL     1     -12.642  13.667  67.327  1.00  0.00     0.231 C  
HETATM    3  C   UNL     1     -11.794  13.280  68.537  1.00  0.00    -0.349 C  
HETATM    4  N   UNL     1     -10.805  12.750  67.751  1.00  0.00    -0.220 N  
HETATM    5  O   UNL     1     -11.788  13.545  69.718  1.00  0.00    -0.300 OA 
HETATM    6  C   UNL     1      -9.385  13.106  67.996  1.00  0.00    -0.219 C  
HETATM    7  C   UNL     1      -8.526  11.991  67.366  1.00  0.00    -0.170 C  
HETATM    8  C   UNL     1      -9.167  14.536  67.426  1.00  0.00    -0.200 C  
HETATM    9  S   UNL     1     -10.240  14.472  65.939  1.00  0.00    -0.339 S  
HETATM   10  O   UNL     1      -9.475  13.907  64.847  1.00  0.00     0.274 OA 
HETATM   11  O   UNL     1      -7.310  12.001  67.285  1.00  0.00    -0.135 OA 
HETATM   12  O   UNL     1      -9.248  10.913  66.952  1.00  0.00    -0.158 OA 
HETATM   13  C   UNL     1      -7.745  14.937  66.992  1.00  0.00    -0.079 C  
HETATM   14  O   UNL     1     -10.906  15.754  65.788  1.00  0.00    -0.322 OA 
ENDROOT
BRANCH   8  15
HETATM   15  C   UNL     1      -9.721  15.679  68.329  1.00  0.00    -0.201 C  
BRANCH  15  16
HETATM   16  N   UNL     1      -9.046  16.957  68.287  1.00  0.00    -0.228 NA 
HETATM   17  C   UNL     1      -7.790  17.239  68.736  1.00  0.00    -0.254 A  
HETATM   18  C   UNL     1      -7.602  18.552  68.377  1.00  0.00    -0.292 A  
HETATM   19  N   UNL     1      -8.733  19.023  67.772  1.00  0.00    -0.293 NA 
HETATM   20  N   UNL     1      -9.621  18.042  67.745  1.00  0.00    -0.272 NA 
ENDBRANCH  15  16
ENDBRANCH   8  15
TORSDOF 2
ENDMDL
MODEL      137
REMARK 921   NORMALIZED FREE ENERGY PREDICTED BY IDOCK:   -3.05 KCAL/MOL
REMARK 922        TOTAL FREE ENERGY PREDICTED BY IDOCK:   -3.51 KCAL/MOL
REMARK 923 INTER-LIGAND FREE ENERGY PREDICTED BY IDOCK:   -3.52 KCAL/MOL
REMARK 924 INTRA-LIGAND FREE ENERGY PREDICTED BY IDOCK:    0.02 KCAL/MOL
REMARK 927      BINDING AFFINITY PREDICTED BY RF-SCORE:    0.00 PKD
ROOT
HETATM    1  C   UNL     1     -10.479   7.674  68.999  1.00  0.00    -0.205 C  
HETATM    2  C   UNL     1     -10.978   6.227  68.960  1.00  0.00    -0.437 C  
HETATM    3  C   UNL     1     -11.005   6.400  67.443  1.00  0.00    -0.376 C  
HETATM    4  N   UNL     1     -10.722   7.738  67.531  1.00  0.00    -0.231 N  
HETATM    5  O   UNL     1     -10.992   5.666  66.481  1.00  0.00    -0.252 OA 
HETATM    6  C   UNL     1      -9.661   8.334  66.681  1.00  0.00    -0.251 C  
HETATM    7  C   UNL     1      -9.948   9.847  66.597  1.00  0.00    -0.217 C  
HETATM    8  C   UNL     1      -8.295   7.935  67.308  1.00  0.00    -0.122 C  
HETATM    9  S   UNL     1      -8.710   8.012  69.094  1.00  0.00    -0.137 S  
HETATM   10  O   UNL     1      -8.533   9.376  69.546  1.00  0.00    -0.130 OA 
HETATM   11  O   UNL     1      -9.223  10.672  66.066  1.00  0.00    -0.171 OA 
HETATM   12  O   UNL     1     -11.153  10.204  67.118  1.00  0.00    -0.213 OA 
HETATM   13  C   UNL     1      -7.081   8.843  67.044  1.00  0.00    -0.078 C  
HETATM   14  O   UNL     1      -8.046   6.916  69.776  1.00  0.00    -0.121 OA 
ENDROOT
BRANCH   8  15
HETATM   15  C   UNL     1      -7.858   6.468  67.013  1.00  0.00    -0.108 C  
BRANCH  15  16
HETATM   16  N   UNL     1      -7.819   6.042  65.632  1.00  0.00    -0.098 NA 
HETATM   17  C   UNL     1      -7.422   6.777  64.555  1.00  0.00    -0.099 A  
HETATM   18  C   UNL     1      -7.485   5.886  63.510  1.00  0.00    -0.071 A  
HETATM   19  N   UNL     1      -7.942   4.683  63.968  1.00  0.00    -0.091 NA 
HETATM   20  N   UNL     1      -8.167   4.798  65.267  1.00  0.00    -0.116 NA 
ENDBRANCH  15  16
ENDBRANCH   8  15
TORSDOF 2
ENDMDL
MODEL      138
REMARK 921   NORMALIZED FREE ENERGY PREDICTED BY IDOCK:   -3.01 KCAL/MOL
REMARK 922        TOTAL FREE ENERGY PREDICTED BY IDOCK:   -3.46 KCAL/MOL
REMARK 923 INTER-LIGAND FREE ENERGY PREDICTED BY IDOCK:   -3.33 KCAL/MOL
REMARK 924 INTRA-LIGAND FREE ENERGY PREDICTED BY IDOCK:   -0.13 KCAL/MOL
REMARK 927      BINDING AFFINITY PREDICTED BY RF-SCORE:    0.00 PKD
ROOT
HETATM    1  C   UNL     1      -7.381  11.275  67.392  1.00  0.00    -0.115 C  
HETATM    2  C   UNL     1      -6.628  10.831  66.135  1.00  0.00    -0.127 C  
HETATM    3  C   UNL     1      -6.469   9.489  66.845  1.00  0.00    -0.067 C  
HETATM    4  N   UNL     1      -6.995   9.977  68.012  1.00  0.00    -0.079 N  
HETATM    5  O   UNL     1      -6.245   8.348  66.513  1.00  0.00    -0.052 OA 
HETATM    6  C   UNL     1      -8.048   9.217  68.732  1.00  0.00    -0.101 C  
HETATM    7  C   UNL     1      -8.031   9.698  70.197  1.00  0.00    -0.176 C  
HETATM    8  C   UNL     1      -9.379   9.437  67.959  1.00  0.00    -0.129 C  
HETATM    9  S   UNL     1      -9.181  11.187  67.440  1.00  0.00    -0.153 S  
HETATM   10  O   UNL     1      -9.648  12.038  68.514  1.00  0.00    -0.198 OA 
HETATM   11  O   UNL     1      -8.830   9.367  71.055  1.00  0.00    -0.250 OA 
HETATM   12  O   UNL     1      -6.972  10.501  70.495  1.00  0.00    -0.307 OA 
HETATM   13  C   UNL     1     -10.702   9.300  68.735  1.00  0.00    -0.184 C  
HETATM   14  O   UNL     1      -9.707  11.338  66.095  1.00  0.00    -0.206 OA 
ENDROOT
BRANCH   8  15
HETATM   15  C   UNL     1      -9.512   8.596  66.654  1.00  0.00    -0.207 C  
BRANCH  15  16
HETATM   16  N   UNL     1      -9.650   7.163  66.788  1.00  0.00    -0.170 NA 
HETATM   17  C   UNL     1      -8.646   6.242  66.847  1.00  0.00    -0.113 A  
HETATM   18  C   UNL     1      -9.304   5.056  67.069  1.00  0.00    -0.128 A  
HETATM   19  N   UNL     1     -10.650   5.283  67.098  1.00  0.00    -0.206 NA 
HETATM   20  N   UNL     1     -10.852   6.576  66.900  1.00  0.00    -0.363 NA 
ENDBRANCH  15  16
ENDBRANCH   8  15
TORSDOF 2
ENDMDL
MODEL      139
REMARK 921   NORMALIZED FREE ENERGY PREDICTED BY IDOCK:   -3.00 KCAL/MOL
REMARK 922        TOTAL FREE ENERGY PREDICTED BY IDOCK:   -3.45 KCAL/MOL
REMARK 923 INTER-LIGAND FREE ENERGY PREDICTED BY IDOCK:   -3.21 KCAL/MOL
REMARK 924 INTRA-LIGAND FREE ENERGY PREDICTED BY IDOCK:   -0.24 KCAL/MOL
REMARK 927      BINDING AFFINITY PREDICTED BY RF-SCORE:    0.00 PKD
ROOT
HETATM    1  C   UNL     1      -8.523   9.316  68.076  1.00  0.00    -0.120 C  
HETATM    2  C   UNL     1      -7.002   9.187  68.194  1.00  0.00    -0.076 C  
HETATM    3  C   UNL     1      -7.243   9.100  69.699  1.00  0.00    -0.061 C  
HETATM    4  N   UNL     1      -8.575   9.388  69.563  1.00  0.00    -0.146 N  
HETATM    5  O   UNL     1      -6.634   8.680  70.656  1.00  0.00    -0.036 OA 
HETATM    6  C   UNL     1      -9.593   8.560  70.258  1.00  0.00    -0.167 C  
HETATM    7  C   UNL     1     -10.872   9.415  70.367  1.00  0.00    -0.269 C  
HETATM    8  C   UNL     1      -9.728   7.234  69.457  1.00  0.00    -0.158 C  
HETATM    9  S   UNL     1      -9.526   7.856  67.742  1.00  0.00    -0.147 S  
HETATM   10  O   UNL     1     -10.819   8.294  67.259  1.00  0.00    -0.232 OA 
HETATM   11  O   UNL     1     -11.946   9.023  70.789  1.00  0.00    -0.264 OA 
HETATM   12  O   UNL     1     -10.691  10.716  70.009  1.00  0.00    -0.251 OA 
HETATM   13  C   UNL     1     -11.056   6.462  69.548  1.00  0.00    -0.460 C  
HETATM   14  O   UNL     1      -8.742   6.895  66.986  1.00  0.00    -0.116 OA 
ENDROOT
BRANCH   8  15
HETATM   15  C   UNL     1      -8.575   6.215  69.702  1.00  0.00    -0.128 C  
BRANCH  15  16
HETATM   16  N   UNL     1      -8.768   5.215  70.728  1.00  0.00    -0.126 NA 
HETATM   17  C   UNL     1      -8.715   5.399  72.078  1.00  0.00    -0.131 A  
HETATM   18  C   UNL     1      -9.059   4.171  72.590  1.00  0.00    -0.109 A  
HETATM   19  N   UNL     1      -9.266   3.295  71.563  1.00  0.00    -0.110 NA 
HETATM   20  N   UNL     1      -9.061   3.940  70.426  1.00  0.00    -0.105 NA 
ENDBRANCH  15  16
ENDBRANCH   8  15
TORSDOF 2
ENDMDL
MODEL      140
REMARK 921   NORMALIZED FREE ENERGY PREDICTED BY IDOCK:   -3.00 KCAL/MOL
REMARK 922        TOTAL FREE ENERGY PREDICTED BY IDOCK:   -3.45 KCAL/MOL
REMARK 923 INTER-LIGAND FREE ENERGY PREDICTED BY IDOCK:   -3.16 KCAL/MOL
REMARK 924 INTRA-LIGAND FREE ENERGY PREDICTED BY IDOCK:   -0.29 KCAL/MOL
REMARK 927      BINDING AFFINITY PREDICTED BY RF-SCORE:    0.00 PKD
ROOT
HETATM    1  C   UNL     1     -10.362   5.199  69.584  1.00  0.00    -0.246 C  
HETATM    2  C   UNL     1      -9.257   4.154  69.764  1.00  0.00    -0.213 C  
HETATM    3  C   UNL     1      -8.467   4.985  68.755  1.00  0.00    -0.086 C  
HETATM    4  N   UNL     1      -9.539   5.798  68.496  1.00  0.00    -0.122 N  
HETATM    5  O   UNL     1      -7.302   5.118  68.458  1.00  0.00    -0.068 OA 
HETATM    6  C   UNL     1      -9.372   7.273  68.489  1.00  0.00    -0.141 C  
HETATM    7  C   UNL     1     -10.536   7.855  67.662  1.00  0.00    -0.206 C  
HETATM    8  C   UNL     1      -9.298   7.731  69.974  1.00  0.00    -0.157 C  
HETATM    9  S   UNL     1     -10.496   6.573  70.743  1.00  0.00    -0.228 S  
HETATM   10  O   UNL     1     -11.822   7.141  70.621  1.00  0.00    -0.321 OA 
HETATM   11  O   UNL     1     -10.780   9.042  67.529  1.00  0.00    -0.267 OA 
HETATM   12  O   UNL     1     -11.264   6.910  67.005  1.00  0.00    -0.369 OA 
HETATM   13  C   UNL     1      -9.718   9.172  70.312  1.00  0.00    -0.248 C  
HETATM   14  O   UNL     1      -9.984   6.163  72.038  1.00  0.00    -0.172 OA 
ENDROOT
BRANCH   8  15
HETATM   15  C   UNL     1      -7.922   7.470  70.658  1.00  0.00    -0.100 C  
BRANCH  15  16
HETATM   16  N   UNL     1      -6.817   8.331  70.298  1.00  0.00    -0.036 NA 
HETATM   17  C   UNL     1      -6.196   9.249  71.092  1.00  0.00    -0.075 A  
HETATM   18  C   UNL     1      -5.168   9.717  70.308  1.00  0.00    -0.028 A  
HETATM   19  N   UNL     1      -5.220   9.112  69.085  1.00  0.00    -0.036 NA 
HETATM   20  N   UNL     1      -6.251   8.281  69.081  1.00  0.00    -0.038 NA 
ENDBRANCH  15  16
ENDBRANCH   8  15
TORSDOF 2
ENDMDL
MODEL      141
REMARK 921   NORMALIZED FREE ENERGY PREDICTED BY IDOCK:   -2.97 KCAL/MOL
REMARK 922        TOTAL FREE ENERGY PREDICTED BY IDOCK:   -3.42 KCAL/MOL
REMARK 923 INTER-LIGAND FREE ENERGY PREDICTED BY IDOCK:   -4.61 KCAL/MOL
REMARK 924 INTRA-LIGAND FREE ENERGY PREDICTED BY IDOCK:    1.19 KCAL/MOL
REMARK 927      BINDING AFFINITY PREDICTED BY RF-SCORE:    0.00 PKD
ROOT
HETATM    1  C   UNL     1     -10.380  16.326  69.636  1.00  0.00    -0.261 C  
HETATM    2  C   UNL     1     -11.193  15.142  70.166  1.00  0.00    -0.299 C  
HETATM    3  C   UNL     1     -11.811  15.091  68.770  1.00  0.00    -0.301 C  
HETATM    4  N   UNL     1     -11.194  16.253  68.390  1.00  0.00    -0.363 N  
HETATM    5  O   UNL     1     -12.387  14.264  68.102  1.00  0.00    -0.212 OA 
HETATM    6  C   UNL     1     -10.476  16.327  67.093  1.00  0.00    -0.297 C  
HETATM    7  C   UNL     1     -10.383  17.819  66.713  1.00  0.00    -0.343 C  
HETATM    8  C   UNL     1      -9.120  15.588  67.277  1.00  0.00    -0.203 C  
HETATM    9  S   UNL     1      -8.713  16.059  69.004  1.00  0.00    -0.246 S  
HETATM   10  O   UNL     1      -8.028  17.335  68.979  1.00  0.00    -0.224 OA 
HETATM   11  O   UNL     1      -9.768  18.266  65.760  1.00  0.00    -0.494 OA 
HETATM   12  O   UNL     1     -11.127  18.633  67.512  1.00  0.00    -0.303 OA 
HETATM   13  C   UNL     1      -7.945  15.986  66.367  1.00  0.00    -0.197 C  
HETATM   14  O   UNL     1      -8.120  14.916  69.673  1.00  0.00    -0.121 OA 
ENDROOT
BRANCH   8  15
HETATM   15  C   UNL     1      -9.228  14.033  67.252  1.00  0.00    -0.230 C  
BRANCH  15  16
HETATM   16  N   UNL     1      -8.007  13.277  67.092  1.00  0.00    -0.119 NA 
HETATM   17  C   UNL     1      -7.887  11.988  66.662  1.00  0.00     0.040 A  
HETATM   18  C   UNL     1      -6.528  11.789  66.601  1.00  0.00    -0.004 A  
HETATM   19  N   UNL     1      -5.886  12.918  67.021  1.00  0.00    -0.225 NA 
HETATM   20  N   UNL     1      -6.803  13.817  67.343  1.00  0.00    -0.206 NA 
ENDBRANCH  15  16
ENDBRANCH   8  15
TORSDOF 2
ENDMDL
MODEL      142
REMARK 921   NORMALIZED FREE ENERGY PREDICTED BY IDOCK:   -2.94 KCAL/MOL
REMARK 922        TOTAL FREE ENERGY PREDICTED BY IDOCK:   -3.39 KCAL/MOL
REMARK 923 INTER-LIGAND FREE ENERGY PREDICTED BY IDOCK:   -3.50 KCAL/MOL
REMARK 924 INTRA-LIGAND FREE ENERGY PREDICTED BY IDOCK:    0.11 KCAL/MOL
REMARK 927      BINDING AFFINITY PREDICTED BY RF-SCORE:    0.00 PKD
ROOT
HETATM    1  C   UNL     1     -11.433   6.171  71.725  1.00  0.00    -0.285 C  
HETATM    2  C   UNL     1     -12.414   7.345  71.653  1.00  0.00    -0.381 C  
HETATM    3  C   UNL     1     -11.248   8.198  72.146  1.00  0.00    -0.329 C  
HETATM    4  N   UNL     1     -10.456   7.101  72.358  1.00  0.00    -0.210 N  
HETATM    5  O   UNL     1     -10.957   9.372  72.124  1.00  0.00    -0.122 OA 
HETATM    6  C   UNL     1      -9.059   7.080  71.856  1.00  0.00    -0.139 C  
HETATM    7  C   UNL     1      -8.298   6.026  72.686  1.00  0.00    -0.118 C  
HETATM    8  C   UNL     1      -9.128   6.819  70.325  1.00  0.00    -0.153 C  
HETATM    9  S   UNL     1     -10.543   5.653  70.245  1.00  0.00    -0.290 S  
HETATM   10  O   UNL     1     -10.043   4.312  70.464  1.00  0.00    -0.191 OA 
HETATM   11  O   UNL     1      -7.152   5.665  72.482  1.00  0.00    -0.081 OA 
HETATM   12  O   UNL     1      -9.003   5.557  73.752  1.00  0.00    -0.124 OA 
HETATM   13  C   UNL     1      -7.912   6.166  69.643  1.00  0.00    -0.107 C  
HETATM   14  O   UNL     1     -11.338   5.962  69.070  1.00  0.00    -0.258 OA 
ENDROOT
BRANCH   8  15
HETATM   15  C   UNL     1      -9.527   8.065  69.478  1.00  0.00    -0.160 C  
BRANCH  15  16
HETATM   16  N   UNL     1      -8.639   9.206  69.499  1.00  0.00    -0.131 NA 
HETATM   17  C   UNL     1      -7.309   9.208  69.797  1.00  0.00    -0.064 A  
HETATM   18  C   UNL     1      -6.927  10.510  69.580  1.00  0.00    -0.114 A  
HETATM   19  N   UNL     1      -8.015  11.244  69.204  1.00  0.00    -0.058 NA 
HETATM   20  N   UNL     1      -9.065  10.439  69.182  1.00  0.00    -0.186 NA 
ENDBRANCH  15  16
ENDBRANCH   8  15
TORSDOF 2
ENDMDL
MODEL      143
REMARK 921   NORMALIZED FREE ENERGY PREDICTED BY IDOCK:   -2.93 KCAL/MOL
REMARK 922        TOTAL FREE ENERGY PREDICTED BY IDOCK:   -3.37 KCAL/MOL
REMARK 923 INTER-LIGAND FREE ENERGY PREDICTED BY IDOCK:   -3.33 KCAL/MOL
REMARK 924 INTRA-LIGAND FREE ENERGY PREDICTED BY IDOCK:   -0.04 KCAL/MOL
REMARK 927      BINDING AFFINITY PREDICTED BY RF-SCORE:    0.00 PKD
ROOT
HETATM    1  C   UNL     1      -8.840   5.171  70.833  1.00  0.00    -0.134 C  
HETATM    2  C   UNL     1     -10.036   4.412  70.251  1.00  0.00    -0.248 C  
HETATM    3  C   UNL     1     -10.783   5.739  70.363  1.00  0.00    -0.302 C  
HETATM    4  N   UNL     1      -9.749   6.334  71.036  1.00  0.00    -0.175 N  
HETATM    5  O   UNL     1     -11.763   6.233  69.854  1.00  0.00    -0.408 OA 
HETATM    6  C   UNL     1      -9.260   7.673  70.620  1.00  0.00    -0.162 C  
HETATM    7  C   UNL     1      -8.529   8.282  71.833  1.00  0.00    -0.160 C  
HETATM    8  C   UNL     1      -8.400   7.468  69.341  1.00  0.00    -0.132 C  
HETATM    9  S   UNL     1      -7.594   5.866  69.731  1.00  0.00    -0.082 S  
HETATM   10  O   UNL     1      -6.400   6.132  70.506  1.00  0.00    -0.034 OA 
HETATM   11  O   UNL     1      -7.909   9.332  71.826  1.00  0.00    -0.310 OA 
HETATM   12  O   UNL     1      -8.690   7.569  72.982  1.00  0.00    -0.128 OA 
HETATM   13  C   UNL     1      -7.308   8.506  69.025  1.00  0.00    -0.081 C  
HETATM   14  O   UNL     1      -7.525   5.070  68.518  1.00  0.00    -0.072 OA 
ENDROOT
BRANCH   8  15
HETATM   15  C   UNL     1      -9.228   7.247  68.039  1.00  0.00    -0.131 C  
BRANCH  15  16
HETATM   16  N   UNL     1      -9.057   8.198  66.963  1.00  0.00    -0.138 NA 
HETATM   17  C   UNL     1      -8.408   7.995  65.781  1.00  0.00    -0.138 A  
HETATM   18  C   UNL     1      -8.616   9.164  65.089  1.00  0.00    -0.176 A  
HETATM   19  N   UNL     1      -9.333  10.029  65.866  1.00  0.00    -0.172 NA 
HETATM   20  N   UNL     1      -9.576   9.434  67.024  1.00  0.00    -0.151 NA 
ENDBRANCH  15  16
ENDBRANCH   8  15
TORSDOF 2
ENDMDL
MODEL      144
REMARK 921   NORMALIZED FREE ENERGY PREDICTED BY IDOCK:   -2.90 KCAL/MOL
REMARK 922        TOTAL FREE ENERGY PREDICTED BY IDOCK:   -3.35 KCAL/MOL
REMARK 923 INTER-LIGAND FREE ENERGY PREDICTED BY IDOCK:   -3.28 KCAL/MOL
REMARK 924 INTRA-LIGAND FREE ENERGY PREDICTED BY IDOCK:   -0.07 KCAL/MOL
REMARK 927      BINDING AFFINITY PREDICTED BY RF-SCORE:    0.00 PKD
ROOT
HETATM    1  C   UNL     1     -11.067   6.714  67.874  1.00  0.00    -0.217 C  
HETATM    2  C   UNL     1     -10.263   6.005  66.780  1.00  0.00    -0.268 C  
HETATM    3  C   UNL     1      -9.291   7.176  66.898  1.00  0.00    -0.155 C  
HETATM    4  N   UNL     1     -10.121   7.858  67.747  1.00  0.00    -0.180 N  
HETATM    5  O   UNL     1      -8.131   7.377  66.620  1.00  0.00    -0.117 OA 
HETATM    6  C   UNL     1      -9.586   8.453  68.998  1.00  0.00    -0.160 C  
HETATM    7  C   UNL     1     -10.567   9.563  69.426  1.00  0.00    -0.219 C  
HETATM    8  C   UNL     1      -9.394   7.289  70.011  1.00  0.00    -0.154 C  
HETATM    9  S   UNL     1     -10.844   6.242  69.600  1.00  0.00    -0.376 S  
HETATM   10  O   UNL     1     -11.984   6.725  70.352  1.00  0.00    -0.373 OA 
HETATM   11  O   UNL     1     -10.502  10.197  70.465  1.00  0.00    -0.261 OA 
HETATM   12  O   UNL     1     -11.512   9.847  68.488  1.00  0.00    -0.065 OA 
HETATM   13  C   UNL     1      -9.433   7.618  71.514  1.00  0.00    -0.166 C  
HETATM   14  O   UNL     1     -10.450   4.847  69.672  1.00  0.00    -0.206 OA 
ENDROOT
BRANCH   8  15
HETATM   15  C   UNL     1      -8.127   6.417  69.755  1.00  0.00    -0.121 C  
BRANCH  15  16
HETATM   16  N   UNL     1      -7.083   6.437  70.755  1.00  0.00    -0.068 NA 
HETATM   17  C   UNL     1      -6.145   7.408  70.946  1.00  0.00    -0.035 A  
HETATM   18  C   UNL     1      -5.467   6.992  72.067  1.00  0.00    -0.037 A  
HETATM   19  N   UNL     1      -5.976   5.797  72.486  1.00  0.00    -0.035 NA 
HETATM   20  N   UNL     1      -6.952   5.454  71.659  1.00  0.00    -0.064 NA 
ENDBRANCH  15  16
ENDBRANCH   8  15
TORSDOF 2
ENDMDL
MODEL      145
REMARK 921   NORMALIZED FREE ENERGY PREDICTED BY IDOCK:   -2.90 KCAL/MOL
REMARK 922        TOTAL FREE ENERGY PREDICTED BY IDOCK:   -3.34 KCAL/MOL
REMARK 923 INTER-LIGAND FREE ENERGY PREDICTED BY IDOCK:   -3.29 KCAL/MOL
REMARK 924 INTRA-LIGAND FREE ENERGY PREDICTED BY IDOCK:   -0.05 KCAL/MOL
REMARK 927      BINDING AFFINITY PREDICTED BY RF-SCORE:    0.00 PKD
ROOT
HETATM    1  C   UNL     1      -9.556   5.562  69.145  1.00  0.00    -0.143 C  
HETATM    2  C   UNL     1      -9.543   5.376  67.625  1.00  0.00    -0.142 C  
HETATM    3  C   UNL     1     -10.456   6.599  67.584  1.00  0.00    -0.227 C  
HETATM    4  N   UNL     1     -10.579   6.628  68.948  1.00  0.00    -0.211 N  
HETATM    5  O   UNL     1     -10.764   7.430  66.760  1.00  0.00    -0.319 OA 
HETATM    6  C   UNL     1     -10.398   7.902  69.688  1.00  0.00    -0.216 C  
HETATM    7  C   UNL     1     -11.111   7.741  71.046  1.00  0.00    -0.257 C  
HETATM    8  C   UNL     1      -8.869   8.181  69.752  1.00  0.00    -0.143 C  
HETATM    9  S   UNL     1      -8.225   6.474  69.950  1.00  0.00    -0.128 S  
HETATM   10  O   UNL     1      -8.236   6.142  71.359  1.00  0.00    -0.120 OA 
HETATM   11  O   UNL     1     -11.082   8.551  71.956  1.00  0.00    -0.295 OA 
HETATM   12  O   UNL     1     -11.866   6.611  71.135  1.00  0.00    -0.332 OA 
HETATM   13  C   UNL     1      -8.335   9.047  70.907  1.00  0.00    -0.238 C  
HETATM   14  O   UNL     1      -7.008   6.340  69.169  1.00  0.00    -0.063 OA 
ENDROOT
BRANCH   8  15
HETATM   15  C   UNL     1      -8.262   8.737  68.428  1.00  0.00    -0.118 C  
BRANCH  15  16
HETATM   16  N   UNL     1      -7.341   9.847  68.526  1.00  0.00    -0.077 NA 
HETATM   17  C   UNL     1      -5.980   9.784  68.590  1.00  0.00    -0.042 A  
HETATM   18  C   UNL     1      -5.590  11.102  68.574  1.00  0.00    -0.042 A  
HETATM   19  N   UNL     1      -6.697  11.901  68.539  1.00  0.00    -0.063 NA 
HETATM   20  N   UNL     1      -7.766  11.120  68.534  1.00  0.00    -0.121 NA 
ENDBRANCH  15  16
ENDBRANCH   8  15
TORSDOF 2
ENDMDL
MODEL      146
REMARK 921   NORMALIZED FREE ENERGY PREDICTED BY IDOCK:   -2.89 KCAL/MOL
REMARK 922        TOTAL FREE ENERGY PREDICTED BY IDOCK:   -3.33 KCAL/MOL
REMARK 923 INTER-LIGAND FREE ENERGY PREDICTED BY IDOCK:   -3.03 KCAL/MOL
REMARK 924 INTRA-LIGAND FREE ENERGY PREDICTED BY IDOCK:   -0.30 KCAL/MOL
REMARK 927      BINDING AFFINITY PREDICTED BY RF-SCORE:    0.00 PKD
ROOT
HETATM    1  C   UNL     1     -10.498   8.388  69.251  1.00  0.00    -0.215 C  
HETATM    2  C   UNL     1      -9.851   8.708  67.900  1.00  0.00    -0.211 C  
HETATM    3  C   UNL     1      -8.524   8.425  68.601  1.00  0.00    -0.128 C  
HETATM    4  N   UNL     1      -9.125   8.314  69.826  1.00  0.00    -0.146 N  
HETATM    5  O   UNL     1      -7.403   8.126  68.257  1.00  0.00    -0.091 OA 
HETATM    6  C   UNL     1      -8.809   7.165  70.711  1.00  0.00    -0.148 C  
HETATM    7  C   UNL     1      -9.178   7.587  72.148  1.00  0.00    -0.136 C  
HETATM    8  C   UNL     1      -9.572   5.932  70.149  1.00  0.00    -0.162 C  
HETATM    9  S   UNL     1     -11.123   6.729  69.577  1.00  0.00    -0.258 S  
HETATM   10  O   UNL     1     -12.040   6.801  70.695  1.00  0.00    -0.392 OA 
HETATM   11  O   UNL     1      -9.149   6.859  73.125  1.00  0.00    -0.129 OA 
HETATM   12  O   UNL     1      -9.484   8.909  72.266  1.00  0.00    -0.327 OA 
HETATM   13  C   UNL     1      -9.932   4.794  71.121  1.00  0.00    -0.273 C  
HETATM   14  O   UNL     1     -11.531   6.113  68.326  1.00  0.00    -0.117 OA 
ENDROOT
BRANCH   8  15
HETATM   15  C   UNL     1      -8.912   5.285  68.894  1.00  0.00    -0.103 C  
BRANCH  15  16
HETATM   16  N   UNL     1      -7.854   4.324  69.111  1.00  0.00    -0.058 NA 
HETATM   17  C   UNL     1      -7.911   2.977  68.903  1.00  0.00    -0.049 A  
HETATM   18  C   UNL     1      -6.630   2.552  69.166  1.00  0.00    -0.033 A  
HETATM   19  N   UNL     1      -5.869   3.618  69.550  1.00  0.00    -0.021 NA 
HETATM   20  N   UNL     1      -6.637   4.696  69.537  1.00  0.00    -0.035 NA 
ENDBRANCH  15  16
ENDBRANCH   8  15
TORSDOF 2
ENDMDL
MODEL      147
REMARK 921   NORMALIZED FREE ENERGY PREDICTED BY IDOCK:   -2.83 KCAL/MOL
REMARK 922        TOTAL FREE ENERGY PREDICTED BY IDOCK:   -3.26 KCAL/MOL
REMARK 923 INTER-LIGAND FREE ENERGY PREDICTED BY IDOCK:   -2.96 KCAL/MOL
REMARK 924 INTRA-LIGAND FREE ENERGY PREDICTED BY IDOCK:   -0.30 KCAL/MOL
REMARK 927      BINDING AFFINITY PREDICTED BY RF-SCORE:    0.00 PKD
ROOT
HETATM    1  C   UNL     1      -7.127   7.085  66.617  1.00  0.00    -0.078 C  
HETATM    2  C   UNL     1      -6.560   7.338  65.217  1.00  0.00    -0.047 C  
HETATM    3  C   UNL     1      -7.995   7.682  64.826  1.00  0.00    -0.137 C  
HETATM    4  N   UNL     1      -8.486   7.283  66.041  1.00  0.00    -0.139 N  
HETATM    5  O   UNL     1      -8.531   8.310  63.942  1.00  0.00    -0.080 OA 
HETATM    6  C   UNL     1      -9.431   8.151  66.786  1.00  0.00    -0.198 C  
HETATM    7  C   UNL     1     -10.195   7.245  67.773  1.00  0.00    -0.195 C  
HETATM    8  C   UNL     1      -8.594   9.296  67.424  1.00  0.00    -0.122 C  
HETATM    9  S   UNL     1      -7.061   8.388  67.862  1.00  0.00    -0.084 S  
HETATM   10  O   UNL     1      -7.245   7.781  69.163  1.00  0.00    -0.078 OA 
HETATM   11  O   UNL     1     -10.980   7.632  68.621  1.00  0.00    -0.040 OA 
HETATM   12  O   UNL     1      -9.974   5.916  67.576  1.00  0.00    -0.124 OA 
HETATM   13  C   UNL     1      -9.142   9.979  68.690  1.00  0.00    -0.139 C  
HETATM   14  O   UNL     1      -5.919   9.246  67.602  1.00  0.00    -0.051 OA 
ENDROOT
BRANCH   8  15
HETATM   15  C   UNL     1      -8.179  10.420  66.427  1.00  0.00    -0.141 C  
BRANCH  15  16
HETATM   16  N   UNL     1      -9.190  11.374  66.029  1.00  0.00    -0.212 NA 
HETATM   17  C   UNL     1     -10.206  11.174  65.142  1.00  0.00    -0.289 A  
HETATM   18  C   UNL     1     -10.923  12.346  65.197  1.00  0.00    -0.302 A  
HETATM   19  N   UNL     1     -10.314  13.209  66.063  1.00  0.00    -0.282 NA 
HETATM   20  N   UNL     1      -9.237  12.611  66.549  1.00  0.00    -0.226 NA 
ENDBRANCH  15  16
ENDBRANCH   8  15
TORSDOF 2
ENDMDL
MODEL      148
REMARK 921   NORMALIZED FREE ENERGY PREDICTED BY IDOCK:   -2.81 KCAL/MOL
REMARK 922        TOTAL FREE ENERGY PREDICTED BY IDOCK:   -3.24 KCAL/MOL
REMARK 923 INTER-LIGAND FREE ENERGY PREDICTED BY IDOCK:   -3.44 KCAL/MOL
REMARK 924 INTRA-LIGAND FREE ENERGY PREDICTED BY IDOCK:    0.21 KCAL/MOL
REMARK 927      BINDING AFFINITY PREDICTED BY RF-SCORE:    0.00 PKD
ROOT
HETATM    1  C   UNL     1      -9.731   8.845  70.575  1.00  0.00    -0.203 C  
HETATM    2  C   UNL     1     -11.180   9.321  70.437  1.00  0.00    -0.290 C  
HETATM    3  C   UNL     1     -10.607  10.439  69.568  1.00  0.00    -0.246 C  
HETATM    4  N   UNL     1      -9.316  10.082  69.856  1.00  0.00    -0.207 N  
HETATM    5  O   UNL     1     -11.033  11.191  68.723  1.00  0.00    -0.187 OA 
HETATM    6  C   UNL     1      -8.319   9.943  68.765  1.00  0.00    -0.116 C  
HETATM    7  C   UNL     1      -6.924  10.083  69.408  1.00  0.00    -0.069 C  
HETATM    8  C   UNL     1      -8.606   8.591  68.053  1.00  0.00    -0.134 C  
HETATM    9  S   UNL     1      -9.101   7.555  69.485  1.00  0.00    -0.142 S  
HETATM   10  O   UNL     1      -7.905   7.001  70.083  1.00  0.00    -0.105 OA 
HETATM   11  O   UNL     1      -5.864   9.920  68.830  1.00  0.00    -0.036 OA 
HETATM   12  O   UNL     1      -6.961  10.488  70.708  1.00  0.00    -0.263 OA 
HETATM   13  C   UNL     1      -7.446   7.895  67.318  1.00  0.00    -0.093 C  
HETATM   14  O   UNL     1     -10.194   6.689  69.080  1.00  0.00    -0.162 OA 
ENDROOT
BRANCH   8  15
HETATM   15  C   UNL     1      -9.825   8.623  67.081  1.00  0.00    -0.207 C  
BRANCH  15  16
HETATM   16  N   UNL     1      -9.786   9.564  65.984  1.00  0.00    -0.272 NA 
HETATM   17  C   UNL     1      -9.990  10.911  66.048  1.00  0.00    -0.240 A  
HETATM   18  C   UNL     1      -9.750  11.338  64.764  1.00  0.00    -0.256 A  
HETATM   19  N   UNL     1      -9.454  10.263  63.976  1.00  0.00    -0.284 NA 
HETATM   20  N   UNL     1      -9.503   9.176  64.731  1.00  0.00     0.068 NA 
ENDBRANCH  15  16
ENDBRANCH   8  15
TORSDOF 2
ENDMDL
MODEL      149
REMARK 921   NORMALIZED FREE ENERGY PREDICTED BY IDOCK:   -2.70 KCAL/MOL
REMARK 922        TOTAL FREE ENERGY PREDICTED BY IDOCK:   -3.12 KCAL/MOL
REMARK 923 INTER-LIGAND FREE ENERGY PREDICTED BY IDOCK:   -3.14 KCAL/MOL
REMARK 924 INTRA-LIGAND FREE ENERGY PREDICTED BY IDOCK:    0.01 KCAL/MOL
REMARK 927      BINDING AFFINITY PREDICTED BY RF-SCORE:    0.00 PKD
ROOT
HETATM    1  C   UNL     1      -6.699   9.948  68.439  1.00  0.00    -0.055 C  
HETATM    2  C   UNL     1      -7.486  11.241  68.209  1.00  0.00    -0.099 C  
HETATM    3  C   UNL     1      -8.341  10.412  67.252  1.00  0.00    -0.122 C  
HETATM    4  N   UNL     1      -7.511   9.327  67.356  1.00  0.00    -0.087 N  
HETATM    5  O   UNL     1      -9.450  10.498  66.778  1.00  0.00    -0.158 OA 
HETATM    6  C   UNL     1      -8.076   7.977  67.604  1.00  0.00    -0.124 C  
HETATM    7  C   UNL     1      -7.023   6.954  67.133  1.00  0.00    -0.074 C  
HETATM    8  C   UNL     1      -8.461   7.912  69.109  1.00  0.00    -0.137 C  
HETATM    9  S   UNL     1      -7.097   8.894  69.847  1.00  0.00    -0.058 S  
HETATM   10  O   UNL     1      -5.974   8.010  70.083  1.00  0.00    -0.026 OA 
HETATM   11  O   UNL     1      -7.101   5.746  67.279  1.00  0.00    -0.071 OA 
HETATM   12  O   UNL     1      -5.986   7.513  66.451  1.00  0.00    -0.035 OA 
HETATM   13  C   UNL     1      -8.501   6.533  69.792  1.00  0.00    -0.131 C  
HETATM   14  O   UNL     1      -7.635   9.708  70.922  1.00  0.00    -0.309 OA 
ENDROOT
BRANCH   8  15
HETATM   15  C   UNL     1      -9.786   8.650  69.466  1.00  0.00    -0.187 C  
BRANCH  15  16
HETATM   16  N   UNL     1     -10.617   8.080  70.503  1.00  0.00    -0.216 NA 
HETATM   17  C   UNL     1     -10.640   8.424  71.822  1.00  0.00    -0.282 A  
HETATM   18  C   UNL     1     -11.656   7.658  72.342  1.00  0.00    -0.336 A  
HETATM   19  N   UNL     1     -12.176   6.868  71.358  1.00  0.00    -0.355 NA 
HETATM   20  N   UNL     1     -11.515   7.117  70.238  1.00  0.00    -0.273 NA 
ENDBRANCH  15  16
ENDBRANCH   8  15
TORSDOF 2
ENDMDL
MODEL      150
REMARK 921   NORMALIZED FREE ENERGY PREDICTED BY IDOCK:   -2.62 KCAL/MOL
REMARK 922        TOTAL FREE ENERGY PREDICTED BY IDOCK:   -3.03 KCAL/MOL
REMARK 923 INTER-LIGAND FREE ENERGY PREDICTED BY IDOCK:   -2.96 KCAL/MOL
REMARK 924 INTRA-LIGAND FREE ENERGY PREDICTED BY IDOCK:   -0.08 KCAL/MOL
REMARK 927      BINDING AFFINITY PREDICTED BY RF-SCORE:    0.00 PKD
ROOT
HETATM    1  C   UNL     1      -8.406   7.350  70.613  1.00  0.00    -0.127 C  
HETATM    2  C   UNL     1      -8.600   6.094  71.468  1.00  0.00    -0.131 C  
HETATM    3  C   UNL     1      -9.959   5.979  70.782  1.00  0.00    -0.191 C  
HETATM    4  N   UNL     1      -9.819   7.194  70.166  1.00  0.00    -0.179 N  
HETATM    5  O   UNL     1     -10.764   5.097  70.585  1.00  0.00    -0.195 OA 
HETATM    6  C   UNL     1     -10.103   7.332  68.715  1.00  0.00    -0.176 C  
HETATM    7  C   UNL     1     -10.390   8.825  68.452  1.00  0.00    -0.204 C  
HETATM    8  C   UNL     1      -8.890   6.729  67.953  1.00  0.00    -0.118 C  
HETATM    9  S   UNL     1      -7.512   7.244  69.051  1.00  0.00    -0.099 S  
HETATM   10  O   UNL     1      -7.102   8.580  68.672  1.00  0.00    -0.069 OA 
HETATM   11  O   UNL     1     -10.561   9.325  67.354  1.00  0.00    -0.272 OA 
HETATM   12  O   UNL     1     -10.512   9.565  69.588  1.00  0.00    -0.201 OA 
HETATM   13  C   UNL     1      -8.601   7.235  66.528  1.00  0.00    -0.134 C  
HETATM   14  O   UNL     1      -6.543   6.166  69.122  1.00  0.00    -0.044 OA 
ENDROOT
BRANCH   8  15
HETATM   15  C   UNL     1      -8.868   5.171  67.910  1.00  0.00    -0.102 C  
BRANCH  15  16
HETATM   16  N   UNL     1      -8.993   4.532  66.619  1.00  0.00    -0.112 NA 
HETATM   17  C   UNL     1      -7.986   4.023  65.852  1.00  0.00    -0.094 A  
HETATM   18  C   UNL     1      -8.643   3.453  64.788  1.00  0.00    -0.101 A  
HETATM   19  N   UNL     1      -9.986   3.661  64.920  1.00  0.00    -0.164 NA 
HETATM   20  N   UNL     1     -10.187   4.345  66.035  1.00  0.00    -0.243 NA 
ENDBRANCH  15  16
ENDBRANCH   8  15
TORSDOF 2
ENDMDL
MODEL      151
REMARK 921   NORMALIZED FREE ENERGY PREDICTED BY IDOCK:   -2.60 KCAL/MOL
REMARK 922        TOTAL FREE ENERGY PREDICTED BY IDOCK:   -3.00 KCAL/MOL
REMARK 923 INTER-LIGAND FREE ENERGY PREDICTED BY IDOCK:   -3.12 KCAL/MOL
REMARK 924 INTRA-LIGAND FREE ENERGY PREDICTED BY IDOCK:    0.12 KCAL/MOL
REMARK 927      BINDING AFFINITY PREDICTED BY RF-SCORE:    0.00 PKD
ROOT
HETATM    1  C   UNL     1     -10.463  11.594  69.158  1.00  0.00    -0.064 C  
HETATM    2  C   UNL     1     -11.994  11.608  69.145  1.00  0.00    -0.378 C  
HETATM    3  C   UNL     1     -11.859  12.777  68.171  1.00  0.00    -0.324 C  
HETATM    4  N   UNL     1     -10.501  12.840  68.343  1.00  0.00    -0.239 N  
HETATM    5  O   UNL     1     -12.561  13.304  67.338  1.00  0.00    -0.015 OA 
HETATM    6  C   UNL     1      -9.603  12.921  67.164  1.00  0.00    -0.225 C  
HETATM    7  C   UNL     1      -8.267  13.515  67.654  1.00  0.00    -0.178 C  
HETATM    8  C   UNL     1      -9.527  11.494  66.549  1.00  0.00    -0.204 C  
HETATM    9  S   UNL     1      -9.566  10.470  68.071  1.00  0.00    -0.150 S  
HETATM   10  O   UNL     1      -8.213  10.340  68.570  1.00  0.00    -0.103 OA 
HETATM   11  O   UNL     1      -7.258  13.630  66.980  1.00  0.00     0.038 OA 
HETATM   12  O   UNL     1      -8.316  13.987  68.930  1.00  0.00    -0.092 OA 
HETATM   13  C   UNL     1      -8.276  11.119  65.734  1.00  0.00    -0.004 C  
HETATM   14  O   UNL     1     -10.377   9.291  67.821  1.00  0.00    -0.209 OA 
ENDROOT
BRANCH   8  15
HETATM   15  C   UNL     1     -10.774  11.091  65.706  1.00  0.00    -0.148 C  
BRANCH  15  16
HETATM   16  N   UNL     1     -11.244  12.027  64.709  1.00  0.00    -0.316 NA 
HETATM   17  C   UNL     1     -12.511  12.139  64.217  1.00  0.00    -0.363 A  
HETATM   18  C   UNL     1     -12.441  13.227  63.380  1.00  0.00    -0.199 A  
HETATM   19  N   UNL     1     -11.162  13.704  63.362  1.00  0.00     0.469 NA 
HETATM   20  N   UNL     1     -10.430  12.944  64.162  1.00  0.00    -0.420 NA 
ENDBRANCH  15  16
ENDBRANCH   8  15
TORSDOF 2
ENDMDL
MODEL      152
REMARK 921   NORMALIZED FREE ENERGY PREDICTED BY IDOCK:   -2.57 KCAL/MOL
REMARK 922        TOTAL FREE ENERGY PREDICTED BY IDOCK:   -2.98 KCAL/MOL
REMARK 923 INTER-LIGAND FREE ENERGY PREDICTED BY IDOCK:   -2.70 KCAL/MOL
REMARK 924 INTRA-LIGAND FREE ENERGY PREDICTED BY IDOCK:   -0.28 KCAL/MOL
REMARK 927      BINDING AFFINITY PREDICTED BY RF-SCORE:    0.00 PKD
ROOT
HETATM    1  C   UNL     1     -10.267   7.471  69.310  1.00  0.00    -0.201 C  
HETATM    2  C   UNL     1     -10.352   8.004  70.743  1.00  0.00    -0.214 C  
HETATM    3  C   UNL     1      -8.827   8.040  70.696  1.00  0.00    -0.143 C  
HETATM    4  N   UNL     1      -8.789   7.404  69.484  1.00  0.00    -0.137 N  
HETATM    5  O   UNL     1      -7.950   8.618  71.297  1.00  0.00    -0.112 OA 
HETATM    6  C   UNL     1      -7.941   7.936  68.388  1.00  0.00    -0.122 C  
HETATM    7  C   UNL     1      -7.683   6.771  67.411  1.00  0.00    -0.110 C  
HETATM    8  C   UNL     1      -8.681   9.168  67.795  1.00  0.00    -0.121 C  
HETATM    9  S   UNL     1     -10.423   8.605  67.918  1.00  0.00    -0.175 S  
HETATM   10  O   UNL     1     -10.738   7.831  66.736  1.00  0.00    -0.311 OA 
HETATM   11  O   UNL     1      -7.109   6.865  66.340  1.00  0.00    -0.070 OA 
HETATM   12  O   UNL     1      -8.097   5.562  67.882  1.00  0.00    -0.100 OA 
HETATM   13  C   UNL     1      -8.391   9.557  66.334  1.00  0.00    -0.120 C  
HETATM   14  O   UNL     1     -11.253   9.733  68.306  1.00  0.00    -0.155 OA 
ENDROOT
BRANCH   8  15
HETATM   15  C   UNL     1      -8.567  10.462  68.656  1.00  0.00    -0.133 C  
BRANCH  15  16
HETATM   16  N   UNL     1      -7.446  11.340  68.406  1.00  0.00    -0.101 NA 
HETATM   17  C   UNL     1      -6.132  11.094  68.676  1.00  0.00    -0.043 A  
HETATM   18  C   UNL     1      -5.482  12.193  68.165  1.00  0.00    -0.054 A  
HETATM   19  N   UNL     1      -6.400  13.063  67.651  1.00  0.00    -0.152 NA 
HETATM   20  N   UNL     1      -7.604  12.540  67.826  1.00  0.00    -0.125 NA 
ENDBRANCH  15  16
ENDBRANCH   8  15
TORSDOF 2
ENDMDL
MODEL      153
REMARK 921   NORMALIZED FREE ENERGY PREDICTED BY IDOCK:   -2.57 KCAL/MOL
REMARK 922        TOTAL FREE ENERGY PREDICTED BY IDOCK:   -2.97 KCAL/MOL
REMARK 923 INTER-LIGAND FREE ENERGY PREDICTED BY IDOCK:   -2.68 KCAL/MOL
REMARK 924 INTRA-LIGAND FREE ENERGY PREDICTED BY IDOCK:   -0.30 KCAL/MOL
REMARK 927      BINDING AFFINITY PREDICTED BY RF-SCORE:    0.00 PKD
ROOT
HETATM    1  C   UNL     1      -8.715   6.060  70.771  1.00  0.00    -0.135 C  
HETATM    2  C   UNL     1      -8.084   4.854  71.473  1.00  0.00    -0.111 C  
HETATM    3  C   UNL     1      -8.897   4.008  70.496  1.00  0.00    -0.083 C  
HETATM    4  N   UNL     1      -9.565   5.101  70.011  1.00  0.00    -0.165 N  
HETATM    5  O   UNL     1      -8.841   2.879  70.064  1.00  0.00    -0.069 OA 
HETATM    6  C   UNL     1      -9.697   5.307  68.547  1.00  0.00    -0.143 C  
HETATM    7  C   UNL     1     -10.902   6.245  68.330  1.00  0.00    -0.319 C  
HETATM    8  C   UNL     1      -8.326   5.832  68.034  1.00  0.00    -0.103 C  
HETATM    9  S   UNL     1      -7.824   6.894  69.443  1.00  0.00    -0.115 S  
HETATM   10  O   UNL     1      -8.409   8.205  69.259  1.00  0.00    -0.126 OA 
HETATM   11  O   UNL     1     -11.244   6.714  67.258  1.00  0.00    -0.366 OA 
HETATM   12  O   UNL     1     -11.631   6.467  69.458  1.00  0.00    -0.404 OA 
HETATM   13  C   UNL     1      -8.306   6.677  66.747  1.00  0.00    -0.115 C  
HETATM   14  O   UNL     1      -6.395   6.746  69.654  1.00  0.00    -0.039 OA 
ENDROOT
BRANCH   8  15
HETATM   15  C   UNL     1      -7.231   4.732  67.889  1.00  0.00    -0.066 C  
BRANCH  15  16
HETATM   16  N   UNL     1      -7.297   3.863  66.736  1.00  0.00    -0.071 NA 
HETATM   17  C   UNL     1      -8.320   3.030  66.391  1.00  0.00    -0.098 A  
HETATM   18  C   UNL     1      -7.926   2.513  65.180  1.00  0.00    -0.078 A  
HETATM   19  N   UNL     1      -6.695   3.007  64.855  1.00  0.00    -0.039 NA 
HETATM   20  N   UNL     1      -6.308   3.816  65.829  1.00  0.00    -0.032 NA 
ENDBRANCH  15  16
ENDBRANCH   8  15
TORSDOF 2
ENDMDL
MODEL      154
REMARK 921   NORMALIZED FREE ENERGY PREDICTED BY IDOCK:   -2.55 KCAL/MOL
REMARK 922        TOTAL FREE ENERGY PREDICTED BY IDOCK:   -2.96 KCAL/MOL
REMARK 923 INTER-LIGAND FREE ENERGY PREDICTED BY IDOCK:   -2.72 KCAL/MOL
REMARK 924 INTRA-LIGAND FREE ENERGY PREDICTED BY IDOCK:   -0.23 KCAL/MOL
REMARK 927      BINDING AFFINITY PREDICTED BY RF-SCORE:    0.00 PKD
ROOT
HETATM    1  C   UNL     1      -9.959   5.525  72.042  1.00  0.00    -0.181 C  
HETATM    2  C   UNL     1     -11.453   5.749  71.795  1.00  0.00    -0.199 C  
HETATM    3  C   UNL     1     -11.031   7.076  71.169  1.00  0.00    -0.247 C  
HETATM    4  N   UNL     1      -9.728   6.915  71.559  1.00  0.00    -0.163 N  
HETATM    5  O   UNL     1     -11.516   7.865  70.391  1.00  0.00    -0.246 OA 
HETATM    6  C   UNL     1      -8.626   7.134  70.590  1.00  0.00    -0.143 C  
HETATM    7  C   UNL     1      -7.352   7.417  71.412  1.00  0.00    -0.079 C  
HETATM    8  C   UNL     1      -8.574   5.885  69.666  1.00  0.00    -0.121 C  
HETATM    9  S   UNL     1      -8.989   4.561  70.867  1.00  0.00    -0.125 S  
HETATM   10  O   UNL     1      -7.768   4.141  71.524  1.00  0.00    -0.062 OA 
HETATM   11  O   UNL     1      -6.230   7.542  70.951  1.00  0.00    -0.035 OA 
HETATM   12  O   UNL     1      -7.588   7.595  72.741  1.00  0.00    -0.086 OA 
HETATM   13  C   UNL     1      -7.237   5.535  68.989  1.00  0.00    -0.069 C  
HETATM   14  O   UNL     1      -9.848   3.589  70.215  1.00  0.00    -0.152 OA 
ENDROOT
BRANCH   8  15
HETATM   15  C   UNL     1      -9.679   5.853  68.566  1.00  0.00    -0.126 C  
BRANCH  15  16
HETATM   16  N   UNL     1      -9.564   6.787  67.470  1.00  0.00    -0.126 NA 
HETATM   17  C   UNL     1      -9.916   8.105  67.471  1.00  0.00    -0.192 A  
HETATM   18  C   UNL     1      -9.519   8.550  66.233  1.00  0.00    -0.231 A  
HETATM   19  N   UNL     1      -8.988   7.510  65.526  1.00  0.00     0.014 NA 
HETATM   20  N   UNL     1      -9.043   6.427  66.286  1.00  0.00    -0.155 NA 
ENDBRANCH  15  16
ENDBRANCH   8  15
TORSDOF 2
ENDMDL
MODEL      155
REMARK 921   NORMALIZED FREE ENERGY PREDICTED BY IDOCK:   -2.53 KCAL/MOL
REMARK 922        TOTAL FREE ENERGY PREDICTED BY IDOCK:   -2.92 KCAL/MOL
REMARK 923 INTER-LIGAND FREE ENERGY PREDICTED BY IDOCK:   -2.89 KCAL/MOL
REMARK 924 INTRA-LIGAND FREE ENERGY PREDICTED BY IDOCK:   -0.04 KCAL/MOL
REMARK 927      BINDING AFFINITY PREDICTED BY RF-SCORE:    0.00 PKD
ROOT
HETATM    1  C   UNL     1      -6.435   7.628  67.711  1.00  0.00    -0.055 C  
HETATM    2  C   UNL     1      -5.452   8.529  68.463  1.00  0.00    -0.037 C  
HETATM    3  C   UNL     1      -6.579   9.559  68.467  1.00  0.00    -0.053 C  
HETATM    4  N   UNL     1      -7.365   8.790  67.649  1.00  0.00    -0.084 N  
HETATM    5  O   UNL     1      -6.863  10.538  69.117  1.00  0.00    -0.060 OA 
HETATM    6  C   UNL     1      -8.790   8.552  67.990  1.00  0.00    -0.142 C  
HETATM    7  C   UNL     1      -9.507   8.158  66.684  1.00  0.00    -0.213 C  
HETATM    8  C   UNL     1      -8.817   7.491  69.127  1.00  0.00    -0.136 C  
HETATM    9  S   UNL     1      -7.417   6.418  68.618  1.00  0.00    -0.089 S  
HETATM   10  O   UNL     1      -7.913   5.438  67.674  1.00  0.00    -0.099 OA 
HETATM   11  O   UNL     1     -10.666   7.790  66.601  1.00  0.00    -0.231 OA 
HETATM   12  O   UNL     1      -8.742   8.324  65.570  1.00  0.00    -0.166 OA 
HETATM   13  C   UNL     1     -10.076   6.620  69.280  1.00  0.00    -0.187 C  
HETATM   14  O   UNL     1      -6.693   6.000  69.804  1.00  0.00    -0.048 OA 
ENDROOT
BRANCH   8  15
HETATM   15  C   UNL     1      -8.460   8.052  70.537  1.00  0.00    -0.125 C  
BRANCH  15  16
HETATM   16  N   UNL     1      -9.319   7.689  71.642  1.00  0.00    -0.138 NA 
HETATM   17  C   UNL     1     -10.434   8.348  72.069  1.00  0.00    -0.314 A  
HETATM   18  C   UNL     1     -10.923   7.547  73.072  1.00  0.00    -0.390 A  
HETATM   19  N   UNL     1     -10.092   6.477  73.244  1.00  0.00    -0.189 NA 
HETATM   20  N   UNL     1      -9.098   6.587  72.377  1.00  0.00    -0.134 NA 
ENDBRANCH  15  16
ENDBRANCH   8  15
TORSDOF 2
ENDMDL
MODEL      156
REMARK 921   NORMALIZED FREE ENERGY PREDICTED BY IDOCK:   -2.51 KCAL/MOL
REMARK 922        TOTAL FREE ENERGY PREDICTED BY IDOCK:   -2.90 KCAL/MOL
REMARK 923 INTER-LIGAND FREE ENERGY PREDICTED BY IDOCK:   -3.09 KCAL/MOL
REMARK 924 INTRA-LIGAND FREE ENERGY PREDICTED BY IDOCK:    0.18 KCAL/MOL
REMARK 927      BINDING AFFINITY PREDICTED BY RF-SCORE:    0.00 PKD
ROOT
HETATM    1  C   UNL     1      -7.944  14.919  66.938  1.00  0.00    -0.032 C  
HETATM    2  C   UNL     1      -7.793  13.416  67.194  1.00  0.00    -0.035 C  
HETATM    3  C   UNL     1      -8.262  13.730  68.613  1.00  0.00    -0.077 C  
HETATM    4  N   UNL     1      -8.220  15.081  68.393  1.00  0.00    -0.144 N  
HETATM    5  O   UNL     1      -8.756  13.107  69.525  1.00  0.00     1.012 OA 
HETATM    6  C   UNL     1      -9.367  15.937  68.786  1.00  0.00    -0.220 C  
HETATM    7  C   UNL     1      -8.830  17.376  68.926  1.00  0.00    -0.153 C  
HETATM    8  C   UNL     1     -10.480  15.729  67.719  1.00  0.00    -0.283 C  
HETATM    9  S   UNL     1      -9.462  15.555  66.202  1.00  0.00    -0.358 S  
HETATM   10  O   UNL     1      -9.192  16.879  65.680  1.00  0.00    -0.512 OA 
HETATM   11  O   UNL     1      -9.511  18.364  69.137  1.00  0.00    -0.174 OA 
HETATM   12  O   UNL     1      -7.472  17.459  68.865  1.00  0.00    -0.254 OA 
HETATM   13  C   UNL     1     -11.501  16.860  67.502  1.00  0.00     0.452 C  
HETATM   14  O   UNL     1     -10.054  14.534  65.356  1.00  0.00    -0.345 OA 
ENDROOT
BRANCH   8  15
HETATM   15  C   UNL     1     -11.279  14.400  67.876  1.00  0.00    -0.286 C  
BRANCH  15  16
HETATM   16  N   UNL     1     -11.708  14.025  69.204  1.00  0.00    -0.309 NA 
HETATM   17  C   UNL     1     -12.073  14.861  70.218  1.00  0.00    -0.325 A  
HETATM   18  C   UNL     1     -12.478  14.008  71.216  1.00  0.00    -0.369 A  
HETATM   19  N   UNL     1     -12.315  12.717  70.802  1.00  0.00    -0.353 NA 
HETATM   20  N   UNL     1     -11.819  12.739  69.575  1.00  0.00    -0.320 NA 
ENDBRANCH  15  16
ENDBRANCH   8  15
TORSDOF 2
ENDMDL
MODEL      157
REMARK 921   NORMALIZED FREE ENERGY PREDICTED BY IDOCK:   -2.48 KCAL/MOL
REMARK 922        TOTAL FREE ENERGY PREDICTED BY IDOCK:   -2.87 KCAL/MOL
REMARK 923 INTER-LIGAND FREE ENERGY PREDICTED BY IDOCK:   -2.59 KCAL/MOL
REMARK 924 INTRA-LIGAND FREE ENERGY PREDICTED BY IDOCK:   -0.28 KCAL/MOL
REMARK 927      BINDING AFFINITY PREDICTED BY RF-SCORE:    0.00 PKD
ROOT
HETATM    1  C   UNL     1      -9.294   4.691  68.814  1.00  0.00    -0.140 C  
HETATM    2  C   UNL     1      -9.091   4.948  70.310  1.00  0.00    -0.165 C  
HETATM    3  C   UNL     1      -7.862   5.748  69.886  1.00  0.00    -0.088 C  
HETATM    4  N   UNL     1      -7.981   5.354  68.580  1.00  0.00    -0.091 N  
HETATM    5  O   UNL     1      -7.176   6.617  70.375  1.00  0.00    -0.075 OA 
HETATM    6  C   UNL     1      -7.900   6.357  67.488  1.00  0.00    -0.105 C  
HETATM    7  C   UNL     1      -7.524   5.594  66.202  1.00  0.00    -0.082 C  
HETATM    8  C   UNL     1      -9.261   7.110  67.457  1.00  0.00    -0.125 C  
HETATM    9  S   UNL     1     -10.412   5.740  67.866  1.00  0.00    -0.219 S  
HETATM   10  O   UNL     1     -10.753   5.049  66.640  1.00  0.00    -0.254 OA 
HETATM   11  O   UNL     1      -7.470   6.080  65.085  1.00  0.00    -0.076 OA 
HETATM   12  O   UNL     1      -7.171   4.297  66.420  1.00  0.00    -0.072 OA 
HETATM   13  C   UNL     1      -9.708   7.751  66.131  1.00  0.00    -0.057 C  
HETATM   14  O   UNL     1     -11.453   6.250  68.741  1.00  0.00    -0.294 OA 
ENDROOT
BRANCH   8  15
HETATM   15  C   UNL     1      -9.427   8.183  68.576  1.00  0.00    -0.143 C  
BRANCH  15  16
HETATM   16  N   UNL     1      -8.944   9.518  68.304  1.00  0.00    -0.124 NA 
HETATM   17  C   UNL     1      -9.694  10.635  68.082  1.00  0.00    -0.156 A  
HETATM   18  C   UNL     1      -8.762  11.639  67.974  1.00  0.00    -0.157 A  
HETATM   19  N   UNL     1      -7.509  11.108  68.092  1.00  0.00    -0.089 NA 
HETATM   20  N   UNL     1      -7.632   9.802  68.270  1.00  0.00    -0.081 NA 
ENDBRANCH  15  16
ENDBRANCH   8  15
TORSDOF 2
ENDMDL
MODEL      158
REMARK 921   NORMALIZED FREE ENERGY PREDICTED BY IDOCK:   -2.48 KCAL/MOL
REMARK 922        TOTAL FREE ENERGY PREDICTED BY IDOCK:   -2.87 KCAL/MOL
REMARK 923 INTER-LIGAND FREE ENERGY PREDICTED BY IDOCK:   -2.91 KCAL/MOL
REMARK 924 INTRA-LIGAND FREE ENERGY PREDICTED BY IDOCK:    0.04 KCAL/MOL
REMARK 927      BINDING AFFINITY PREDICTED BY RF-SCORE:    0.00 PKD
ROOT
HETATM    1  C   UNL     1      -9.793   7.505  68.522  1.00  0.00    -0.165 C  
HETATM    2  C   UNL     1     -10.941   8.395  69.008  1.00  0.00     0.091 C  
HETATM    3  C   UNL     1     -11.080   7.390  70.150  1.00  0.00    -0.246 C  
HETATM    4  N   UNL     1     -10.167   6.537  69.591  1.00  0.00    -0.180 N  
HETATM    5  O   UNL     1     -11.560   7.394  71.261  1.00  0.00    -0.264 OA 
HETATM    6  C   UNL     1      -9.074   5.967  70.418  1.00  0.00    -0.147 C  
HETATM    7  C   UNL     1      -8.585   4.691  69.703  1.00  0.00    -0.077 C  
HETATM    8  C   UNL     1      -8.012   7.088  70.608  1.00  0.00    -0.109 C  
HETATM    9  S   UNL     1      -8.093   7.909  68.968  1.00  0.00    -0.125 S  
HETATM   10  O   UNL     1      -7.208   7.207  68.062  1.00  0.00    -0.086 OA 
HETATM   11  O   UNL     1      -7.626   4.018  70.041  1.00  0.00    -0.048 OA 
HETATM   12  O   UNL     1      -9.376   4.312  68.662  1.00  0.00    -0.131 OA 
HETATM   13  C   UNL     1      -6.556   6.672  70.880  1.00  0.00    -0.053 C  
HETATM   14  O   UNL     1      -7.971   9.343  69.157  1.00  0.00    -0.086 OA 
ENDROOT
BRANCH   8  15
HETATM   15  C   UNL     1      -8.398   8.164  71.667  1.00  0.00    -0.131 C  
BRANCH  15  16
HETATM   16  N   UNL     1      -7.416   8.502  72.672  1.00  0.00    -0.303 NA 
HETATM   17  C   UNL     1      -7.396   8.094  73.973  1.00  0.00    -0.171 A  
HETATM   18  C   UNL     1      -6.219   8.610  74.460  1.00  0.00    -0.131 A  
HETATM   19  N   UNL     1      -5.598   9.326  73.477  1.00  0.00    -0.255 NA 
HETATM   20  N   UNL     1      -6.353   9.273  72.391  1.00  0.00    -0.297 NA 
ENDBRANCH  15  16
ENDBRANCH   8  15
TORSDOF 2
ENDMDL
MODEL      159
REMARK 921   NORMALIZED FREE ENERGY PREDICTED BY IDOCK:   -2.43 KCAL/MOL
REMARK 922        TOTAL FREE ENERGY PREDICTED BY IDOCK:   -2.82 KCAL/MOL
REMARK 923 INTER-LIGAND FREE ENERGY PREDICTED BY IDOCK:   -2.76 KCAL/MOL
REMARK 924 INTRA-LIGAND FREE ENERGY PREDICTED BY IDOCK:   -0.06 KCAL/MOL
REMARK 927      BINDING AFFINITY PREDICTED BY RF-SCORE:    0.00 PKD
ROOT
HETATM    1  C   UNL     1     -10.047   6.845  68.104  1.00  0.00    -0.166 C  
HETATM    2  C   UNL     1     -10.583   5.567  67.451  1.00  0.00    -0.274 C  
HETATM    3  C   UNL     1      -9.278   4.923  67.915  1.00  0.00    -0.122 C  
HETATM    4  N   UNL     1      -8.766   6.122  68.335  1.00  0.00    -0.115 N  
HETATM    5  O   UNL     1      -8.889   3.797  68.125  1.00  0.00    -0.098 OA 
HETATM    6  C   UNL     1      -8.140   6.238  69.676  1.00  0.00    -0.120 C  
HETATM    7  C   UNL     1      -7.212   7.469  69.636  1.00  0.00    -0.077 C  
HETATM    8  C   UNL     1      -9.295   6.291  70.716  1.00  0.00    -0.158 C  
HETATM    9  S   UNL     1     -10.540   7.268  69.785  1.00  0.00    -0.238 S  
HETATM   10  O   UNL     1     -10.268   8.674  69.997  1.00  0.00    -0.186 OA 
HETATM   11  O   UNL     1      -6.614   7.931  70.592  1.00  0.00    -0.037 OA 
HETATM   12  O   UNL     1      -7.046   7.987  68.388  1.00  0.00    -0.079 OA 
HETATM   13  C   UNL     1      -9.030   6.986  72.063  1.00  0.00    -0.138 C  
HETATM   14  O   UNL     1     -11.858   6.722  70.054  1.00  0.00    -0.316 OA 
ENDROOT
BRANCH   8  15
HETATM   15  C   UNL     1      -9.949   4.909  71.021  1.00  0.00    -0.212 C  
BRANCH  15  16
HETATM   16  N   UNL     1      -9.171   3.949  71.772  1.00  0.00    -0.118 NA 
HETATM   17  C   UNL     1      -7.821   3.767  71.726  1.00  0.00    -0.062 A  
HETATM   18  C   UNL     1      -7.587   2.812  72.686  1.00  0.00    -0.049 A  
HETATM   19  N   UNL     1      -8.773   2.429  73.243  1.00  0.00    -0.070 NA 
HETATM   20  N   UNL     1      -9.742   3.116  72.657  1.00  0.00    -0.127 NA 
ENDBRANCH  15  16
ENDBRANCH   8  15
TORSDOF 2
ENDMDL
MODEL      160
REMARK 921   NORMALIZED FREE ENERGY PREDICTED BY IDOCK:   -2.42 KCAL/MOL
REMARK 922        TOTAL FREE ENERGY PREDICTED BY IDOCK:   -2.81 KCAL/MOL
REMARK 923 INTER-LIGAND FREE ENERGY PREDICTED BY IDOCK:   -3.08 KCAL/MOL
REMARK 924 INTRA-LIGAND FREE ENERGY PREDICTED BY IDOCK:    0.28 KCAL/MOL
REMARK 927      BINDING AFFINITY PREDICTED BY RF-SCORE:    0.00 PKD
ROOT
HETATM    1  C   UNL     1     -10.454   5.752  69.748  1.00  0.00    -0.292 C  
HETATM    2  C   UNL     1     -11.769   6.222  70.376  1.00  0.00    -0.290 C  
HETATM    3  C   UNL     1     -10.896   6.807  71.483  1.00  0.00    -0.234 C  
HETATM    4  N   UNL     1      -9.763   6.225  70.980  1.00  0.00    -0.175 N  
HETATM    5  O   UNL     1     -11.017   7.665  72.328  1.00  0.00    -0.242 OA 
HETATM    6  C   UNL     1      -8.524   7.026  70.811  1.00  0.00    -0.135 C  
HETATM    7  C   UNL     1      -7.346   6.031  70.767  1.00  0.00    -0.085 C  
HETATM    8  C   UNL     1      -8.717   7.906  69.543  1.00  0.00    -0.134 C  
HETATM    9  S   UNL     1      -9.660   6.750  68.473  1.00  0.00    -0.130 S  
HETATM   10  O   UNL     1      -8.717   5.912  67.763  1.00  0.00    -0.106 OA 
HETATM   11  O   UNL     1      -6.186   6.324  70.535  1.00  0.00    -0.033 OA 
HETATM   12  O   UNL     1      -7.697   4.756  71.089  1.00  0.00    -0.077 OA 
HETATM   13  C   UNL     1      -7.463   8.370  68.782  1.00  0.00    -0.092 C  
HETATM   14  O   UNL     1     -10.671   7.502  67.750  1.00  0.00    -0.220 OA 
ENDROOT
BRANCH   8  15
HETATM   15  C   UNL     1      -9.624   9.155  69.760  1.00  0.00    -0.181 C  
BRANCH  15  16
HETATM   16  N   UNL     1      -9.356  10.328  68.960  1.00  0.00    -0.180 NA 
HETATM   17  C   UNL     1      -8.304  11.187  69.085  1.00  0.00     0.023 A  
HETATM   18  C   UNL     1      -8.468  12.060  68.036  1.00  0.00    -0.168 A  
HETATM   19  N   UNL     1      -9.603  11.735  67.350  1.00  0.00    -0.168 NA 
HETATM   20  N   UNL     1     -10.153  10.685  67.940  1.00  0.00    -0.164 NA 
ENDBRANCH  15  16
ENDBRANCH   8  15
TORSDOF 2
ENDMDL
MODEL      161
REMARK 921   NORMALIZED FREE ENERGY PREDICTED BY IDOCK:   -2.39 KCAL/MOL
REMARK 922        TOTAL FREE ENERGY PREDICTED BY IDOCK:   -2.78 KCAL/MOL
REMARK 923 INTER-LIGAND FREE ENERGY PREDICTED BY IDOCK:   -3.17 KCAL/MOL
REMARK 924 INTRA-LIGAND FREE ENERGY PREDICTED BY IDOCK:    0.39 KCAL/MOL
REMARK 927      BINDING AFFINITY PREDICTED BY RF-SCORE:    0.00 PKD
ROOT
HETATM    1  C   UNL     1     -10.750   9.550  67.393  1.00  0.00    -0.227 C  
HETATM    2  C   UNL     1     -10.527   8.085  67.006  1.00  0.00    -0.410 C  
HETATM    3  C   UNL     1      -9.323   8.598  66.219  1.00  0.00    -0.220 C  
HETATM    4  N   UNL     1      -9.655   9.907  66.448  1.00  0.00    -0.188 N  
HETATM    5  O   UNL     1      -8.300   8.122  65.784  1.00  0.00    -0.120 OA 
HETATM    6  C   UNL     1      -8.625  10.868  66.916  1.00  0.00    -0.136 C  
HETATM    7  C   UNL     1      -9.129  12.280  66.559  1.00  0.00    -0.188 C  
HETATM    8  C   UNL     1      -8.397  10.591  68.429  1.00  0.00    -0.126 C  
HETATM    9  S   UNL     1     -10.105  10.174  68.956  1.00  0.00    -0.219 S  
HETATM   10  O   UNL     1     -10.798  11.405  69.274  1.00  0.00    -0.228 OA 
HETATM   11  O   UNL     1      -8.590  13.324  66.885  1.00  0.00    -0.191 OA 
HETATM   12  O   UNL     1     -10.231  12.280  65.759  1.00  0.00    -0.244 OA 
HETATM   13  C   UNL     1      -7.876  11.741  69.309  1.00  0.00     0.269 C  
HETATM   14  O   UNL     1     -10.045   9.090  69.921  1.00  0.00    -0.187 OA 
ENDROOT
BRANCH   8  15
HETATM   15  C   UNL     1      -7.519   9.338  68.728  1.00  0.00    -0.076 C  
BRANCH  15  16
HETATM   16  N   UNL     1      -6.820   9.291  69.992  1.00  0.00    -0.047 NA 
HETATM   17  C   UNL     1      -5.472   9.352  70.191  1.00  0.00    -0.027 A  
HETATM   18  C   UNL     1      -5.343   9.364  71.559  1.00  0.00    -0.062 A  
HETATM   19  N   UNL     1      -6.580   9.274  72.131  1.00  0.00    -0.295 NA 
HETATM   20  N   UNL     1      -7.477   9.205  71.160  1.00  0.00    -0.246 NA 
ENDBRANCH  15  16
ENDBRANCH   8  15
TORSDOF 2
ENDMDL
MODEL      162
REMARK 921   NORMALIZED FREE ENERGY PREDICTED BY IDOCK:   -2.32 KCAL/MOL
REMARK 922        TOTAL FREE ENERGY PREDICTED BY IDOCK:   -2.70 KCAL/MOL
REMARK 923 INTER-LIGAND FREE ENERGY PREDICTED BY IDOCK:   -2.66 KCAL/MOL
REMARK 924 INTRA-LIGAND FREE ENERGY PREDICTED BY IDOCK:   -0.03 KCAL/MOL
REMARK 927      BINDING AFFINITY PREDICTED BY RF-SCORE:    0.00 PKD
ROOT
HETATM    1  C   UNL     1      -9.534   8.653  70.569  1.00  0.00    -0.178 C  
HETATM    2  C   UNL     1     -10.939   8.964  70.044  1.00  0.00    -0.217 C  
HETATM    3  C   UNL     1     -10.235   9.884  69.048  1.00  0.00    -0.200 C  
HETATM    4  N   UNL     1      -9.020   9.711  69.655  1.00  0.00    -0.187 N  
HETATM    5  O   UNL     1     -10.504  10.376  67.976  1.00  0.00    -0.172 OA 
HETATM    6  C   UNL     1      -7.818   9.395  68.843  1.00  0.00    -0.083 C  
HETATM    7  C   UNL     1      -6.588   9.796  69.682  1.00  0.00    -0.052 C  
HETATM    8  C   UNL     1      -7.912   7.893  68.451  1.00  0.00    -0.122 C  
HETATM    9  S   UNL     1      -8.657   7.194  69.976  1.00  0.00    -0.141 S  
HETATM   10  O   UNL     1      -7.590   6.896  70.909  1.00  0.00    -0.084 OA 
HETATM   11  O   UNL     1      -5.427   9.585  69.375  1.00  0.00    -0.035 OA 
HETATM   12  O   UNL     1      -6.900  10.496  70.808  1.00  0.00    -0.317 OA 
HETATM   13  C   UNL     1      -6.607   7.137  68.147  1.00  0.00    -0.049 C  
HETATM   14  O   UNL     1      -9.617   6.172  69.601  1.00  0.00    -0.146 OA 
ENDROOT
BRANCH   8  15
HETATM   15  C   UNL     1      -8.908   7.594  67.290  1.00  0.00    -0.120 C  
BRANCH  15  16
HETATM   16  N   UNL     1      -8.502   6.639  66.284  1.00  0.00    -0.124 NA 
HETATM   17  C   UNL     1      -7.841   6.900  65.120  1.00  0.00    -0.120 A  
HETATM   18  C   UNL     1      -7.617   5.654  64.585  1.00  0.00    -0.085 A  
HETATM   19  N   UNL     1      -8.167   4.706  65.399  1.00  0.00    -0.114 NA 
HETATM   20  N   UNL     1      -8.728   5.323  66.426  1.00  0.00    -0.116 NA 
ENDBRANCH  15  16
ENDBRANCH   8  15
TORSDOF 2
ENDMDL
MODEL      163
REMARK 921   NORMALIZED FREE ENERGY PREDICTED BY IDOCK:   -2.31 KCAL/MOL
REMARK 922        TOTAL FREE ENERGY PREDICTED BY IDOCK:   -2.68 KCAL/MOL
REMARK 923 INTER-LIGAND FREE ENERGY PREDICTED BY IDOCK:   -3.01 KCAL/MOL
REMARK 924 INTRA-LIGAND FREE ENERGY PREDICTED BY IDOCK:    0.32 KCAL/MOL
REMARK 927      BINDING AFFINITY PREDICTED BY RF-SCORE:    0.00 PKD
ROOT
HETATM    1  C   UNL     1     -10.119   7.436  67.448  1.00  0.00    -0.211 C  
HETATM    2  C   UNL     1     -11.049   6.220  67.426  1.00  0.00    -0.384 C  
HETATM    3  C   UNL     1      -9.782   5.395  67.643  1.00  0.00    -0.134 C  
HETATM    4  N   UNL     1      -8.971   6.487  67.487  1.00  0.00    -0.111 N  
HETATM    5  O   UNL     1      -9.523   4.290  68.064  1.00  0.00    -0.145 OA 
HETATM    6  C   UNL     1      -7.886   6.757  68.464  1.00  0.00    -0.118 C  
HETATM    7  C   UNL     1      -6.859   7.664  67.757  1.00  0.00    -0.068 C  
HETATM    8  C   UNL     1      -8.554   7.350  69.737  1.00  0.00    -0.140 C  
HETATM    9  S   UNL     1      -9.885   8.360  68.979  1.00  0.00    -0.188 S  
HETATM   10  O   UNL     1      -9.339   9.659  68.645  1.00  0.00    -0.140 OA 
HETATM   11  O   UNL     1      -5.886   8.172  68.288  1.00  0.00    -0.035 OA 
HETATM   12  O   UNL     1      -7.086   7.809  66.422  1.00  0.00    -0.068 OA 
HETATM   13  C   UNL     1      -7.706   8.255  70.649  1.00  0.00    -0.083 C  
HETATM   14  O   UNL     1     -11.080   8.249  69.796  1.00  0.00    -0.182 OA 
ENDROOT
BRANCH   8  15
HETATM   15  C   UNL     1      -9.255   6.295  70.645  1.00  0.00    -0.158 C  
BRANCH  15  16
HETATM   16  N   UNL     1      -9.227   6.511  72.074  1.00  0.00    -0.147 NA 
HETATM   17  C   UNL     1      -9.634   7.626  72.746  1.00  0.00    -0.198 A  
HETATM   18  C   UNL     1      -9.487   7.283  74.068  1.00  0.00    -0.251 A  
HETATM   19  N   UNL     1      -8.974   6.020  74.154  1.00  0.00    -0.126 NA 
HETATM   20  N   UNL     1      -8.795   5.566  72.923  1.00  0.00    -0.118 NA 
ENDBRANCH  15  16
ENDBRANCH   8  15
TORSDOF 2
ENDMDL
MODEL      164
REMARK 921   NORMALIZED FREE ENERGY PREDICTED BY IDOCK:   -2.27 KCAL/MOL
REMARK 922        TOTAL FREE ENERGY PREDICTED BY IDOCK:   -2.64 KCAL/MOL
REMARK 923 INTER-LIGAND FREE ENERGY PREDICTED BY IDOCK:   -2.61 KCAL/MOL
REMARK 924 INTRA-LIGAND FREE ENERGY PREDICTED BY IDOCK:   -0.04 KCAL/MOL
REMARK 927      BINDING AFFINITY PREDICTED BY RF-SCORE:    0.00 PKD
ROOT
HETATM    1  C   UNL     1     -10.104   5.685  69.824  1.00  0.00    -0.218 C  
HETATM    2  C   UNL     1     -11.133   6.201  70.833  1.00  0.00    -0.371 C  
HETATM    3  C   UNL     1     -10.059   5.937  71.886  1.00  0.00    -0.185 C  
HETATM    4  N   UNL     1      -9.234   5.327  70.979  1.00  0.00    -0.145 N  
HETATM    5  O   UNL     1      -9.827   6.322  73.010  1.00  0.00    -0.164 OA 
HETATM    6  C   UNL     1      -7.800   5.701  70.904  1.00  0.00    -0.105 C  
HETATM    7  C   UNL     1      -7.061   4.524  70.235  1.00  0.00    -0.048 C  
HETATM    8  C   UNL     1      -7.721   7.064  70.161  1.00  0.00    -0.100 C  
HETATM    9  S   UNL     1      -9.063   6.852  68.927  1.00  0.00    -0.132 S  
HETATM   10  O   UNL     1      -8.516   6.175  67.769  1.00  0.00    -0.115 OA 
HETATM   11  O   UNL     1      -5.885   4.522  69.915  1.00  0.00    -0.016 OA 
HETATM   12  O   UNL     1      -7.832   3.412  70.081  1.00  0.00    -0.047 OA 
HETATM   13  C   UNL     1      -6.419   7.414  69.418  1.00  0.00    -0.036 C  
HETATM   14  O   UNL     1      -9.767   8.113  68.780  1.00  0.00    -0.149 OA 
ENDROOT
BRANCH   8  15
HETATM   15  C   UNL     1      -8.108   8.296  71.034  1.00  0.00    -0.110 C  
BRANCH  15  16
HETATM   16  N   UNL     1      -7.170   9.394  71.101  1.00  0.00    -0.304 NA 
HETATM   17  C   UNL     1      -6.115   9.525  71.954  1.00  0.00     0.126 A  
HETATM   18  C   UNL     1      -5.503  10.684  71.541  1.00  0.00     0.081 A  
HETATM   19  N   UNL     1      -6.208  11.225  70.504  1.00  0.00    -0.322 NA 
HETATM   20  N   UNL     1      -7.243  10.437  70.259  1.00  0.00    -0.245 NA 
ENDBRANCH  15  16
ENDBRANCH   8  15
TORSDOF 2
ENDMDL
MODEL      165
REMARK 921   NORMALIZED FREE ENERGY PREDICTED BY IDOCK:   -2.20 KCAL/MOL
REMARK 922        TOTAL FREE ENERGY PREDICTED BY IDOCK:   -2.56 KCAL/MOL
REMARK 923 INTER-LIGAND FREE ENERGY PREDICTED BY IDOCK:   -3.11 KCAL/MOL
REMARK 924 INTRA-LIGAND FREE ENERGY PREDICTED BY IDOCK:    0.55 KCAL/MOL
REMARK 927      BINDING AFFINITY PREDICTED BY RF-SCORE:    0.00 PKD
ROOT
HETATM    1  C   UNL     1      -9.872   6.507  72.490  1.00  0.00    -0.165 C  
HETATM    2  C   UNL     1     -11.339   6.759  72.130  1.00  0.00    -0.307 C  
HETATM    3  C   UNL     1     -10.934   8.226  72.001  1.00  0.00    -0.306 C  
HETATM    4  N   UNL     1      -9.678   7.984  72.491  1.00  0.00    -0.230 N  
HETATM    5  O   UNL     1     -11.375   9.207  71.446  1.00  0.00    -0.288 OA 
HETATM    6  C   UNL     1      -8.487   8.524  71.789  1.00  0.00    -0.175 C  
HETATM    7  C   UNL     1      -7.338   8.568  72.818  1.00  0.00    -0.003 C  
HETATM    8  C   UNL     1      -8.247   7.627  70.541  1.00  0.00    -0.121 C  
HETATM    9  S   UNL     1      -8.712   5.984  71.214  1.00  0.00    -0.136 S  
HETATM   10  O   UNL     1      -7.551   5.411  71.864  1.00  0.00    -0.094 OA 
HETATM   11  O   UNL     1      -6.181   8.859  72.568  1.00  0.00    -0.164 OA 
HETATM   12  O   UNL     1      -7.740   8.315  74.094  1.00  0.00    -0.197 OA 
HETATM   13  C   UNL     1      -6.819   7.541  69.971  1.00  0.00    -0.051 C  
HETATM   14  O   UNL     1      -9.424   5.243  70.188  1.00  0.00    -0.145 OA 
ENDROOT
BRANCH   8  15
HETATM   15  C   UNL     1      -9.211   7.912  69.350  1.00  0.00    -0.145 C  
BRANCH  15  16
HETATM   16  N   UNL     1      -8.829   8.937  68.406  1.00  0.00    -0.134 NA 
HETATM   17  C   UNL     1      -9.539   9.365  67.323  1.00  0.00    -0.151 A  
HETATM   18  C   UNL     1      -8.787  10.402  66.827  1.00  0.00    -0.130 A  
HETATM   19  N   UNL     1      -7.657  10.543  67.581  1.00  0.00    -0.092 NA 
HETATM   20  N   UNL     1      -7.682   9.623  68.533  1.00  0.00    -0.081 NA 
ENDBRANCH  15  16
ENDBRANCH   8  15
TORSDOF 2
ENDMDL
MODEL      166
REMARK 921   NORMALIZED FREE ENERGY PREDICTED BY IDOCK:   -2.17 KCAL/MOL
REMARK 922        TOTAL FREE ENERGY PREDICTED BY IDOCK:   -2.53 KCAL/MOL
REMARK 923 INTER-LIGAND FREE ENERGY PREDICTED BY IDOCK:   -2.22 KCAL/MOL
REMARK 924 INTRA-LIGAND FREE ENERGY PREDICTED BY IDOCK:   -0.30 KCAL/MOL
REMARK 927      BINDING AFFINITY PREDICTED BY RF-SCORE:    0.00 PKD
ROOT
HETATM    1  C   UNL     1      -7.158   3.124  67.641  1.00  0.00    -0.050 C  
HETATM    2  C   UNL     1      -6.553   2.258  68.749  1.00  0.00    -0.029 C  
HETATM    3  C   UNL     1      -6.189   3.579  69.422  1.00  0.00    -0.028 C  
HETATM    4  N   UNL     1      -6.587   4.311  68.335  1.00  0.00    -0.045 N  
HETATM    5  O   UNL     1      -5.922   3.940  70.545  1.00  0.00    -0.016 OA 
HETATM    6  C   UNL     1      -7.465   5.495  68.513  1.00  0.00    -0.076 C  
HETATM    7  C   UNL     1      -7.286   6.382  67.265  1.00  0.00    -0.078 C  
HETATM    8  C   UNL     1      -8.904   4.962  68.767  1.00  0.00    -0.094 C  
HETATM    9  S   UNL     1      -8.921   3.500  67.657  1.00  0.00    -0.157 S  
HETATM   10  O   UNL     1      -9.304   3.938  66.331  1.00  0.00    -0.159 OA 
HETATM   11  O   UNL     1      -7.929   7.387  67.018  1.00  0.00    -0.112 OA 
HETATM   12  O   UNL     1      -6.265   5.986  66.456  1.00  0.00    -0.034 OA 
HETATM   13  C   UNL     1     -10.092   5.871  68.403  1.00  0.00    -0.206 C  
HETATM   14  O   UNL     1      -9.639   2.422  68.314  1.00  0.00    -0.206 OA 
ENDROOT
BRANCH   8  15
HETATM   15  C   UNL     1      -9.147   4.429  70.211  1.00  0.00    -0.100 C  
BRANCH  15  16
HETATM   16  N   UNL     1      -9.411   5.399  71.250  1.00  0.00    -0.147 NA 
HETATM   17  C   UNL     1     -10.593   5.611  71.897  1.00  0.00    -0.232 A  
HETATM   18  C   UNL     1     -10.283   6.560  72.841  1.00  0.00    -0.193 A  
HETATM   19  N   UNL     1      -8.970   6.912  72.716  1.00  0.00    -0.130 NA 
HETATM   20  N   UNL     1      -8.451   6.211  71.720  1.00  0.00    -0.129 NA 
ENDBRANCH  15  16
ENDBRANCH   8  15
TORSDOF 2
ENDMDL
MODEL      167
REMARK 921   NORMALIZED FREE ENERGY PREDICTED BY IDOCK:   -2.15 KCAL/MOL
REMARK 922        TOTAL FREE ENERGY PREDICTED BY IDOCK:   -2.51 KCAL/MOL
REMARK 923 INTER-LIGAND FREE ENERGY PREDICTED BY IDOCK:   -2.90 KCAL/MOL
REMARK 924 INTRA-LIGAND FREE ENERGY PREDICTED BY IDOCK:    0.39 KCAL/MOL
REMARK 927      BINDING AFFINITY PREDICTED BY RF-SCORE:    0.00 PKD
ROOT
HETATM    1  C   UNL     1      -8.464  14.186  67.732  1.00  0.00    -0.178 C  
HETATM    2  C   UNL     1      -7.518  14.832  68.749  1.00  0.00    -0.133 C  
HETATM    3  C   UNL     1      -8.422  16.057  68.636  1.00  0.00    -0.208 C  
HETATM    4  N   UNL     1      -9.139  15.507  67.606  1.00  0.00    -0.181 N  
HETATM    5  O   UNL     1      -8.660  17.031  69.313  1.00  0.00    -0.087 OA 
HETATM    6  C   UNL     1     -10.623  15.529  67.636  1.00  0.00    -0.291 C  
HETATM    7  C   UNL     1     -11.106  15.362  66.180  1.00  0.00    -0.230 C  
HETATM    8  C   UNL     1     -11.077  14.424  68.632  1.00  0.00    -0.251 C  
HETATM    9  S   UNL     1      -9.813  13.135  68.302  1.00  0.00    -0.209 S  
HETATM   10  O   UNL     1     -10.262  12.329  67.186  1.00  0.00    -0.210 OA 
HETATM   11  O   UNL     1     -12.267  15.231  65.835  1.00  0.00     0.261 OA 
HETATM   12  O   UNL     1     -10.105  15.446  65.261  1.00  0.00    -0.349 OA 
HETATM   13  C   UNL     1     -12.473  13.805  68.446  1.00  0.00     0.273 C  
HETATM   14  O   UNL     1      -9.441  12.511  69.560  1.00  0.00     0.964 OA 
ENDROOT
BRANCH   8  15
HETATM   15  C   UNL     1     -10.934  14.816  70.134  1.00  0.00    -0.125 C  
BRANCH  15  16
HETATM   16  N   UNL     1     -11.973  14.387  71.043  1.00  0.00    -0.333 NA 
HETATM   17  C   UNL     1     -12.463  13.124  71.196  1.00  0.00    -0.287 A  
HETATM   18  C   UNL     1     -13.352  13.242  72.237  1.00  0.00    -0.533 A  
HETATM   19  N   UNL     1     -13.400  14.543  72.647  1.00  0.00    -0.461 NA 
HETATM   20  N   UNL     1     -12.567  15.242  71.890  1.00  0.00    -0.326 NA 
ENDBRANCH  15  16
ENDBRANCH   8  15
TORSDOF 2
ENDMDL
MODEL      168
REMARK 921   NORMALIZED FREE ENERGY PREDICTED BY IDOCK:   -2.13 KCAL/MOL
REMARK 922        TOTAL FREE ENERGY PREDICTED BY IDOCK:   -2.48 KCAL/MOL
REMARK 923 INTER-LIGAND FREE ENERGY PREDICTED BY IDOCK:   -2.46 KCAL/MOL
REMARK 924 INTRA-LIGAND FREE ENERGY PREDICTED BY IDOCK:   -0.02 KCAL/MOL
REMARK 927      BINDING AFFINITY PREDICTED BY RF-SCORE:    0.00 PKD
ROOT
HETATM    1  C   UNL     1      -7.399   6.514  71.513  1.00  0.00    -0.087 C  
HETATM    2  C   UNL     1      -6.185   5.585  71.415  1.00  0.00    -0.034 C  
HETATM    3  C   UNL     1      -7.190   4.507  71.015  1.00  0.00    -0.044 C  
HETATM    4  N   UNL     1      -8.259   5.321  71.279  1.00  0.00    -0.116 N  
HETATM    5  O   UNL     1      -7.146   3.449  70.430  1.00  0.00    -0.034 OA 
HETATM    6  C   UNL     1      -9.361   5.449  70.292  1.00  0.00    -0.154 C  
HETATM    7  C   UNL     1     -10.601   5.949  71.063  1.00  0.00    -0.250 C  
HETATM    8  C   UNL     1      -8.850   6.376  69.154  1.00  0.00    -0.126 C  
HETATM    9  S   UNL     1      -7.839   7.567  70.118  1.00  0.00    -0.099 S  
HETATM   10  O   UNL     1      -8.710   8.619  70.601  1.00  0.00    -0.139 OA 
HETATM   11  O   UNL     1     -11.663   6.266  70.556  1.00  0.00    -0.354 OA 
HETATM   12  O   UNL     1     -10.441   5.944  72.415  1.00  0.00    -0.195 OA 
HETATM   13  C   UNL     1      -9.889   7.162  68.333  1.00  0.00    -0.157 C  
HETATM   14  O   UNL     1      -6.644   7.887  69.359  1.00  0.00    -0.035 OA 
ENDROOT
BRANCH   8  15
HETATM   15  C   UNL     1      -7.884   5.683  68.146  1.00  0.00    -0.096 C  
BRANCH  15  16
HETATM   16  N   UNL     1      -8.061   5.968  66.739  1.00  0.00    -0.105 NA 
HETATM   17  C   UNL     1      -7.642   7.076  66.065  1.00  0.00    -0.096 A  
HETATM   18  C   UNL     1      -7.972   6.807  64.758  1.00  0.00    -0.120 A  
HETATM   19  N   UNL     1      -8.598   5.596  64.689  1.00  0.00    -0.083 NA 
HETATM   20  N   UNL     1      -8.669   5.100  65.914  1.00  0.00    -0.130 NA 
ENDBRANCH  15  16
ENDBRANCH   8  15
TORSDOF 2
ENDMDL
MODEL      169
REMARK 921   NORMALIZED FREE ENERGY PREDICTED BY IDOCK:   -2.11 KCAL/MOL
REMARK 922        TOTAL FREE ENERGY PREDICTED BY IDOCK:   -2.46 KCAL/MOL
REMARK 923 INTER-LIGAND FREE ENERGY PREDICTED BY IDOCK:   -3.42 KCAL/MOL
REMARK 924 INTRA-LIGAND FREE ENERGY PREDICTED BY IDOCK:    0.96 KCAL/MOL
REMARK 927      BINDING AFFINITY PREDICTED BY RF-SCORE:    0.00 PKD
ROOT
HETATM    1  C   UNL     1      -9.416  14.152  68.857  1.00  0.00    -0.025 C  
HETATM    2  C   UNL     1     -10.071  15.522  68.658  1.00  0.00    -0.210 C  
HETATM    3  C   UNL     1      -8.989  15.756  67.607  1.00  0.00    -0.187 C  
HETATM    4  N   UNL     1      -8.335  14.598  67.934  1.00  0.00    -0.143 N  
HETATM    5  O   UNL     1      -8.845  16.484  66.651  1.00  0.00    -0.213 OA 
HETATM    6  C   UNL     1      -7.905  13.657  66.870  1.00  0.00     0.302 C  
HETATM    7  C   UNL     1      -6.774  12.792  67.462  1.00  0.00    -0.154 C  
HETATM    8  C   UNL     1      -9.173  12.888  66.400  1.00  0.00    -0.137 C  
HETATM    9  S   UNL     1     -10.067  12.711  67.992  1.00  0.00    -0.234 S  
HETATM   10  O   UNL     1      -9.579  11.522  68.660  1.00  0.00    -0.193 OA 
HETATM   11  O   UNL     1      -6.250  11.842  66.907  1.00  0.00    -0.143 OA 
HETATM   12  O   UNL     1      -6.333  13.226  68.675  1.00  0.00    -0.076 OA 
HETATM   13  C   UNL     1      -8.988  11.492  65.779  1.00  0.00    -0.120 C  
HETATM   14  O   UNL     1     -11.488  12.893  67.754  1.00  0.00    -0.282 OA 
ENDROOT
BRANCH   8  15
HETATM   15  C   UNL     1     -10.104  13.704  65.452  1.00  0.00    -0.271 C  
BRANCH  15  16
HETATM   16  N   UNL     1     -11.103  12.977  64.703  1.00  0.00    -0.316 NA 
HETATM   17  C   UNL     1     -12.397  13.348  64.480  1.00  0.00    -0.360 A  
HETATM   18  C   UNL     1     -12.879  12.369  63.645  1.00  0.00    -0.241 A  
HETATM   19  N   UNL     1     -11.902  11.441  63.423  1.00  0.00    -0.082 NA 
HETATM   20  N   UNL     1     -10.824  11.812  64.097  1.00  0.00    -0.331 NA 
ENDBRANCH  15  16
ENDBRANCH   8  15
TORSDOF 2
ENDMDL
MODEL      170
REMARK 921   NORMALIZED FREE ENERGY PREDICTED BY IDOCK:   -1.73 KCAL/MOL
REMARK 922        TOTAL FREE ENERGY PREDICTED BY IDOCK:   -2.04 KCAL/MOL
REMARK 923 INTER-LIGAND FREE ENERGY PREDICTED BY IDOCK:   -3.13 KCAL/MOL
REMARK 924 INTRA-LIGAND FREE ENERGY PREDICTED BY IDOCK:    1.09 KCAL/MOL
REMARK 927      BINDING AFFINITY PREDICTED BY RF-SCORE:    0.00 PKD
ROOT
HETATM    1  C   UNL     1      -9.895   7.207  69.127  1.00  0.00    -0.160 C  
HETATM    2  C   UNL     1      -9.892   8.395  70.094  1.00  0.00    -0.183 C  
HETATM    3  C   UNL     1      -8.385   8.439  69.851  1.00  0.00    -0.124 C  
HETATM    4  N   UNL     1      -8.407   7.275  69.129  1.00  0.00    -0.131 N  
HETATM    5  O   UNL     1      -7.507   9.263  69.967  1.00  0.00    -0.071 OA 
HETATM    6  C   UNL     1      -7.710   7.195  67.821  1.00  0.00    -0.112 C  
HETATM    7  C   UNL     1      -7.448   5.701  67.540  1.00  0.00    -0.081 C  
HETATM    8  C   UNL     1      -8.601   7.934  66.783  1.00  0.00    -0.131 C  
HETATM    9  S   UNL     1     -10.272   7.470  67.384  1.00  0.00    -0.278 S  
HETATM   10  O   UNL     1     -10.630   6.194  66.800  1.00  0.00    -0.259 OA 
HETATM   11  O   UNL     1      -6.985   5.250  66.506  1.00  0.00    -0.061 OA 
HETATM   12  O   UNL     1      -7.715   4.891  68.602  1.00  0.00    -0.076 OA 
HETATM   13  C   UNL     1      -8.480   7.532  65.302  1.00  0.00    -0.075 C  
HETATM   14  O   UNL     1     -11.153   8.617  67.248  1.00  0.00     0.031 OA 
ENDROOT
BRANCH   8  15
HETATM   15  C   UNL     1      -8.516   9.489  66.855  1.00  0.00    -0.127 C  
BRANCH  15  16
HETATM   16  N   UNL     1      -9.297  10.251  65.906  1.00  0.00    -0.171 NA 
HETATM   17  C   UNL     1      -9.990  11.401  66.146  1.00  0.00    -0.227 A  
HETATM   18  C   UNL     1     -10.468  11.758  64.908  1.00  0.00    -0.287 A  
HETATM   19  N   UNL     1     -10.093  10.819  63.989  1.00  0.00    -0.337 NA 
HETATM   20  N   UNL     1      -9.395   9.886  64.618  1.00  0.00    -0.267 NA 
ENDBRANCH  15  16
ENDBRANCH   8  15
TORSDOF 2
ENDMDL
MODEL      171
REMARK 921   NORMALIZED FREE ENERGY PREDICTED BY IDOCK:   -0.70 KCAL/MOL
REMARK 922        TOTAL FREE ENERGY PREDICTED BY IDOCK:   -0.88 KCAL/MOL
REMARK 923 INTER-LIGAND FREE ENERGY PREDICTED BY IDOCK:   -2.32 KCAL/MOL
REMARK 924 INTRA-LIGAND FREE ENERGY PREDICTED BY IDOCK:    1.44 KCAL/MOL
REMARK 927      BINDING AFFINITY PREDICTED BY RF-SCORE:    0.00 PKD
ROOT
HETATM    1  C   UNL     1      -7.683   6.038  65.629  1.00  0.00    -0.094 C  
HETATM    2  C   UNL     1      -9.082   5.460  65.395  1.00  0.00    -0.097 C  
HETATM    3  C   UNL     1      -9.222   5.492  66.915  1.00  0.00    -0.119 C  
HETATM    4  N   UNL     1      -7.911   5.847  67.089  1.00  0.00    -0.101 N  
HETATM    5  O   UNL     1     -10.138   5.495  67.706  1.00  0.00    -0.149 OA 
HETATM    6  C   UNL     1      -7.553   6.967  67.995  1.00  0.00    -0.108 C  
HETATM    7  C   UNL     1      -6.078   6.769  68.397  1.00  0.00    -0.026 C  
HETATM    8  C   UNL     1      -7.881   8.287  67.241  1.00  0.00    -0.105 C  
HETATM    9  S   UNL     1      -7.419   7.818  65.527  1.00  0.00    -0.080 S  
HETATM   10  O   UNL     1      -6.001   8.057  65.355  1.00  0.00    -0.041 OA 
HETATM   11  O   UNL     1      -5.415   7.556  69.052  1.00  0.00    -0.021 OA 
HETATM   12  O   UNL     1      -5.563   5.569  68.012  1.00  0.00    -0.011 OA 
HETATM   13  C   UNL     1      -7.106   9.559  67.630  1.00  0.00    -0.081 C  
HETATM   14  O   UNL     1      -8.383   8.397  64.608  1.00  0.00    -0.164 OA 
ENDROOT
BRANCH   8  15
HETATM   15  C   UNL     1      -9.396   8.651  67.212  1.00  0.00    -0.152 C  
BRANCH  15  16
HETATM   16  N   UNL     1      -9.760  10.036  67.414  1.00  0.00    -0.157 NA 
HETATM   17  C   UNL     1     -11.006  10.581  67.325  1.00  0.00    -0.260 A  
HETATM   18  C   UNL     1     -10.818  11.890  67.696  1.00  0.00    -0.227 A  
HETATM   19  N   UNL     1      -9.494  12.102  67.956  1.00  0.00    -0.195 NA 
HETATM   20  N   UNL     1      -8.850  10.962  67.755  1.00  0.00    -0.133 NA 
ENDBRANCH  15  16
ENDBRANCH   8  15
TORSDOF 2
ENDMDL
MODEL      172
REMARK 921   NORMALIZED FREE ENERGY PREDICTED BY IDOCK:   -0.31 KCAL/MOL
REMARK 922        TOTAL FREE ENERGY PREDICTED BY IDOCK:   -0.45 KCAL/MOL
REMARK 923 INTER-LIGAND FREE ENERGY PREDICTED BY IDOCK:   -2.09 KCAL/MOL
REMARK 924 INTRA-LIGAND FREE ENERGY PREDICTED BY IDOCK:    1.64 KCAL/MOL
REMARK 927      BINDING AFFINITY PREDICTED BY RF-SCORE:    0.00 PKD
ROOT
HETATM    1  C   UNL     1      -9.629   7.687  68.809  1.00  0.00    -0.153 C  
HETATM    2  C   UNL     1     -10.213   8.605  69.887  1.00  0.00    -0.206 C  
HETATM    3  C   UNL     1     -11.127   7.429  70.226  1.00  0.00    -0.258 C  
HETATM    4  N   UNL     1     -10.697   6.706  69.145  1.00  0.00    -0.241 N  
HETATM    5  O   UNL     1     -11.780   7.081  71.183  1.00  0.00    -0.290 OA 
HETATM    6  C   UNL     1     -10.302   5.284  69.308  1.00  0.00    -0.215 C  
HETATM    7  C   UNL     1     -10.405   4.625  67.918  1.00  0.00     0.137 C  
HETATM    8  C   UNL     1      -8.890   5.275  69.961  1.00  0.00    -0.120 C  
HETATM    9  S   UNL     1      -8.135   6.738  69.150  1.00  0.00    -0.121 S  
HETATM   10  O   UNL     1      -7.566   6.317  67.887  1.00  0.00    -0.097 OA 
HETATM   11  O   UNL     1     -10.057   3.488  67.651  1.00  0.00     0.181 OA 
HETATM   12  O   UNL     1     -11.003   5.414  66.983  1.00  0.00    -0.138 OA 
HETATM   13  C   UNL     1      -7.985   4.054  69.719  1.00  0.00    -0.057 C  
HETATM   14  O   UNL     1      -7.325   7.447  70.125  1.00  0.00    -0.075 OA 
ENDROOT
BRANCH   8  15
HETATM   15  C   UNL     1      -8.890   5.563  71.493  1.00  0.00    -0.136 C  
BRANCH  15  16
HETATM   16  N   UNL     1      -7.611   5.733  72.145  1.00  0.00    -0.099 NA 
HETATM   17  C   UNL     1      -6.705   4.760  72.450  1.00  0.00    -0.052 A  
HETATM   18  C   UNL     1      -5.638   5.456  72.965  1.00  0.00    -0.023 A  
HETATM   19  N   UNL     1      -5.937   6.788  72.992  1.00  0.00    -0.056 NA 
HETATM   20  N   UNL     1      -7.159   6.944  72.509  1.00  0.00    -0.070 NA 
ENDBRANCH  15  16
ENDBRANCH   8  15
TORSDOF 2
ENDMDL
MODEL      173
REMARK 921   NORMALIZED FREE ENERGY PREDICTED BY IDOCK:    0.17 KCAL/MOL
REMARK 922        TOTAL FREE ENERGY PREDICTED BY IDOCK:    0.08 KCAL/MOL
REMARK 923 INTER-LIGAND FREE ENERGY PREDICTED BY IDOCK:   -0.71 KCAL/MOL
REMARK 924 INTRA-LIGAND FREE ENERGY PREDICTED BY IDOCK:    0.80 KCAL/MOL
REMARK 927      BINDING AFFINITY PREDICTED BY RF-SCORE:    0.00 PKD
ROOT
HETATM    1  C   UNL     1     -10.530  13.277  68.915  1.00  0.00    -0.100 C  
HETATM    2  C   UNL     1     -11.025  13.355  70.362  1.00  0.00     1.056 C  
HETATM    3  C   UNL     1     -12.162  12.447  69.899  1.00  0.00    -0.157 C  
HETATM    4  N   UNL     1     -11.783  12.541  68.586  1.00  0.00    -0.311 N  
HETATM    5  O   UNL     1     -12.944  11.690  70.428  1.00  0.00     0.025 OA 
HETATM    6  C   UNL     1     -11.666  11.319  67.752  1.00  0.00    -0.176 C  
HETATM    7  C   UNL     1     -11.772  11.765  66.280  1.00  0.00    -0.030 C  
HETATM    8  C   UNL     1     -10.339  10.616  68.156  1.00  0.00    -0.176 C  
HETATM    9  S   UNL     1      -9.266  12.073  68.462  1.00  0.00    -0.054 S  
HETATM   10  O   UNL     1      -8.681  12.483  67.203  1.00  0.00    -0.187 OA 
HETATM   11  O   UNL     1     -11.615  11.040  65.312  1.00  0.00     0.265 OA 
HETATM   12  O   UNL     1     -12.138  13.068  66.129  1.00  0.00    -0.412 OA 
HETATM   13  C   UNL     1      -9.652   9.708  67.119  1.00  0.00    -0.210 C  
HETATM   14  O   UNL     1      -8.425  11.801  69.614  1.00  0.00     0.836 OA 
ENDROOT
BRANCH   8  15
HETATM   15  C   UNL     1     -10.412   9.825  69.497  1.00  0.00    -0.232 C  
BRANCH  15  16
HETATM   16  N   UNL     1     -10.191   8.397  69.449  1.00  0.00    -0.203 NA 
HETATM   17  C   UNL     1     -10.444   7.559  68.403  1.00  0.00    -0.175 A  
HETATM   18  C   UNL     1      -9.973   6.344  68.837  1.00  0.00    -0.147 A  
HETATM   19  N   UNL     1      -9.496   6.470  70.110  1.00  0.00    -0.158 NA 
HETATM   20  N   UNL     1      -9.658   7.730  70.485  1.00  0.00    -0.167 NA 
ENDBRANCH  15  16
ENDBRANCH   8  15
TORSDOF 2
ENDMDL
MODEL      174
REMARK 921   NORMALIZED FREE ENERGY PREDICTED BY IDOCK:    0.70 KCAL/MOL
REMARK 922        TOTAL FREE ENERGY PREDICTED BY IDOCK:    0.68 KCAL/MOL
REMARK 923 INTER-LIGAND FREE ENERGY PREDICTED BY IDOCK:    0.00 KCAL/MOL
REMARK 924 INTRA-LIGAND FREE ENERGY PREDICTED BY IDOCK:    0.68 KCAL/MOL
REMARK 927      BINDING AFFINITY PREDICTED BY RF-SCORE:    0.00 PKD
ROOT
HETATM    1  C   UNL     1     -11.614  14.701  67.750  1.00  0.00    -0.359 C  
HETATM    2  C   UNL     1     -12.042  13.397  68.431  1.00  0.00    -0.270 C  
HETATM    3  C   UNL     1     -11.158  12.704  67.397  1.00  0.00    -0.273 C  
HETATM    4  N   UNL     1     -10.936  13.870  66.715  1.00  0.00    -0.296 N  
HETATM    5  O   UNL     1     -10.603  11.633  67.303  1.00  0.00    -0.212 OA 
HETATM    6  C   UNL     1      -9.558  14.253  66.317  1.00  0.00    -0.288 C  
HETATM    7  C   UNL     1      -9.686  15.254  65.151  1.00  0.00    -0.001 C  
HETATM    8  C   UNL     1      -8.845  14.784  67.594  1.00  0.00    -0.179 C  
HETATM    9  S   UNL     1     -10.236  15.652  68.418  1.00  0.00    -0.226 S  
HETATM   10  O   UNL     1     -10.315  16.997  67.887  1.00  0.00    -0.308 OA 
HETATM   11  O   UNL     1      -8.760  15.859  64.639  1.00  0.00     2.845 OA 
HETATM   12  O   UNL     1     -10.953  15.367  64.666  1.00  0.00    -0.397 OA 
HETATM   13  C   UNL     1      -7.681  15.774  67.417  1.00  0.00    -0.211 C  
HETATM   14  O   UNL     1     -10.144  15.428  69.850  1.00  0.00    -0.277 OA 
ENDROOT
BRANCH   8  15
HETATM   15  C   UNL     1      -8.369  13.670  68.574  1.00  0.00    -0.110 C  
BRANCH  15  16
HETATM   16  N   UNL     1      -7.339  14.009  69.529  1.00  0.00     0.070 NA 
HETATM   17  C   UNL     1      -7.350  15.042  70.420  1.00  0.00     0.486 A  
HETATM   18  C   UNL     1      -6.196  14.861  71.144  1.00  0.00     0.257 A  
HETATM   19  N   UNL     1      -5.521  13.778  70.658  1.00  0.00    -0.130 NA 
HETATM   20  N   UNL     1      -6.219  13.278  69.651  1.00  0.00    -0.116 NA 
ENDBRANCH  15  16
ENDBRANCH   8  15
TORSDOF 2
ENDMDL
MODEL      175
REMARK 921   NORMALIZED FREE ENERGY PREDICTED BY IDOCK:    1.00 KCAL/MOL
REMARK 922        TOTAL FREE ENERGY PREDICTED BY IDOCK:    1.01 KCAL/MOL
REMARK 923 INTER-LIGAND FREE ENERGY PREDICTED BY IDOCK:   -3.15 KCAL/MOL
REMARK 924 INTRA-LIGAND FREE ENERGY PREDICTED BY IDOCK:    4.16 KCAL/MOL
REMARK 927      BINDING AFFINITY PREDICTED BY RF-SCORE:    0.00 PKD
ROOT
HETATM    1  C   UNL     1     -11.591  13.931  68.564  1.00  0.00    -0.332 C  
HETATM    2  C   UNL     1     -10.930  15.021  69.412  1.00  0.00    -0.275 C  
HETATM    3  C   UNL     1      -9.626  14.270  69.150  1.00  0.00     0.084 C  
HETATM    4  N   UNL     1     -10.278  13.228  68.545  1.00  0.00    -0.239 N  
HETATM    5  O   UNL     1      -8.446  14.536  69.177  1.00  0.00    -0.100 OA 
HETATM    6  C   UNL     1      -9.796  12.701  67.243  1.00  0.00    -0.206 C  
HETATM    7  C   UNL     1     -10.345  11.267  67.106  1.00  0.00    -0.209 C  
HETATM    8  C   UNL     1     -10.247  13.709  66.148  1.00  0.00    -0.304 C  
HETATM    9  S   UNL     1     -11.883  14.213  66.808  1.00  0.00    -0.439 S  
HETATM   10  O   UNL     1     -12.873  13.258  66.354  1.00  0.00    -0.139 OA 
HETATM   11  O   UNL     1     -10.237  10.564  66.116  1.00  0.00    -0.235 OA 
HETATM   12  O   UNL     1     -10.925  10.793  68.244  1.00  0.00    -0.215 OA 
HETATM   13  C   UNL     1     -10.433  13.187  64.712  1.00  0.00    -0.390 C  
HETATM   14  O   UNL     1     -12.066  15.634  66.571  1.00  0.00     0.548 OA 
ENDROOT
BRANCH   8  15
HETATM   15  C   UNL     1      -9.379  15.001  66.068  1.00  0.00    -0.269 C  
BRANCH  15  16
HETATM   16  N   UNL     1     -10.035  16.229  65.675  1.00  0.00    -0.506 NA 
HETATM   17  C   UNL     1     -11.061  16.366  64.788  1.00  0.00    -0.235 A  
HETATM   18  C   UNL     1     -11.369  17.704  64.849  1.00  0.00     1.377 A  
HETATM   19  N   UNL     1     -10.519  18.325  65.719  1.00  0.00    -0.617 NA 
HETATM   20  N   UNL     1      -9.688  17.414  66.201  1.00  0.00    -0.454 NA 
ENDBRANCH  15  16
ENDBRANCH   8  15
TORSDOF 2
ENDMDL
MODEL      176
REMARK 921   NORMALIZED FREE ENERGY PREDICTED BY IDOCK:    4.66 KCAL/MOL
REMARK 922        TOTAL FREE ENERGY PREDICTED BY IDOCK:    5.10 KCAL/MOL
REMARK 923 INTER-LIGAND FREE ENERGY PREDICTED BY IDOCK:    1.35 KCAL/MOL
REMARK 924 INTRA-LIGAND FREE ENERGY PREDICTED BY IDOCK:    3.75 KCAL/MOL
REMARK 927      BINDING AFFINITY PREDICTED BY RF-SCORE:    0.00 PKD
ROOT
HETATM    1  C   UNL     1      -7.276  19.905  68.907  1.00  0.00    -0.258 C  
HETATM    2  C   UNL     1      -7.134  19.875  70.431  1.00  0.00     0.302 C  
HETATM    3  C   UNL     1      -8.657  19.765  70.454  1.00  0.00     1.565 C  
HETATM    4  N   UNL     1      -8.752  19.965  69.102  1.00  0.00     0.018 N  
HETATM    5  O   UNL     1      -9.491  19.381  71.242  1.00  0.00     2.373 OA 
HETATM    6  C   UNL     1      -9.595  19.069  68.272  1.00  0.00    -0.355 C  
HETATM    7  C   UNL     1      -9.931  19.838  66.978  1.00  0.00    -0.408 C  
HETATM    8  C   UNL     1      -8.807  17.741  68.088  1.00  0.00    -0.267 C  
HETATM    9  S   UNL     1      -7.092  18.383  67.958  1.00  0.00    -0.236 S  
HETATM   10  O   UNL     1      -6.841  18.738  66.577  1.00  0.00    -0.193 OA 
HETATM   11  O   UNL     1     -10.521  19.374  66.017  1.00  0.00    -0.473 OA 
HETATM   12  O   UNL     1      -9.568  21.149  67.012  1.00  0.00    -0.196 OA 
HETATM   13  C   UNL     1      -9.108  16.882  66.847  1.00  0.00    -0.248 C  
HETATM   14  O   UNL     1      -6.200  17.480  68.663  1.00  0.00    -0.170 OA 
ENDROOT
BRANCH   8  15
HETATM   15  C   UNL     1      -8.839  16.799  69.329  1.00  0.00     0.010 C  
BRANCH  15  16
HETATM   16  N   UNL     1      -7.906  15.695  69.360  1.00  0.00    -0.230 NA 
HETATM   17  C   UNL     1      -6.545  15.765  69.293  1.00  0.00    -0.160 A  
HETATM   18  C   UNL     1      -6.142  14.461  69.458  1.00  0.00    -0.114 A  
HETATM   19  N   UNL     1      -7.241  13.659  69.579  1.00  0.00     0.142 NA 
HETATM   20  N   UNL     1      -8.318  14.424  69.492  1.00  0.00     0.249 NA 
ENDBRANCH  15  16
ENDBRANCH   8  15
TORSDOF 2
ENDMDL
MODEL      177
REMARK 921   NORMALIZED FREE ENERGY PREDICTED BY IDOCK:    5.03 KCAL/MOL
REMARK 922        TOTAL FREE ENERGY PREDICTED BY IDOCK:    5.51 KCAL/MOL
REMARK 923 INTER-LIGAND FREE ENERGY PREDICTED BY IDOCK:    5.41 KCAL/MOL
REMARK 924 INTRA-LIGAND FREE ENERGY PREDICTED BY IDOCK:    0.10 KCAL/MOL
REMARK 927      BINDING AFFINITY PREDICTED BY RF-SCORE:    0.00 PKD
ROOT
HETATM    1  C   UNL     1     -12.951  15.147  65.600  1.00  0.00     0.970 C  
HETATM    2  C   UNL     1     -13.182  15.840  66.947  1.00  0.00     4.435 C  
HETATM    3  C   UNL     1     -12.762  14.510  67.570  1.00  0.00     0.942 C  
HETATM    4  N   UNL     1     -12.733  13.881  66.354  1.00  0.00    -0.267 N  
HETATM    5  O   UNL     1     -12.337  14.146  68.642  1.00  0.00    -0.257 OA 
HETATM    6  C   UNL     1     -11.566  13.045  65.974  1.00  0.00    -0.365 C  
HETATM    7  C   UNL     1     -12.044  12.078  64.872  1.00  0.00    -0.174 C  
HETATM    8  C   UNL     1     -10.419  14.016  65.575  1.00  0.00    -0.327 C  
HETATM    9  S   UNL     1     -11.376  15.345  64.747  1.00  0.00    -0.311 S  
HETATM   10  O   UNL     1     -11.563  14.976  63.359  1.00  0.00     0.623 OA 
HETATM   11  O   UNL     1     -11.328  11.313  64.248  1.00  0.00    -0.250 OA 
HETATM   12  O   UNL     1     -13.392  12.088  64.684  1.00  0.00    -0.451 OA 
HETATM   13  C   UNL     1      -9.339  13.506  64.604  1.00  0.00     1.282 C  
HETATM   14  O   UNL     1     -10.794  16.628  65.099  1.00  0.00    -0.565 OA 
ENDROOT
BRANCH   8  15
HETATM   15  C   UNL     1      -9.688  14.677  66.783  1.00  0.00    -0.257 C  
BRANCH  15  16
HETATM   16  N   UNL     1      -8.815  13.844  67.579  1.00  0.00    -0.185 NA 
HETATM   17  C   UNL     1      -7.755  13.106  67.140  1.00  0.00    -0.019 A  
HETATM   18  C   UNL     1      -7.217  12.589  68.294  1.00  0.00    -0.111 A  
HETATM   19  N   UNL     1      -7.969  12.986  69.363  1.00  0.00     0.639 NA 
HETATM   20  N   UNL     1      -8.961  13.737  68.910  1.00  0.00     0.057 NA 
ENDBRANCH  15  16
ENDBRANCH   8  15
TORSDOF 2
ENDMDL
MODEL      178
REMARK 921   NORMALIZED FREE ENERGY PREDICTED BY IDOCK:   10.33 KCAL/MOL
REMARK 922        TOTAL FREE ENERGY PREDICTED BY IDOCK:   11.44 KCAL/MOL
REMARK 923 INTER-LIGAND FREE ENERGY PREDICTED BY IDOCK:    0.83 KCAL/MOL
REMARK 924 INTRA-LIGAND FREE ENERGY PREDICTED BY IDOCK:   10.61 KCAL/MOL
REMARK 927      BINDING AFFINITY PREDICTED BY RF-SCORE:    0.00 PKD
ROOT
HETATM    1  C   UNL     1      -7.659  13.818  68.197  1.00  0.00    -0.128 C  
HETATM    2  C   UNL     1      -7.960  13.401  69.640  1.00  0.00     1.139 C  
HETATM    3  C   UNL     1      -8.697  14.733  69.747  1.00  0.00     0.342 C  
HETATM    4  N   UNL     1      -8.264  15.142  68.514  1.00  0.00    -0.141 N  
HETATM    5  O   UNL     1      -9.556  15.199  70.461  1.00  0.00     0.318 OA 
HETATM    6  C   UNL     1      -9.223  15.713  67.536  1.00  0.00    -0.201 C  
HETATM    7  C   UNL     1      -8.402  16.547  66.532  1.00  0.00    -0.292 C  
HETATM    8  C   UNL     1     -10.026  14.524  66.936  1.00  0.00    -0.259 C  
HETATM    9  S   UNL     1      -8.717  13.241  66.856  1.00  0.00    -0.083 S  
HETATM   10  O   UNL     1      -7.996  13.400  65.610  1.00  0.00     2.471 OA 
HETATM   11  O   UNL     1      -8.847  17.078  65.529  1.00  0.00    -0.319 OA 
HETATM   12  O   UNL     1      -7.101  16.714  66.897  1.00  0.00    -0.185 OA 
HETATM   13  C   UNL     1     -10.637  14.694  65.533  1.00  0.00    -0.369 C  
HETATM   14  O   UNL     1      -9.296  11.959  67.216  1.00  0.00    -0.172 OA 
ENDROOT
BRANCH   8  15
HETATM   15  C   UNL     1     -11.143  13.967  67.869  1.00  0.00    -0.258 C  
BRANCH  15  16
HETATM   16  N   UNL     1     -11.109  12.558  68.192  1.00  0.00    -0.228 NA 
HETATM   17  C   UNL     1     -12.004  11.866  68.953  1.00  0.00    -0.254 A  
HETATM   18  C   UNL     1     -11.569  10.565  68.867  1.00  0.00    -0.196 A  
HETATM   19  N   UNL     1     -10.434  10.516  68.110  1.00  0.00    -0.174 NA 
HETATM   20  N   UNL     1     -10.147  11.748  67.721  1.00  0.00    -0.185 NA 
ENDBRANCH  15  16
ENDBRANCH   8  15
TORSDOF 2
ENDMDL
