MODEL        1
REMARK 921   NORMALIZED FREE ENERGY PREDICTED BY IDOCK:   -7.93 KCAL/MOL
REMARK 922        TOTAL FREE ENERGY PREDICTED BY IDOCK:   -9.31 KCAL/MOL
REMARK 923 INTER-LIGAND FREE ENERGY PREDICTED BY IDOCK:   -8.86 KCAL/MOL
REMARK 924 INTRA-LIGAND FREE ENERGY PREDICTED BY IDOCK:   -0.45 KCAL/MOL
REMARK 927      BINDING AFFINITY PREDICTED BY RF-SCORE:    0.00 PKD
ROOT
HETATM    1  F   UNL     1     -13.613   8.905  73.026  1.00  0.00    -0.430 F  
HETATM    2  C   UNL     1     -12.593   8.579  72.185  1.00  0.00    -0.377 C  
HETATM    3  C   UNL     1     -12.143   9.723  71.309  1.00  0.00    -0.470 A  
HETATM    4  F   UNL     1     -11.594   8.096  72.972  1.00  0.00    -0.454 F  
HETATM    5  F   UNL     1     -13.040   7.520  71.453  1.00  0.00    -0.347 F  
HETATM    6  C   UNL     1     -12.740  10.984  71.410  1.00  0.00    -0.534 A  
HETATM    7  C   UNL     1     -12.393  12.000  70.518  1.00  0.00    -0.369 A  
HETATM    8  C   UNL     1     -11.445  11.778  69.507  1.00  0.00    -0.363 A  
HETATM    9  C   UNL     1     -10.788  10.544  69.453  1.00  0.00    -0.291 A  
HETATM   10  C   UNL     1     -11.139   9.523  70.346  1.00  0.00    -0.330 A  
ENDROOT
BRANCH   8  11
HETATM   11  C   UNL     1     -11.248  12.873  68.510  1.00  0.00    -0.274 C  
HETATM   12  O   UNL     1     -11.839  12.812  67.432  1.00  0.00    -0.361 OA 
HETATM   13  N   UNL     1     -10.376  13.891  68.835  1.00  0.00    -0.363 N  
HETATM   14  H   UNL     1      -9.908  13.909  69.741  1.00  0.00     0.000 HD 
BRANCH  13  15
HETATM   15  N   UNL     1     -10.152  14.894  67.896  1.00  0.00    -0.226 N  
HETATM   16  C   UNL     1      -8.899  15.053  67.352  1.00  0.00    -0.190 C  
HETATM   17  C   UNL     1      -8.883  16.359  66.594  1.00  0.00    -0.283 C  
HETATM   18  O   UNL     1      -7.938  14.311  67.507  1.00  0.00    -0.162 OA 
HETATM   19  C   UNL     1     -10.265  17.005  66.929  1.00  0.00    -0.305 C  
HETATM   20  C   UNL     1     -10.052  18.389  67.603  1.00  0.00    -0.378 C  
HETATM   21  C   UNL     1     -10.912  16.044  67.889  1.00  0.00    -0.327 C  
HETATM   22  O   UNL     1     -11.877  16.321  68.587  1.00  0.00    -0.255 OA 
HETATM   23  C   UNL     1      -9.162  18.141  68.825  1.00  0.00    -0.247 C  
HETATM   24  C   UNL     1      -7.969  17.589  68.538  1.00  0.00    -0.271 C  
HETATM   25  C   UNL     1      -7.746  17.325  67.051  1.00  0.00    -0.227 C  
HETATM   26  C   UNL     1      -7.962  18.617  66.231  1.00  0.00    -0.276 C  
HETATM   27  C   UNL     1      -8.051  20.010  66.818  1.00  0.00    -0.356 C  
HETATM   28  C   UNL     1      -9.316  19.231  66.552  1.00  0.00    -0.396 C  
ENDBRANCH  13  15
ENDBRANCH   8  11
TORSDOF 2
ENDMDL
MODEL        2
REMARK 921   NORMALIZED FREE ENERGY PREDICTED BY IDOCK:   -7.66 KCAL/MOL
REMARK 922        TOTAL FREE ENERGY PREDICTED BY IDOCK:   -9.01 KCAL/MOL
REMARK 923 INTER-LIGAND FREE ENERGY PREDICTED BY IDOCK:   -8.60 KCAL/MOL
REMARK 924 INTRA-LIGAND FREE ENERGY PREDICTED BY IDOCK:   -0.41 KCAL/MOL
REMARK 927      BINDING AFFINITY PREDICTED BY RF-SCORE:    0.00 PKD
ROOT
HETATM    1  F   UNL     1     -10.245  18.450  69.413  1.00  0.00    -0.353 F  
HETATM    2  C   UNL     1     -10.331  17.836  68.200  1.00  0.00    -0.391 C  
HETATM    3  C   UNL     1     -10.784  16.398  68.282  1.00  0.00    -0.337 A  
HETATM    4  F   UNL     1     -11.159  18.606  67.445  1.00  0.00    -0.460 F  
HETATM    5  F   UNL     1      -9.094  17.950  67.638  1.00  0.00    -0.243 F  
HETATM    6  C   UNL     1     -11.094  15.811  69.514  1.00  0.00    -0.306 A  
HETATM    7  C   UNL     1     -11.403  14.452  69.587  1.00  0.00    -0.309 A  
HETATM    8  C   UNL     1     -11.407  13.651  68.434  1.00  0.00    -0.329 A  
HETATM    9  C   UNL     1     -11.176  14.251  67.191  1.00  0.00    -0.333 A  
HETATM   10  C   UNL     1     -10.863  15.615  67.119  1.00  0.00    -0.297 A  
ENDROOT
BRANCH   8  11
HETATM   11  C   UNL     1     -11.601  12.183  68.629  1.00  0.00    -0.321 C  
HETATM   12  O   UNL     1     -12.158  11.532  67.745  1.00  0.00    -0.626 OA 
HETATM   13  N   UNL     1     -11.174  11.629  69.817  1.00  0.00    -0.470 N  
HETATM   14  H   UNL     1     -10.712  12.200  70.525  1.00  0.00     0.000 HD 
BRANCH  13  15
HETATM   15  N   UNL     1     -11.389  10.269  70.027  1.00  0.00    -0.281 N  
HETATM   16  C   UNL     1     -12.108   9.852  71.123  1.00  0.00    -0.374 C  
HETATM   17  C   UNL     1     -11.946   8.355  71.242  1.00  0.00    -0.323 C  
HETATM   18  O   UNL     1     -12.714  10.565  71.911  1.00  0.00    -0.419 OA 
HETATM   19  C   UNL     1     -10.889   8.002  70.149  1.00  0.00    -0.242 C  
HETATM   20  C   UNL     1      -9.658   7.318  70.805  1.00  0.00    -0.171 C  
HETATM   21  C   UNL     1     -10.501   9.327  69.552  1.00  0.00    -0.220 C  
HETATM   22  O   UNL     1      -9.510   9.500  68.859  1.00  0.00    -0.150 OA 
HETATM   23  C   UNL     1      -9.150   8.284  71.881  1.00  0.00    -0.259 C  
HETATM   24  C   UNL     1     -10.059   8.586  72.827  1.00  0.00    -0.168 C  
HETATM   25  C   UNL     1     -11.409   7.900  72.636  1.00  0.00    -0.468 C  
HETATM   26  C   UNL     1     -11.231   6.370  72.517  1.00  0.00    -0.307 C  
HETATM   27  C   UNL     1      -9.964   5.617  72.869  1.00  0.00    -0.196 C  
HETATM   28  C   UNL     1     -10.211   6.035  71.440  1.00  0.00    -0.253 C  
ENDBRANCH  13  15
ENDBRANCH   8  11
TORSDOF 2
ENDMDL
MODEL        3
REMARK 921   NORMALIZED FREE ENERGY PREDICTED BY IDOCK:   -7.59 KCAL/MOL
REMARK 922        TOTAL FREE ENERGY PREDICTED BY IDOCK:   -8.93 KCAL/MOL
REMARK 923 INTER-LIGAND FREE ENERGY PREDICTED BY IDOCK:   -8.60 KCAL/MOL
REMARK 924 INTRA-LIGAND FREE ENERGY PREDICTED BY IDOCK:   -0.33 KCAL/MOL
REMARK 927      BINDING AFFINITY PREDICTED BY RF-SCORE:    0.00 PKD
ROOT
HETATM    1  F   UNL     1     -11.849  13.095  64.448  1.00  0.00    -0.355 F  
HETATM    2  C   UNL     1     -12.036  13.854  65.563  1.00  0.00    -0.407 C  
HETATM    3  C   UNL     1     -11.801  13.104  66.852  1.00  0.00    -0.444 A  
HETATM    4  F   UNL     1     -11.220  14.934  65.427  1.00  0.00    -0.318 F  
HETATM    5  F   UNL     1     -13.310  14.333  65.477  1.00  0.00    -0.520 F  
HETATM    6  C   UNL     1     -11.408  11.761  66.840  1.00  0.00    -0.386 A  
HETATM    7  C   UNL     1     -11.302  11.048  68.035  1.00  0.00    -0.374 A  
HETATM    8  C   UNL     1     -11.589  11.660  69.266  1.00  0.00    -0.385 A  
HETATM    9  C   UNL     1     -11.905  13.023  69.288  1.00  0.00    -0.370 A  
HETATM   10  C   UNL     1     -12.014  13.737  68.088  1.00  0.00    -0.394 A  
ENDROOT
BRANCH   8  11
HETATM   11  C   UNL     1     -11.595  10.782  70.474  1.00  0.00    -0.330 C  
HETATM   12  O   UNL     1     -12.296  11.095  71.436  1.00  0.00    -0.314 OA 
HETATM   13  N   UNL     1     -10.779   9.670  70.466  1.00  0.00    -0.287 N  
HETATM   14  H   UNL     1     -10.216   9.440  69.648  1.00  0.00     0.000 HD 
BRANCH  13  15
HETATM   15  N   UNL     1     -10.745   8.868  71.604  1.00  0.00    -0.321 N  
HETATM   16  C   UNL     1      -9.537   8.562  72.188  1.00  0.00    -0.312 C  
HETATM   17  C   UNL     1      -9.777   7.478  73.211  1.00  0.00    -0.326 C  
HETATM   18  O   UNL     1      -8.446   9.026  71.889  1.00  0.00    -0.363 OA 
HETATM   19  C   UNL     1     -11.276   7.091  73.005  1.00  0.00    -0.242 C  
HETATM   20  C   UNL     1     -11.388   5.581  72.651  1.00  0.00    -0.346 C  
HETATM   21  C   UNL     1     -11.733   7.939  71.850  1.00  0.00    -0.297 C  
HETATM   22  O   UNL     1     -12.758   7.735  71.216  1.00  0.00    -0.310 OA 
HETATM   23  C   UNL     1     -10.507   5.361  71.417  1.00  0.00    -0.294 C  
HETATM   24  C   UNL     1      -9.214   5.690  71.595  1.00  0.00    -0.157 C  
HETATM   25  C   UNL     1      -8.890   6.213  72.992  1.00  0.00    -0.124 C  
HETATM   26  C   UNL     1      -9.351   5.207  74.070  1.00  0.00    -0.128 C  
HETATM   27  C   UNL     1      -9.757   3.772  73.798  1.00  0.00    -0.141 C  
HETATM   28  C   UNL     1     -10.815   4.847  73.870  1.00  0.00    -0.355 C  
ENDBRANCH  13  15
ENDBRANCH   8  11
TORSDOF 2
ENDMDL
MODEL        4
REMARK 921   NORMALIZED FREE ENERGY PREDICTED BY IDOCK:   -7.59 KCAL/MOL
REMARK 922        TOTAL FREE ENERGY PREDICTED BY IDOCK:   -8.93 KCAL/MOL
REMARK 923 INTER-LIGAND FREE ENERGY PREDICTED BY IDOCK:   -8.44 KCAL/MOL
REMARK 924 INTRA-LIGAND FREE ENERGY PREDICTED BY IDOCK:   -0.49 KCAL/MOL
REMARK 927      BINDING AFFINITY PREDICTED BY RF-SCORE:    0.00 PKD
ROOT
HETATM    1  F   UNL     1     -13.608  10.838  72.530  1.00  0.00    -0.405 F  
HETATM    2  C   UNL     1     -12.878  10.400  71.467  1.00  0.00    -0.464 C  
HETATM    3  C   UNL     1     -12.260  11.514  70.657  1.00  0.00    -0.473 A  
HETATM    4  F   UNL     1     -11.953   9.541  71.972  1.00  0.00    -0.428 F  
HETATM    5  F   UNL     1     -13.729   9.639  70.722  1.00  0.00    -0.363 F  
HETATM    6  C   UNL     1     -12.436  12.853  71.024  1.00  0.00    -0.374 A  
HETATM    7  C   UNL     1     -11.955  13.876  70.206  1.00  0.00    -0.401 A  
HETATM    8  C   UNL     1     -11.290  13.584  69.005  1.00  0.00    -0.336 A  
HETATM    9  C   UNL     1     -11.042  12.247  68.674  1.00  0.00    -0.291 A  
HETATM   10  C   UNL     1     -11.529  11.221  69.494  1.00  0.00    -0.376 A  
ENDROOT
BRANCH   8  11
HETATM   11  C   UNL     1     -10.944  14.740  68.124  1.00  0.00    -0.268 C  
HETATM   12  O   UNL     1     -11.624  14.950  67.120  1.00  0.00    -0.362 OA 
HETATM   13  N   UNL     1      -9.845  15.502  68.463  1.00  0.00    -0.199 N  
HETATM   14  H   UNL     1      -9.308  15.299  69.306  1.00  0.00     0.000 HD 
BRANCH  13  15
HETATM   15  N   UNL     1      -9.488  16.555  67.625  1.00  0.00    -0.224 N  
HETATM   16  C   UNL     1      -8.407  16.424  66.786  1.00  0.00    -0.250 C  
HETATM   17  C   UNL     1      -8.094  17.786  66.214  1.00  0.00    -0.269 C  
HETATM   18  O   UNL     1      -7.760  15.405  66.585  1.00  0.00    -0.116 OA 
HETATM   19  C   UNL     1      -9.053  18.747  66.985  1.00  0.00    -0.299 C  
HETATM   20  C   UNL     1      -8.227  19.828  67.737  1.00  0.00    -0.340 C  
HETATM   21  C   UNL     1      -9.776  17.861  67.962  1.00  0.00    -0.303 C  
HETATM   22  O   UNL     1     -10.409  18.275  68.922  1.00  0.00    -0.345 OA 
HETATM   23  C   UNL     1      -7.243  19.071  68.635  1.00  0.00    -0.351 C  
HETATM   24  C   UNL     1      -6.412  18.245  67.971  1.00  0.00    -0.193 C  
HETATM   25  C   UNL     1      -6.619  18.236  66.459  1.00  0.00    -0.236 C  
HETATM   26  C   UNL     1      -6.536  19.669  65.889  1.00  0.00    -0.252 C  
HETATM   27  C   UNL     1      -6.000  20.870  66.641  1.00  0.00    -0.301 C  
HETATM   28  C   UNL     1      -7.484  20.595  66.635  1.00  0.00    -0.222 C  
ENDBRANCH  13  15
ENDBRANCH   8  11
TORSDOF 2
ENDMDL
MODEL        5
REMARK 921   NORMALIZED FREE ENERGY PREDICTED BY IDOCK:   -7.58 KCAL/MOL
REMARK 922        TOTAL FREE ENERGY PREDICTED BY IDOCK:   -8.92 KCAL/MOL
REMARK 923 INTER-LIGAND FREE ENERGY PREDICTED BY IDOCK:   -8.47 KCAL/MOL
REMARK 924 INTRA-LIGAND FREE ENERGY PREDICTED BY IDOCK:   -0.44 KCAL/MOL
REMARK 927      BINDING AFFINITY PREDICTED BY RF-SCORE:    0.00 PKD
ROOT
HETATM    1  F   UNL     1     -11.509  15.835  65.406  1.00  0.00    -0.233 F  
HETATM    2  C   UNL     1     -11.425  14.503  65.132  1.00  0.00    -0.368 C  
HETATM    3  C   UNL     1     -11.599  13.624  66.347  1.00  0.00    -0.375 A  
HETATM    4  F   UNL     1     -12.353  14.257  64.168  1.00  0.00    -0.476 F  
HETATM    5  F   UNL     1     -10.211  14.322  64.539  1.00  0.00    -0.443 F  
HETATM    6  C   UNL     1     -11.841  14.180  67.608  1.00  0.00    -0.427 A  
HETATM    7  C   UNL     1     -11.887  13.364  68.739  1.00  0.00    -0.386 A  
HETATM    8  C   UNL     1     -11.690  11.978  68.636  1.00  0.00    -0.380 A  
HETATM    9  C   UNL     1     -11.527  11.409  67.368  1.00  0.00    -0.328 A  
HETATM   10  C   UNL     1     -11.477  12.229  66.233  1.00  0.00    -0.435 A  
ENDROOT
BRANCH   8  11
HETATM   11  C   UNL     1     -11.608  11.208  69.913  1.00  0.00    -0.337 C  
HETATM   12  O   UNL     1     -12.061  11.709  70.942  1.00  0.00    -0.341 OA 
HETATM   13  N   UNL     1     -10.991   9.975  69.883  1.00  0.00    -0.273 N  
HETATM   14  H   UNL     1     -10.632   9.591  69.009  1.00  0.00     0.000 HD 
BRANCH  13  15
HETATM   15  N   UNL     1     -10.871   9.267  71.076  1.00  0.00    -0.286 N  
HETATM   16  C   UNL     1      -9.623   8.962  71.567  1.00  0.00    -0.292 C  
HETATM   17  C   UNL     1      -9.796   7.975  72.696  1.00  0.00    -0.347 C  
HETATM   18  O   UNL     1      -8.551   9.358  71.129  1.00  0.00    -0.297 OA 
HETATM   19  C   UNL     1     -11.318   7.631  72.665  1.00  0.00    -0.423 C  
HETATM   20  C   UNL     1     -11.511   6.103  72.452  1.00  0.00    -0.349 C  
HETATM   21  C   UNL     1     -11.859   8.400  71.491  1.00  0.00    -0.297 C  
HETATM   22  O   UNL     1     -12.946   8.185  70.976  1.00  0.00    -0.120 OA 
HETATM   23  C   UNL     1     -10.761   5.750  71.163  1.00  0.00    -0.327 C  
HETATM   24  C   UNL     1      -9.448   6.042  71.190  1.00  0.00    -0.182 C  
HETATM   25  C   UNL     1      -8.973   6.663  72.502  1.00  0.00    -0.136 C  
HETATM   26  C   UNL     1      -9.359   5.766  73.699  1.00  0.00    -0.137 C  
HETATM   27  C   UNL     1      -9.833   4.331  73.588  1.00  0.00    -0.156 C  
HETATM   28  C   UNL     1     -10.845   5.448  73.669  1.00  0.00    -0.321 C  
ENDBRANCH  13  15
ENDBRANCH   8  11
TORSDOF 2
ENDMDL
MODEL        6
REMARK 921   NORMALIZED FREE ENERGY PREDICTED BY IDOCK:   -7.58 KCAL/MOL
REMARK 922        TOTAL FREE ENERGY PREDICTED BY IDOCK:   -8.91 KCAL/MOL
REMARK 923 INTER-LIGAND FREE ENERGY PREDICTED BY IDOCK:   -8.46 KCAL/MOL
REMARK 924 INTRA-LIGAND FREE ENERGY PREDICTED BY IDOCK:   -0.45 KCAL/MOL
REMARK 927      BINDING AFFINITY PREDICTED BY RF-SCORE:    0.00 PKD
ROOT
HETATM    1  F   UNL     1      -9.004  17.913  67.442  1.00  0.00    -0.238 F  
HETATM    2  C   UNL     1     -10.186  17.723  68.093  1.00  0.00    -0.382 C  
HETATM    3  C   UNL     1     -10.466  16.278  68.428  1.00  0.00    -0.282 A  
HETATM    4  F   UNL     1     -10.142  18.519  69.194  1.00  0.00    -0.384 F  
HETATM    5  F   UNL     1     -11.144  18.255  67.282  1.00  0.00    -0.371 F  
HETATM    6  C   UNL     1      -9.551  15.272  68.096  1.00  0.00    -0.204 A  
HETATM    7  C   UNL     1      -9.872  13.931  68.310  1.00  0.00    -0.231 A  
HETATM    8  C   UNL     1     -11.112  13.566  68.856  1.00  0.00    -0.305 A  
HETATM    9  C   UNL     1     -11.997  14.571  69.263  1.00  0.00    -0.355 A  
HETATM   10  C   UNL     1     -11.675  15.917  69.045  1.00  0.00    -0.377 A  
ENDROOT
BRANCH   8  11
HETATM   11  C   UNL     1     -11.426  12.107  68.909  1.00  0.00    -0.297 C  
HETATM   12  O   UNL     1     -12.056  11.597  67.983  1.00  0.00    -0.597 OA 
HETATM   13  N   UNL     1     -11.021  11.401  70.023  1.00  0.00    -0.454 N  
HETATM   14  H   UNL     1     -10.496  11.857  70.769  1.00  0.00     0.000 HD 
BRANCH  13  15
HETATM   15  N   UNL     1     -11.346  10.049  70.102  1.00  0.00    -0.274 N  
HETATM   16  C   UNL     1     -12.195   9.607  71.091  1.00  0.00    -0.350 C  
HETATM   17  C   UNL     1     -12.147   8.098  71.104  1.00  0.00    -0.281 C  
HETATM   18  O   UNL     1     -12.826  10.304  71.874  1.00  0.00    -0.425 OA 
HETATM   19  C   UNL     1     -11.014   7.748  70.088  1.00  0.00    -0.246 C  
HETATM   20  C   UNL     1      -9.901   6.928  70.799  1.00  0.00    -0.190 C  
HETATM   21  C   UNL     1     -10.481   9.081  69.638  1.00  0.00    -0.222 C  
HETATM   22  O   UNL     1      -9.417   9.230  69.055  1.00  0.00    -0.152 OA 
HETATM   23  C   UNL     1      -9.437   7.773  71.990  1.00  0.00    -0.212 C  
HETATM   24  C   UNL     1     -10.412   8.071  72.869  1.00  0.00    -0.402 C  
HETATM   25  C   UNL     1     -11.780   7.504  72.500  1.00  0.00    -0.310 C  
HETATM   26  C   UNL     1     -11.694   5.977  72.277  1.00  0.00    -0.338 C  
HETATM   27  C   UNL     1     -10.521   5.108  72.683  1.00  0.00    -0.262 C  
HETATM   28  C   UNL     1     -10.599   5.647  71.275  1.00  0.00    -0.321 C  
ENDBRANCH  13  15
ENDBRANCH   8  11
TORSDOF 2
ENDMDL
MODEL        7
REMARK 921   NORMALIZED FREE ENERGY PREDICTED BY IDOCK:   -7.57 KCAL/MOL
REMARK 922        TOTAL FREE ENERGY PREDICTED BY IDOCK:   -8.90 KCAL/MOL
REMARK 923 INTER-LIGAND FREE ENERGY PREDICTED BY IDOCK:   -8.73 KCAL/MOL
REMARK 924 INTRA-LIGAND FREE ENERGY PREDICTED BY IDOCK:   -0.17 KCAL/MOL
REMARK 927      BINDING AFFINITY PREDICTED BY RF-SCORE:    0.00 PKD
ROOT
HETATM    1  F   UNL     1     -12.499   8.125  70.885  1.00  0.00    -0.271 F  
HETATM    2  C   UNL     1     -12.951   9.239  71.525  1.00  0.00    -0.359 C  
HETATM    3  C   UNL     1     -12.562  10.528  70.841  1.00  0.00    -0.493 A  
HETATM    4  F   UNL     1     -14.297   9.090  71.638  1.00  0.00    -0.395 F  
HETATM    5  F   UNL     1     -12.456   9.165  72.793  1.00  0.00    -0.371 F  
HETATM    6  C   UNL     1     -11.825  10.518  69.652  1.00  0.00    -0.306 A  
HETATM    7  C   UNL     1     -11.377  11.714  69.091  1.00  0.00    -0.345 A  
HETATM    8  C   UNL     1     -11.653  12.945  69.706  1.00  0.00    -0.288 A  
HETATM    9  C   UNL     1     -12.457  12.966  70.852  1.00  0.00    -0.383 A  
HETATM   10  C   UNL     1     -12.904  11.764  71.415  1.00  0.00    -0.440 A  
ENDROOT
BRANCH   8  11
HETATM   11  C   UNL     1     -11.008  14.157  69.118  1.00  0.00    -0.251 C  
HETATM   12  O   UNL     1     -11.467  15.268  69.386  1.00  0.00    -0.274 OA 
HETATM   13  N   UNL     1      -9.941  13.969  68.266  1.00  0.00    -0.231 N  
HETATM   14  H   UNL     1      -9.585  13.033  68.071  1.00  0.00     0.000 HD 
BRANCH  13  15
HETATM   15  N   UNL     1      -9.359  15.089  67.678  1.00  0.00    -0.192 N  
HETATM   16  C   UNL     1      -8.499  15.876  68.409  1.00  0.00    -0.176 C  
HETATM   17  C   UNL     1      -8.248  17.142  67.625  1.00  0.00    -0.194 C  
HETATM   18  O   UNL     1      -8.066  15.637  69.527  1.00  0.00    -0.236 OA 
HETATM   19  C   UNL     1      -9.227  17.036  66.414  1.00  0.00    -0.298 C  
HETATM   20  C   UNL     1     -10.195  18.252  66.407  1.00  0.00    -0.417 C  
HETATM   21  C   UNL     1      -9.986  15.758  66.648  1.00  0.00    -0.257 C  
HETATM   22  O   UNL     1     -11.022  15.464  66.071  1.00  0.00    -0.325 OA 
HETATM   23  C   UNL     1     -10.886  18.260  67.775  1.00  0.00    -0.257 C  
HETATM   24  C   UNL     1     -10.044  18.356  68.820  1.00  0.00    -0.393 C  
HETATM   25  C   UNL     1      -8.571  18.441  68.428  1.00  0.00    -0.345 C  
HETATM   26  C   UNL     1      -8.339  19.598  67.431  1.00  0.00    -0.335 C  
HETATM   27  C   UNL     1      -9.338  20.698  67.134  1.00  0.00    -0.464 C  
HETATM   28  C   UNL     1      -9.286  19.478  66.247  1.00  0.00    -0.431 C  
ENDBRANCH  13  15
ENDBRANCH   8  11
TORSDOF 2
ENDMDL
MODEL        8
REMARK 921   NORMALIZED FREE ENERGY PREDICTED BY IDOCK:   -7.53 KCAL/MOL
REMARK 922        TOTAL FREE ENERGY PREDICTED BY IDOCK:   -8.86 KCAL/MOL
REMARK 923 INTER-LIGAND FREE ENERGY PREDICTED BY IDOCK:   -8.37 KCAL/MOL
REMARK 924 INTRA-LIGAND FREE ENERGY PREDICTED BY IDOCK:   -0.49 KCAL/MOL
REMARK 927      BINDING AFFINITY PREDICTED BY RF-SCORE:    0.00 PKD
ROOT
HETATM    1  F   UNL     1     -10.538   6.765  71.496  1.00  0.00    -0.226 F  
HETATM    2  C   UNL     1     -11.319   7.784  71.951  1.00  0.00    -0.270 C  
HETATM    3  C   UNL     1     -11.464   8.920  70.966  1.00  0.00    -0.351 A  
HETATM    4  F   UNL     1     -12.512   7.225  72.288  1.00  0.00    -0.295 F  
HETATM    5  F   UNL     1     -10.750   8.193  73.121  1.00  0.00    -0.402 F  
HETATM    6  C   UNL     1     -10.850   8.865  69.710  1.00  0.00    -0.207 A  
HETATM    7  C   UNL     1     -10.899   9.967  68.855  1.00  0.00    -0.250 A  
HETATM    8  C   UNL     1     -11.560  11.145  69.236  1.00  0.00    -0.388 A  
HETATM    9  C   UNL     1     -12.242  11.176  70.457  1.00  0.00    -0.475 A  
HETATM   10  C   UNL     1     -12.190  10.070  71.316  1.00  0.00    -0.498 A  
ENDROOT
BRANCH   8  11
HETATM   11  C   UNL     1     -11.432  12.320  68.322  1.00  0.00    -0.315 C  
HETATM   12  O   UNL     1     -12.033  12.308  67.248  1.00  0.00    -0.546 OA 
HETATM   13  N   UNL     1     -10.612  13.356  68.715  1.00  0.00    -0.326 N  
HETATM   14  H   UNL     1     -10.134  13.332  69.616  1.00  0.00     0.000 HD 
BRANCH  13  15
HETATM   15  N   UNL     1     -10.452  14.437  67.852  1.00  0.00    -0.237 N  
HETATM   16  C   UNL     1      -9.263  14.608  67.183  1.00  0.00    -0.221 C  
HETATM   17  C   UNL     1      -9.277  15.979  66.551  1.00  0.00    -0.307 C  
HETATM   18  O   UNL     1      -8.323  13.825  67.158  1.00  0.00    -0.185 OA 
HETATM   19  C   UNL     1     -10.584  16.633  67.101  1.00  0.00    -0.264 C  
HETATM   20  C   UNL     1     -10.239  17.940  67.869  1.00  0.00    -0.375 C  
HETATM   21  C   UNL     1     -11.159  15.606  68.038  1.00  0.00    -0.335 C  
HETATM   22  O   UNL     1     -12.027  15.846  68.864  1.00  0.00    -0.370 OA 
HETATM   23  C   UNL     1      -9.228  17.548  68.953  1.00  0.00    -0.153 C  
HETATM   24  C   UNL     1      -8.099  16.988  68.480  1.00  0.00    -0.251 C  
HETATM   25  C   UNL     1      -8.056  16.861  66.959  1.00  0.00    -0.228 C  
HETATM   26  C   UNL     1      -8.308  18.231  66.291  1.00  0.00    -0.230 C  
HETATM   27  C   UNL     1      -8.272  19.564  67.010  1.00  0.00    -0.308 C  
HETATM   28  C   UNL     1      -9.590  18.854  66.821  1.00  0.00    -0.354 C  
ENDBRANCH  13  15
ENDBRANCH   8  11
TORSDOF 2
ENDMDL
MODEL        9
REMARK 921   NORMALIZED FREE ENERGY PREDICTED BY IDOCK:   -7.52 KCAL/MOL
REMARK 922        TOTAL FREE ENERGY PREDICTED BY IDOCK:   -8.84 KCAL/MOL
REMARK 923 INTER-LIGAND FREE ENERGY PREDICTED BY IDOCK:   -8.35 KCAL/MOL
REMARK 924 INTRA-LIGAND FREE ENERGY PREDICTED BY IDOCK:   -0.49 KCAL/MOL
REMARK 927      BINDING AFFINITY PREDICTED BY RF-SCORE:    0.00 PKD
ROOT
HETATM    1  F   UNL     1     -12.437  15.959  69.889  1.00  0.00    -0.363 F  
HETATM    2  C   UNL     1     -13.064  15.415  70.969  1.00  0.00    -0.501 C  
HETATM    3  C   UNL     1     -12.861  13.924  71.098  1.00  0.00    -0.423 A  
HETATM    4  F   UNL     1     -12.614  16.103  72.053  1.00  0.00    -0.480 F  
HETATM    5  F   UNL     1     -14.381  15.741  70.836  1.00  0.00    -0.323 F  
HETATM    6  C   UNL     1     -12.074  13.223  70.178  1.00  0.00    -0.403 A  
HETATM    7  C   UNL     1     -11.986  11.832  70.243  1.00  0.00    -0.429 A  
HETATM    8  C   UNL     1     -12.682  11.112  71.227  1.00  0.00    -0.531 A  
HETATM    9  C   UNL     1     -13.406  11.815  72.197  1.00  0.00    -0.334 A  
HETATM   10  C   UNL     1     -13.496  13.211  72.128  1.00  0.00    -0.653 A  
ENDROOT
BRANCH   8  11
HETATM   11  C   UNL     1     -12.648   9.622  71.128  1.00  0.00    -0.322 C  
HETATM   12  O   UNL     1     -13.705   8.995  71.196  1.00  0.00    -0.255 OA 
HETATM   13  N   UNL     1     -11.418   9.013  70.999  1.00  0.00    -0.280 N  
HETATM   14  H   UNL     1     -10.563   9.567  70.941  1.00  0.00     0.000 HD 
BRANCH  13  15
HETATM   15  N   UNL     1     -11.371   7.622  70.949  1.00  0.00    -0.273 N  
HETATM   16  C   UNL     1     -11.052   6.908  72.080  1.00  0.00    -0.245 C  
HETATM   17  C   UNL     1     -10.810   5.475  71.672  1.00  0.00    -0.271 C  
HETATM   18  O   UNL     1     -10.916   7.357  73.210  1.00  0.00    -0.376 OA 
HETATM   19  C   UNL     1     -10.871   5.512  70.112  1.00  0.00    -0.299 C  
HETATM   20  C   UNL     1      -9.529   5.000  69.518  1.00  0.00    -0.207 C  
HETATM   21  C   UNL     1     -11.080   6.962  69.773  1.00  0.00    -0.271 C  
HETATM   22  O   UNL     1     -10.911   7.435  68.659  1.00  0.00    -0.150 OA 
HETATM   23  C   UNL     1      -8.428   5.877  70.124  1.00  0.00    -0.126 C  
HETATM   24  C   UNL     1      -8.371   5.842  71.468  1.00  0.00    -0.127 C  
HETATM   25  C   UNL     1      -9.414   4.934  72.114  1.00  0.00    -0.182 C  
HETATM   26  C   UNL     1      -9.332   3.507  71.526  1.00  0.00    -0.209 C  
HETATM   27  C   UNL     1      -8.185   2.982  70.686  1.00  0.00    -0.073 C  
HETATM   28  C   UNL     1      -9.407   3.552  70.008  1.00  0.00    -0.246 C  
ENDBRANCH  13  15
ENDBRANCH   8  11
TORSDOF 2
ENDMDL
MODEL       10
REMARK 921   NORMALIZED FREE ENERGY PREDICTED BY IDOCK:   -7.49 KCAL/MOL
REMARK 922        TOTAL FREE ENERGY PREDICTED BY IDOCK:   -8.81 KCAL/MOL
REMARK 923 INTER-LIGAND FREE ENERGY PREDICTED BY IDOCK:   -8.66 KCAL/MOL
REMARK 924 INTRA-LIGAND FREE ENERGY PREDICTED BY IDOCK:   -0.15 KCAL/MOL
REMARK 927      BINDING AFFINITY PREDICTED BY RF-SCORE:    0.00 PKD
ROOT
HETATM    1  F   UNL     1     -11.930  13.506  63.954  1.00  0.00    -0.432 F  
HETATM    2  C   UNL     1     -12.191  13.977  65.204  1.00  0.00    -0.436 C  
HETATM    3  C   UNL     1     -11.766  13.036  66.306  1.00  0.00    -0.440 A  
HETATM    4  F   UNL     1     -11.581  15.190  65.285  1.00  0.00    -0.344 F  
HETATM    5  F   UNL     1     -13.531  14.227  65.234  1.00  0.00    -0.357 F  
HETATM    6  C   UNL     1     -11.148  11.816  66.011  1.00  0.00    -0.363 A  
HETATM    7  C   UNL     1     -10.863  10.907  67.031  1.00  0.00    -0.323 A  
HETATM    8  C   UNL     1     -11.191  11.196  68.365  1.00  0.00    -0.325 A  
HETATM    9  C   UNL     1     -11.737  12.447  68.674  1.00  0.00    -0.372 A  
HETATM   10  C   UNL     1     -12.025  13.357  67.649  1.00  0.00    -0.362 A  
ENDROOT
BRANCH   8  11
HETATM   11  C   UNL     1     -10.986  10.105  69.365  1.00  0.00    -0.245 C  
HETATM   12  O   UNL     1     -10.756   8.964  68.965  1.00  0.00    -0.209 OA 
HETATM   13  N   UNL     1     -11.101  10.427  70.701  1.00  0.00    -0.406 N  
HETATM   14  H   UNL     1     -11.288  11.385  70.994  1.00  0.00     0.000 HD 
BRANCH  13  15
HETATM   15  N   UNL     1     -10.954   9.409  71.640  1.00  0.00    -0.366 N  
HETATM   16  C   UNL     1      -9.705   8.900  71.907  1.00  0.00    -0.279 C  
HETATM   17  C   UNL     1      -9.879   7.651  72.738  1.00  0.00    -0.283 C  
HETATM   18  O   UNL     1      -8.639   9.333  71.492  1.00  0.00    -0.320 OA 
HETATM   19  C   UNL     1     -11.424   7.428  72.761  1.00  0.00    -0.312 C  
HETATM   20  C   UNL     1     -11.766   6.035  72.162  1.00  0.00    -0.335 C  
HETATM   21  C   UNL     1     -11.982   8.526  71.898  1.00  0.00    -0.345 C  
HETATM   22  O   UNL     1     -13.119   8.532  71.451  1.00  0.00    -0.303 OA 
HETATM   23  C   UNL     1     -11.149   6.007  70.759  1.00  0.00    -0.355 C  
HETATM   24  C   UNL     1      -9.816   6.195  70.737  1.00  0.00    -0.220 C  
HETATM   25  C   UNL     1      -9.192   6.395  72.116  1.00  0.00    -0.140 C  
HETATM   26  C   UNL     1      -9.564   5.227  73.057  1.00  0.00    -0.156 C  
HETATM   27  C   UNL     1     -10.170   3.913  72.607  1.00  0.00    -0.235 C  
HETATM   28  C   UNL     1     -11.071   5.026  73.085  1.00  0.00    -0.395 C  
ENDBRANCH  13  15
ENDBRANCH   8  11
TORSDOF 2
ENDMDL
MODEL       11
REMARK 921   NORMALIZED FREE ENERGY PREDICTED BY IDOCK:   -7.48 KCAL/MOL
REMARK 922        TOTAL FREE ENERGY PREDICTED BY IDOCK:   -8.80 KCAL/MOL
REMARK 923 INTER-LIGAND FREE ENERGY PREDICTED BY IDOCK:   -8.36 KCAL/MOL
REMARK 924 INTRA-LIGAND FREE ENERGY PREDICTED BY IDOCK:   -0.44 KCAL/MOL
REMARK 927      BINDING AFFINITY PREDICTED BY RF-SCORE:    0.00 PKD
ROOT
HETATM    1  F   UNL     1     -10.095   7.269  68.600  1.00  0.00    -0.157 F  
HETATM    2  C   UNL     1     -10.528   8.087  69.599  1.00  0.00    -0.224 C  
HETATM    3  C   UNL     1     -10.902   9.472  69.127  1.00  0.00    -0.194 A  
HETATM    4  F   UNL     1     -11.563   7.439  70.197  1.00  0.00    -0.276 F  
HETATM    5  F   UNL     1      -9.521   8.115  70.518  1.00  0.00    -0.158 F  
HETATM    6  C   UNL     1     -10.812   9.819  67.774  1.00  0.00    -0.306 A  
HETATM    7  C   UNL     1     -11.052  11.132  67.367  1.00  0.00    -0.370 A  
HETATM    8  C   UNL     1     -11.384  12.125  68.301  1.00  0.00    -0.343 A  
HETATM    9  C   UNL     1     -11.553  11.766  69.643  1.00  0.00    -0.393 A  
HETATM   10  C   UNL     1     -11.308  10.448  70.051  1.00  0.00    -0.384 A  
ENDROOT
BRANCH   8  11
HETATM   11  C   UNL     1     -11.476  13.528  67.795  1.00  0.00    -0.315 C  
HETATM   12  O   UNL     1     -12.387  13.825  67.023  1.00  0.00    -0.378 OA 
HETATM   13  N   UNL     1     -10.505  14.421  68.196  1.00  0.00    -0.233 N  
HETATM   14  H   UNL     1      -9.768  14.139  68.841  1.00  0.00     0.000 HD 
BRANCH  13  15
HETATM   15  N   UNL     1     -10.556  15.720  67.696  1.00  0.00    -0.294 N  
HETATM   16  C   UNL     1      -9.862  16.041  66.553  1.00  0.00    -0.267 C  
HETATM   17  C   UNL     1      -9.875  17.544  66.407  1.00  0.00    -0.316 C  
HETATM   18  O   UNL     1      -9.273  15.262  65.816  1.00  0.00    -0.289 OA 
HETATM   19  C   UNL     1     -10.535  18.045  67.731  1.00  0.00    -0.421 C  
HETATM   20  C   UNL     1      -9.559  18.991  68.484  1.00  0.00    -0.442 C  
HETATM   21  C   UNL     1     -10.781  16.795  68.531  1.00  0.00    -0.358 C  
HETATM   22  O   UNL     1     -11.033  16.788  69.727  1.00  0.00    -0.293 OA 
HETATM   23  C   UNL     1      -8.263  18.200  68.689  1.00  0.00    -0.295 C  
HETATM   24  C   UNL     1      -7.690  17.771  67.549  1.00  0.00    -0.214 C  
HETATM   25  C   UNL     1      -8.448  18.165  66.284  1.00  0.00    -0.213 C  
HETATM   26  C   UNL     1      -8.678  19.692  66.240  1.00  0.00    -0.401 C  
HETATM   27  C   UNL     1      -7.977  20.699  67.131  1.00  0.00    -0.323 C  
HETATM   28  C   UNL     1      -9.335  20.169  67.526  1.00  0.00    -0.507 C  
ENDBRANCH  13  15
ENDBRANCH   8  11
TORSDOF 2
ENDMDL
MODEL       12
REMARK 921   NORMALIZED FREE ENERGY PREDICTED BY IDOCK:   -7.43 KCAL/MOL
REMARK 922        TOTAL FREE ENERGY PREDICTED BY IDOCK:   -8.75 KCAL/MOL
REMARK 923 INTER-LIGAND FREE ENERGY PREDICTED BY IDOCK:   -8.36 KCAL/MOL
REMARK 924 INTRA-LIGAND FREE ENERGY PREDICTED BY IDOCK:   -0.39 KCAL/MOL
REMARK 927      BINDING AFFINITY PREDICTED BY RF-SCORE:    0.00 PKD
ROOT
HETATM    1  F   UNL     1     -10.807   6.892  71.353  1.00  0.00    -0.236 F  
HETATM    2  C   UNL     1     -11.790   7.583  71.994  1.00  0.00    -0.294 C  
HETATM    3  C   UNL     1     -11.994   8.980  71.457  1.00  0.00    -0.414 A  
HETATM    4  F   UNL     1     -12.910   6.817  71.905  1.00  0.00    -0.376 F  
HETATM    5  F   UNL     1     -11.442   7.589  73.312  1.00  0.00    -0.357 F  
HETATM    6  C   UNL     1     -11.231   9.458  70.387  1.00  0.00    -0.309 A  
HETATM    7  C   UNL     1     -11.351  10.786  69.974  1.00  0.00    -0.397 A  
HETATM    8  C   UNL     1     -12.233  11.664  70.623  1.00  0.00    -0.461 A  
HETATM    9  C   UNL     1     -13.056  11.169  71.641  1.00  0.00    -0.529 A  
HETATM   10  C   UNL     1     -12.932   9.837  72.056  1.00  0.00    -0.515 A  
ENDROOT
BRANCH   8  11
HETATM   11  C   UNL     1     -12.186  13.099  70.212  1.00  0.00    -0.306 C  
HETATM   12  O   UNL     1     -12.949  13.900  70.750  1.00  0.00    -0.283 OA 
HETATM   13  N   UNL     1     -11.303  13.454  69.214  1.00  0.00    -0.324 N  
HETATM   14  H   UNL     1     -10.681  12.763  68.794  1.00  0.00     0.000 HD 
BRANCH  13  15
HETATM   15  N   UNL     1     -11.280  14.781  68.793  1.00  0.00    -0.257 N  
HETATM   16  C   UNL     1     -11.482  15.081  67.466  1.00  0.00    -0.328 C  
HETATM   17  C   UNL     1     -11.134  16.536  67.260  1.00  0.00     0.019 C  
HETATM   18  O   UNL     1     -11.814  14.300  66.586  1.00  0.00    -0.390 OA 
HETATM   19  C   UNL     1     -10.540  16.979  68.635  1.00  0.00    -0.362 C  
HETATM   20  C   UNL     1      -9.088  17.499  68.441  1.00  0.00    -0.276 C  
HETATM   21  C   UNL     1     -10.546  15.731  69.473  1.00  0.00    -0.272 C  
HETATM   22  O   UNL     1      -9.915  15.602  70.512  1.00  0.00     0.014 OA 
HETATM   23  C   UNL     1      -8.313  16.367  67.757  1.00  0.00    -0.172 C  
HETATM   24  C   UNL     1      -8.821  15.987  66.570  1.00  0.00    -0.340 C  
HETATM   25  C   UNL     1     -10.064  16.764  66.146  1.00  0.00    -0.360 C  
HETATM   26  C   UNL     1      -9.787  18.284  66.161  1.00  0.00    -0.264 C  
HETATM   27  C   UNL     1      -8.411  18.912  66.252  1.00  0.00    -0.274 C  
HETATM   28  C   UNL     1      -9.223  18.710  67.508  1.00  0.00    -0.295 C  
ENDBRANCH  13  15
ENDBRANCH   8  11
TORSDOF 2
ENDMDL
MODEL       13
REMARK 921   NORMALIZED FREE ENERGY PREDICTED BY IDOCK:   -7.38 KCAL/MOL
REMARK 922        TOTAL FREE ENERGY PREDICTED BY IDOCK:   -8.69 KCAL/MOL
REMARK 923 INTER-LIGAND FREE ENERGY PREDICTED BY IDOCK:   -8.19 KCAL/MOL
REMARK 924 INTRA-LIGAND FREE ENERGY PREDICTED BY IDOCK:   -0.50 KCAL/MOL
REMARK 927      BINDING AFFINITY PREDICTED BY RF-SCORE:    0.00 PKD
ROOT
HETATM    1  F   UNL     1     -14.206  15.269  72.929  1.00  0.00    -0.488 F  
HETATM    2  C   UNL     1     -13.540  15.242  71.741  1.00  0.00    -0.483 C  
HETATM    3  C   UNL     1     -13.091  13.860  71.331  1.00  0.00    -0.413 A  
HETATM    4  F   UNL     1     -14.370  15.817  70.830  1.00  0.00    -0.323 F  
HETATM    5  F   UNL     1     -12.489  16.098  71.886  1.00  0.00    -0.471 F  
HETATM    6  C   UNL     1     -13.379  12.745  72.126  1.00  0.00    -0.593 A  
HETATM    7  C   UNL     1     -12.862  11.492  71.794  1.00  0.00    -0.441 A  
HETATM    8  C   UNL     1     -12.047  11.326  70.663  1.00  0.00    -0.480 A  
HETATM    9  C   UNL     1     -11.822  12.422  69.822  1.00  0.00    -0.387 A  
HETATM   10  C   UNL     1     -12.339  13.680  70.159  1.00  0.00    -0.372 A  
ENDROOT
BRANCH   8  11
HETATM   11  C   UNL     1     -11.419   9.985  70.471  1.00  0.00    -0.330 C  
HETATM   12  O   UNL     1     -11.102   9.631  69.335  1.00  0.00    -0.217 OA 
HETATM   13  N   UNL     1     -11.256   9.185  71.582  1.00  0.00    -0.357 N  
HETATM   14  H   UNL     1     -11.526   9.514  72.508  1.00  0.00     0.000 HD 
BRANCH  13  15
HETATM   15  N   UNL     1     -10.711   7.915  71.408  1.00  0.00    -0.222 N  
HETATM   16  C   UNL     1     -11.504   6.803  71.572  1.00  0.00    -0.287 C  
HETATM   17  C   UNL     1     -10.604   5.590  71.595  1.00  0.00    -0.294 C  
HETATM   18  O   UNL     1     -12.715   6.791  71.742  1.00  0.00    -0.362 OA 
HETATM   19  C   UNL     1      -9.163   6.191  71.591  1.00  0.00    -0.150 C  
HETATM   20  C   UNL     1      -8.388   5.717  72.852  1.00  0.00    -0.119 C  
HETATM   21  C   UNL     1      -9.370   7.680  71.627  1.00  0.00    -0.138 C  
HETATM   22  O   UNL     1      -8.494   8.485  71.905  1.00  0.00    -0.158 OA 
HETATM   23  C   UNL     1      -9.237   6.130  74.059  1.00  0.00    -0.140 C  
HETATM   24  C   UNL     1     -10.478   5.610  74.067  1.00  0.00    -0.297 C  
HETATM   25  C   UNL     1     -10.785   4.711  72.872  1.00  0.00    -0.295 C  
HETATM   26  C   UNL     1      -9.724   3.595  72.744  1.00  0.00    -0.194 C  
HETATM   27  C   UNL     1      -8.721   3.227  73.819  1.00  0.00    -0.076 C  
HETATM   28  C   UNL     1      -8.325   4.189  72.726  1.00  0.00    -0.097 C  
ENDBRANCH  13  15
ENDBRANCH   8  11
TORSDOF 2
ENDMDL
MODEL       14
REMARK 921   NORMALIZED FREE ENERGY PREDICTED BY IDOCK:   -7.35 KCAL/MOL
REMARK 922        TOTAL FREE ENERGY PREDICTED BY IDOCK:   -8.66 KCAL/MOL
REMARK 923 INTER-LIGAND FREE ENERGY PREDICTED BY IDOCK:   -8.21 KCAL/MOL
REMARK 924 INTRA-LIGAND FREE ENERGY PREDICTED BY IDOCK:   -0.45 KCAL/MOL
REMARK 927      BINDING AFFINITY PREDICTED BY RF-SCORE:    0.00 PKD
ROOT
HETATM    1  F   UNL     1     -10.910   7.020  68.907  1.00  0.00    -0.212 F  
HETATM    2  C   UNL     1     -10.526   7.471  67.680  1.00  0.00    -0.250 C  
HETATM    3  C   UNL     1     -10.589   8.973  67.541  1.00  0.00    -0.306 A  
HETATM    4  F   UNL     1      -9.277   6.976  67.470  1.00  0.00    -0.125 F  
HETATM    5  F   UNL     1     -11.336   6.840  66.783  1.00  0.00    -0.475 F  
HETATM    6  C   UNL     1     -10.992   9.778  68.613  1.00  0.00    -0.189 A  
HETATM    7  C   UNL     1     -11.154  11.153  68.438  1.00  0.00    -0.303 A  
HETATM    8  C   UNL     1     -10.920  11.752  67.190  1.00  0.00    -0.326 A  
HETATM    9  C   UNL     1     -10.441  10.963  66.138  1.00  0.00    -0.290 A  
HETATM   10  C   UNL     1     -10.282   9.583  66.314  1.00  0.00    -0.290 A  
ENDROOT
BRANCH   8  11
HETATM   11  C   UNL     1     -11.263  13.200  67.058  1.00  0.00    -0.294 C  
HETATM   12  O   UNL     1     -12.344  13.515  66.563  1.00  0.00    -0.392 OA 
HETATM   13  N   UNL     1     -10.326  14.123  67.471  1.00  0.00    -0.247 N  
HETATM   14  H   UNL     1      -9.441  13.824  67.882  1.00  0.00     0.000 HD 
BRANCH  13  15
HETATM   15  N   UNL     1     -10.617  15.476  67.313  1.00  0.00    -0.294 N  
HETATM   16  C   UNL     1     -10.174  16.145  66.196  1.00  0.00    -0.336 C  
HETATM   17  C   UNL     1     -10.391  17.622  66.422  1.00  0.00    -0.345 C  
HETATM   18  O   UNL     1      -9.633  15.649  65.217  1.00  0.00    -0.293 OA 
HETATM   19  C   UNL     1     -10.867  17.710  67.906  1.00  0.00    -0.245 C  
HETATM   20  C   UNL     1      -9.895  18.608  68.721  1.00  0.00    -0.422 C  
HETATM   21  C   UNL     1     -10.820  16.292  68.406  1.00  0.00    -0.334 C  
HETATM   22  O   UNL     1     -10.858  15.983  69.588  1.00  0.00    -0.275 OA 
HETATM   23  C   UNL     1      -8.498  18.003  68.544  1.00  0.00    -0.314 C  
HETATM   24  C   UNL     1      -8.085  17.931  67.266  1.00  0.00    -0.222 C  
HETATM   25  C   UNL     1      -9.092  18.470  66.253  1.00  0.00    -0.216 C  
HETATM   26  C   UNL     1      -9.505  19.915  66.613  1.00  0.00    -0.513 C  
HETATM   27  C   UNL     1      -8.786  20.797  67.613  1.00  0.00    -0.151 C  
HETATM   28  C   UNL     1      -9.981  19.988  68.055  1.00  0.00    -0.550 C  
ENDBRANCH  13  15
ENDBRANCH   8  11
TORSDOF 2
ENDMDL
MODEL       15
REMARK 921   NORMALIZED FREE ENERGY PREDICTED BY IDOCK:   -7.14 KCAL/MOL
REMARK 922        TOTAL FREE ENERGY PREDICTED BY IDOCK:   -8.42 KCAL/MOL
REMARK 923 INTER-LIGAND FREE ENERGY PREDICTED BY IDOCK:   -8.03 KCAL/MOL
REMARK 924 INTRA-LIGAND FREE ENERGY PREDICTED BY IDOCK:   -0.40 KCAL/MOL
REMARK 927      BINDING AFFINITY PREDICTED BY RF-SCORE:    0.00 PKD
ROOT
HETATM    1  F   UNL     1     -11.229   6.174  72.929  1.00  0.00    -0.264 F  
HETATM    2  C   UNL     1     -10.295   6.471  71.983  1.00  0.00    -0.199 C  
HETATM    3  C   UNL     1     -10.483   7.831  71.353  1.00  0.00    -0.237 A  
HETATM    4  F   UNL     1      -9.086   6.337  72.591  1.00  0.00    -0.137 F  
HETATM    5  F   UNL     1     -10.366   5.468  71.063  1.00  0.00    -0.249 F  
HETATM    6  C   UNL     1     -11.525   8.672  71.758  1.00  0.00    -0.394 A  
HETATM    7  C   UNL     1     -11.757   9.876  71.091  1.00  0.00    -0.478 A  
HETATM    8  C   UNL     1     -10.955  10.264  70.006  1.00  0.00    -0.371 A  
HETATM    9  C   UNL     1      -9.863   9.464  69.649  1.00  0.00    -0.205 A  
HETATM   10  C   UNL     1      -9.634   8.254  70.317  1.00  0.00    -0.169 A  
ENDROOT
BRANCH   8  11
HETATM   11  C   UNL     1     -11.368  11.491  69.262  1.00  0.00    -0.288 C  
HETATM   12  O   UNL     1     -12.369  11.447  68.547  1.00  0.00    -0.504 OA 
HETATM   13  N   UNL     1     -10.579  12.616  69.386  1.00  0.00    -0.414 N  
HETATM   14  H   UNL     1      -9.759  12.615  69.992  1.00  0.00     0.000 HD 
BRANCH  13  15
HETATM   15  N   UNL     1     -10.931  13.752  68.663  1.00  0.00    -0.257 N  
HETATM   16  C   UNL     1     -10.442  13.931  67.390  1.00  0.00    -0.263 C  
HETATM   17  C   UNL     1     -10.756  15.346  66.966  1.00  0.00    -0.321 C  
HETATM   18  O   UNL     1      -9.801  13.120  66.735  1.00  0.00    -0.238 OA 
HETATM   19  C   UNL     1     -11.348  16.002  68.253  1.00  0.00    -0.326 C  
HETATM   20  C   UNL     1     -10.491  17.234  68.661  1.00  0.00    -0.356 C  
HETATM   21  C   UNL     1     -11.261  14.928  69.303  1.00  0.00    -0.284 C  
HETATM   22  O   UNL     1     -11.373  15.135  70.502  1.00  0.00    -0.267 OA 
HETATM   23  C   UNL     1      -9.054  16.726  68.819  1.00  0.00    -0.259 C  
HETATM   24  C   UNL     1      -8.541  16.164  67.709  1.00  0.00    -0.172 C  
HETATM   25  C   UNL     1      -9.495  16.151  66.518  1.00  0.00    -0.289 C  
HETATM   26  C   UNL     1     -10.014  17.576  66.220  1.00  0.00    -0.316 C  
HETATM   27  C   UNL     1      -9.423  18.849  66.791  1.00  0.00    -0.352 C  
HETATM   28  C   UNL     1     -10.602  18.201  67.475  1.00  0.00    -0.419 C  
ENDBRANCH  13  15
ENDBRANCH   8  11
TORSDOF 2
ENDMDL
MODEL       16
REMARK 921   NORMALIZED FREE ENERGY PREDICTED BY IDOCK:   -7.02 KCAL/MOL
REMARK 922        TOTAL FREE ENERGY PREDICTED BY IDOCK:   -8.29 KCAL/MOL
REMARK 923 INTER-LIGAND FREE ENERGY PREDICTED BY IDOCK:   -7.79 KCAL/MOL
REMARK 924 INTRA-LIGAND FREE ENERGY PREDICTED BY IDOCK:   -0.50 KCAL/MOL
REMARK 927      BINDING AFFINITY PREDICTED BY RF-SCORE:    0.00 PKD
ROOT
HETATM    1  F   UNL     1     -11.100   7.194  71.531  1.00  0.00    -0.244 F  
HETATM    2  C   UNL     1     -11.929   8.271  71.447  1.00  0.00    -0.299 C  
HETATM    3  C   UNL     1     -11.435   9.342  70.506  1.00  0.00    -0.317 A  
HETATM    4  F   UNL     1     -13.148   7.782  71.094  1.00  0.00    -0.319 F  
HETATM    5  F   UNL     1     -12.065   8.734  72.722  1.00  0.00    -0.415 F  
HETATM    6  C   UNL     1     -10.240   9.180  69.796  1.00  0.00    -0.219 A  
HETATM    7  C   UNL     1      -9.737  10.224  69.017  1.00  0.00    -0.213 A  
HETATM    8  C   UNL     1     -10.416  11.449  68.932  1.00  0.00    -0.219 A  
HETATM    9  C   UNL     1     -11.650  11.588  69.576  1.00  0.00    -0.400 A  
HETATM   10  C   UNL     1     -12.152  10.541  70.360  1.00  0.00    -0.418 A  
ENDROOT
BRANCH   8  11
HETATM   11  C   UNL     1      -9.729  12.554  68.198  1.00  0.00    -0.222 C  
HETATM   12  O   UNL     1      -8.810  12.279  67.427  1.00  0.00    -0.169 OA 
HETATM   13  N   UNL     1     -10.140  13.847  68.449  1.00  0.00    -0.234 N  
HETATM   14  H   UNL     1     -10.909  14.036  69.092  1.00  0.00     0.000 HD 
BRANCH  13  15
HETATM   15  N   UNL     1      -9.478  14.888  67.803  1.00  0.00    -0.201 N  
HETATM   16  C   UNL     1      -8.538  15.627  68.482  1.00  0.00    -0.180 C  
HETATM   17  C   UNL     1      -8.197  16.833  67.640  1.00  0.00    -0.191 C  
HETATM   18  O   UNL     1      -8.102  15.397  69.602  1.00  0.00    -0.230 OA 
HETATM   19  C   UNL     1      -9.209  16.761  66.453  1.00  0.00    -0.309 C  
HETATM   20  C   UNL     1     -10.069  18.055  66.413  1.00  0.00    -0.384 C  
HETATM   21  C   UNL     1     -10.069  15.565  66.757  1.00  0.00    -0.264 C  
HETATM   22  O   UNL     1     -11.139  15.337  66.212  1.00  0.00    -0.330 OA 
HETATM   23  C   UNL     1     -10.726  18.179  67.791  1.00  0.00    -0.355 C  
HETATM   24  C   UNL     1      -9.856  18.245  68.815  1.00  0.00    -0.377 C  
HETATM   25  C   UNL     1      -8.390  18.187  68.392  1.00  0.00    -0.311 C  
HETATM   26  C   UNL     1      -8.083  19.277  67.342  1.00  0.00    -0.306 C  
HETATM   27  C   UNL     1      -8.990  20.446  67.017  1.00  0.00    -0.423 C  
HETATM   28  C   UNL     1      -9.063  19.191  66.183  1.00  0.00    -0.239 C  
ENDBRANCH  13  15
ENDBRANCH   8  11
TORSDOF 2
ENDMDL
MODEL       17
REMARK 921   NORMALIZED FREE ENERGY PREDICTED BY IDOCK:   -6.87 KCAL/MOL
REMARK 922        TOTAL FREE ENERGY PREDICTED BY IDOCK:   -8.12 KCAL/MOL
REMARK 923 INTER-LIGAND FREE ENERGY PREDICTED BY IDOCK:   -7.74 KCAL/MOL
REMARK 924 INTRA-LIGAND FREE ENERGY PREDICTED BY IDOCK:   -0.38 KCAL/MOL
REMARK 927      BINDING AFFINITY PREDICTED BY RF-SCORE:    0.00 PKD
ROOT
HETATM    1  F   UNL     1     -12.024  17.028  73.207  1.00  0.00    -0.497 F  
HETATM    2  C   UNL     1     -12.709  15.850  73.233  1.00  0.00    -0.539 C  
HETATM    3  C   UNL     1     -12.343  14.914  72.106  1.00  0.00    -0.430 A  
HETATM    4  F   UNL     1     -12.483  15.309  74.460  1.00  0.00    -0.655 F  
HETATM    5  F   UNL     1     -14.029  16.189  73.207  1.00  0.00    -0.673 F  
HETATM    6  C   UNL     1     -11.370  15.268  71.164  1.00  0.00    -0.402 A  
HETATM    7  C   UNL     1     -11.122  14.444  70.066  1.00  0.00    -0.125 A  
HETATM    8  C   UNL     1     -11.841  13.253  69.883  1.00  0.00    -0.380 A  
HETATM    9  C   UNL     1     -12.758  12.856  70.862  1.00  0.00    -0.291 A  
HETATM   10  C   UNL     1     -13.009  13.686  71.963  1.00  0.00    -0.427 A  
ENDROOT
BRANCH   8  11
HETATM   11  C   UNL     1     -11.614  12.513  68.605  1.00  0.00    -0.314 C  
HETATM   12  O   UNL     1     -12.387  12.695  67.664  1.00  0.00    -0.279 OA 
HETATM   13  N   UNL     1     -10.559  11.627  68.552  1.00  0.00    -0.208 N  
HETATM   14  H   UNL     1      -9.936  11.507  69.350  1.00  0.00     0.000 HD 
BRANCH  13  15
HETATM   15  N   UNL     1     -10.364  10.901  67.379  1.00  0.00    -0.201 N  
HETATM   16  C   UNL     1     -10.355   9.526  67.421  1.00  0.00    -0.258 C  
HETATM   17  C   UNL     1      -9.857   9.024  66.086  1.00  0.00    -0.349 C  
HETATM   18  O   UNL     1     -10.629   8.825  68.385  1.00  0.00    -0.207 OA 
HETATM   19  C   UNL     1      -9.421  10.322  65.335  1.00  0.00    -0.287 C  
HETATM   20  C   UNL     1      -7.917  10.233  64.955  1.00  0.00    -0.146 C  
HETATM   21  C   UNL     1      -9.651  11.431  66.325  1.00  0.00    -0.213 C  
HETATM   22  O   UNL     1      -9.182  12.554  66.213  1.00  0.00    -0.215 OA 
HETATM   23  C   UNL     1      -7.157   9.978  66.260  1.00  0.00    -0.105 C  
HETATM   24  C   UNL     1      -7.528   8.858  66.907  1.00  0.00    -0.083 C  
HETATM   25  C   UNL     1      -8.629   8.068  66.204  1.00  0.00    -0.163 C  
HETATM   26  C   UNL     1      -8.226   7.750  64.747  1.00  0.00    -0.100 C  
HETATM   27  C   UNL     1      -6.826   7.895  64.185  1.00  0.00    -0.061 C  
HETATM   28  C   UNL     1      -7.818   9.021  64.019  1.00  0.00    -0.133 C  
ENDBRANCH  13  15
ENDBRANCH   8  11
TORSDOF 2
ENDMDL
MODEL       18
REMARK 921   NORMALIZED FREE ENERGY PREDICTED BY IDOCK:   -6.85 KCAL/MOL
REMARK 922        TOTAL FREE ENERGY PREDICTED BY IDOCK:   -8.10 KCAL/MOL
REMARK 923 INTER-LIGAND FREE ENERGY PREDICTED BY IDOCK:   -7.58 KCAL/MOL
REMARK 924 INTRA-LIGAND FREE ENERGY PREDICTED BY IDOCK:   -0.52 KCAL/MOL
REMARK 927      BINDING AFFINITY PREDICTED BY RF-SCORE:    0.00 PKD
ROOT
HETATM    1  F   UNL     1     -10.468  19.613  68.799  1.00  0.00    -0.480 F  
HETATM    2  C   UNL     1     -10.338  19.244  67.494  1.00  0.00    -0.439 C  
HETATM    3  C   UNL     1     -10.456  17.755  67.273  1.00  0.00    -0.356 A  
HETATM    4  F   UNL     1     -11.271  19.953  66.806  1.00  0.00    -0.511 F  
HETATM    5  F   UNL     1      -9.127  19.725  67.092  1.00  0.00    -0.329 F  
HETATM    6  C   UNL     1     -10.699  16.886  68.342  1.00  0.00    -0.368 A  
HETATM    7  C   UNL     1     -10.694  15.505  68.141  1.00  0.00    -0.282 A  
HETATM    8  C   UNL     1     -10.445  14.963  66.871  1.00  0.00    -0.280 A  
HETATM    9  C   UNL     1     -10.280  15.830  65.784  1.00  0.00    -0.394 A  
HETATM   10  C   UNL     1     -10.282  17.216  65.987  1.00  0.00    -0.332 A  
ENDROOT
BRANCH   8  11
HETATM   11  C   UNL     1     -10.311  13.478  66.781  1.00  0.00    -0.264 C  
HETATM   12  O   UNL     1     -10.434  12.933  65.685  1.00  0.00    -0.268 OA 
HETATM   13  N   UNL     1     -10.088  12.780  67.949  1.00  0.00    -0.224 N  
HETATM   14  H   UNL     1      -9.987  13.268  68.839  1.00  0.00     0.000 HD 
BRANCH  13  15
HETATM   15  N   UNL     1     -10.005  11.391  67.883  1.00  0.00    -0.174 N  
HETATM   16  C   UNL     1     -11.067  10.622  68.300  1.00  0.00    -0.279 C  
HETATM   17  C   UNL     1     -10.601   9.188  68.375  1.00  0.00    -0.217 C  
HETATM   18  O   UNL     1     -12.175  11.026  68.624  1.00  0.00    -0.571 OA 
HETATM   19  C   UNL     1      -9.066   9.276  68.103  1.00  0.00    -0.130 C  
HETATM   20  C   UNL     1      -8.280   8.688  69.308  1.00  0.00    -0.113 C  
HETATM   21  C   UNL     1      -8.788  10.748  67.959  1.00  0.00    -0.132 C  
HETATM   22  O   UNL     1      -7.670  11.240  68.009  1.00  0.00    -0.100 OA 
HETATM   23  C   UNL     1      -8.744   9.463  70.545  1.00  0.00    -0.276 C  
HETATM   24  C   UNL     1     -10.066   9.385  70.784  1.00  0.00    -0.366 C  
HETATM   25  C   UNL     1     -10.833   8.535  69.773  1.00  0.00    -0.177 C  
HETATM   26  C   UNL     1     -10.212   7.125  69.666  1.00  0.00    -0.215 C  
HETATM   27  C   UNL     1      -9.210   6.543  70.643  1.00  0.00    -0.163 C  
HETATM   28  C   UNL     1      -8.720   7.220  69.386  1.00  0.00    -0.137 C  
ENDBRANCH  13  15
ENDBRANCH   8  11
TORSDOF 2
ENDMDL
MODEL       19
REMARK 921   NORMALIZED FREE ENERGY PREDICTED BY IDOCK:   -6.83 KCAL/MOL
REMARK 922        TOTAL FREE ENERGY PREDICTED BY IDOCK:   -8.08 KCAL/MOL
REMARK 923 INTER-LIGAND FREE ENERGY PREDICTED BY IDOCK:   -7.69 KCAL/MOL
REMARK 924 INTRA-LIGAND FREE ENERGY PREDICTED BY IDOCK:   -0.39 KCAL/MOL
REMARK 927      BINDING AFFINITY PREDICTED BY RF-SCORE:    0.00 PKD
ROOT
HETATM    1  F   UNL     1     -11.478   6.552  68.542  1.00  0.00    -0.332 F  
HETATM    2  C   UNL     1     -10.683   6.706  67.447  1.00  0.00    -0.339 C  
HETATM    3  C   UNL     1     -10.383   8.148  67.116  1.00  0.00    -0.391 A  
HETATM    4  F   UNL     1      -9.561   5.977  67.689  1.00  0.00    -0.114 F  
HETATM    5  F   UNL     1     -11.330   6.073  66.428  1.00  0.00    -0.287 F  
HETATM    6  C   UNL     1     -10.883   9.187  67.909  1.00  0.00    -0.147 A  
HETATM    7  C   UNL     1     -10.692  10.517  67.529  1.00  0.00    -0.326 A  
HETATM    8  C   UNL     1     -10.001  10.836  66.350  1.00  0.00    -0.264 A  
HETATM    9  C   UNL     1      -9.431   9.803  65.597  1.00  0.00    -0.307 A  
HETATM   10  C   UNL     1      -9.626   8.469  65.977  1.00  0.00    -0.236 A  
ENDROOT
BRANCH   8  11
HETATM   11  C   UNL     1      -9.975  12.274  65.947  1.00  0.00    -0.254 C  
HETATM   12  O   UNL     1     -10.208  12.570  64.776  1.00  0.00    -0.292 OA 
HETATM   13  N   UNL     1      -9.654  13.207  66.911  1.00  0.00    -0.240 N  
HETATM   14  H   UNL     1      -9.472  12.923  67.874  1.00  0.00     0.000 HD 
BRANCH  13  15
HETATM   15  N   UNL     1      -9.586  14.547  66.537  1.00  0.00    -0.280 N  
HETATM   16  C   UNL     1      -8.421  15.252  66.732  1.00  0.00    -0.255 C  
HETATM   17  C   UNL     1      -8.718  16.714  66.498  1.00  0.00    -0.317 C  
HETATM   18  O   UNL     1      -7.347  14.796  67.100  1.00  0.00    -0.166 OA 
HETATM   19  C   UNL     1     -10.267  16.757  66.306  1.00  0.00    -0.341 C  
HETATM   20  C   UNL     1     -10.906  17.688  67.374  1.00  0.00    -0.178 C  
HETATM   21  C   UNL     1     -10.716  15.336  66.508  1.00  0.00    -0.311 C  
HETATM   22  O   UNL     1     -11.877  15.008  66.707  1.00  0.00    -0.245 OA 
HETATM   23  C   UNL     1     -10.457  17.152  68.738  1.00  0.00    -0.351 C  
HETATM   24  C   UNL     1      -9.122  17.118  68.906  1.00  0.00    -0.192 C  
HETATM   25  C   UNL     1      -8.329  17.625  67.704  1.00  0.00    -0.226 C  
HETATM   26  C   UNL     1      -8.794  19.042  67.303  1.00  0.00    -0.302 C  
HETATM   27  C   UNL     1      -9.662  19.943  68.159  1.00  0.00    -0.497 C  
HETATM   28  C   UNL     1     -10.301  19.072  67.105  1.00  0.00    -0.496 C  
ENDBRANCH  13  15
ENDBRANCH   8  11
TORSDOF 2
ENDMDL
MODEL       20
REMARK 921   NORMALIZED FREE ENERGY PREDICTED BY IDOCK:   -6.83 KCAL/MOL
REMARK 922        TOTAL FREE ENERGY PREDICTED BY IDOCK:   -8.08 KCAL/MOL
REMARK 923 INTER-LIGAND FREE ENERGY PREDICTED BY IDOCK:   -7.93 KCAL/MOL
REMARK 924 INTRA-LIGAND FREE ENERGY PREDICTED BY IDOCK:   -0.15 KCAL/MOL
REMARK 927      BINDING AFFINITY PREDICTED BY RF-SCORE:    0.00 PKD
ROOT
HETATM    1  F   UNL     1     -10.382   4.437  71.977  1.00  0.00    -0.241 F  
HETATM    2  C   UNL     1     -10.813   5.506  72.703  1.00  0.00    -0.257 C  
HETATM    3  C   UNL     1     -10.999   6.759  71.881  1.00  0.00    -0.270 A  
HETATM    4  F   UNL     1     -11.957   5.107  73.320  1.00  0.00    -0.343 F  
HETATM    5  F   UNL     1      -9.892   5.678  73.693  1.00  0.00    -0.152 F  
HETATM    6  C   UNL     1     -10.757   6.757  70.502  1.00  0.00    -0.277 A  
HETATM    7  C   UNL     1     -10.824   7.946  69.775  1.00  0.00    -0.202 A  
HETATM    8  C   UNL     1     -11.132   9.161  70.408  1.00  0.00    -0.293 A  
HETATM    9  C   UNL     1     -11.452   9.154  71.770  1.00  0.00    -0.452 A  
HETATM   10  C   UNL     1     -11.381   7.960  72.500  1.00  0.00    -0.449 A  
ENDROOT
BRANCH   8  11
HETATM   11  C   UNL     1     -11.034  10.400  69.580  1.00  0.00    -0.262 C  
HETATM   12  O   UNL     1      -9.924  10.882  69.354  1.00  0.00    -0.172 OA 
HETATM   13  N   UNL     1     -12.208  10.970  69.133  1.00  0.00    -0.434 N  
HETATM   14  H   UNL     1     -13.110  10.539  69.336  1.00  0.00     0.000 HD 
BRANCH  13  15
HETATM   15  N   UNL     1     -12.131  12.149  68.396  1.00  0.00    -0.184 N  
HETATM   16  C   UNL     1     -11.723  12.110  67.083  1.00  0.00    -0.302 C  
HETATM   17  C   UNL     1     -11.473  13.529  66.631  1.00  0.00    -0.366 C  
HETATM   18  O   UNL     1     -11.526  11.106  66.412  1.00  0.00    -0.244 OA 
HETATM   19  C   UNL     1     -11.635  14.373  67.935  1.00  0.00    -0.374 C  
HETATM   20  C   UNL     1     -10.321  15.151  68.227  1.00  0.00    -0.231 C  
HETATM   21  C   UNL     1     -11.900  13.360  69.015  1.00  0.00    -0.335 C  
HETATM   22  O   UNL     1     -11.814  13.598  70.210  1.00  0.00    -0.306 OA 
HETATM   23  C   UNL     1      -9.205  14.104  68.292  1.00  0.00    -0.198 C  
HETATM   24  C   UNL     1      -9.061  13.378  67.168  1.00  0.00    -0.235 C  
HETATM   25  C   UNL     1     -10.039  13.750  66.056  1.00  0.00    -0.320 C  
HETATM   26  C   UNL     1      -9.960  15.262  65.745  1.00  0.00    -0.391 C  
HETATM   27  C   UNL     1      -8.857  16.186  66.219  1.00  0.00    -0.371 C  
HETATM   28  C   UNL     1     -10.133  16.076  67.018  1.00  0.00    -0.271 C  
ENDBRANCH  13  15
ENDBRANCH   8  11
TORSDOF 2
ENDMDL
MODEL       21
REMARK 921   NORMALIZED FREE ENERGY PREDICTED BY IDOCK:   -6.70 KCAL/MOL
REMARK 922        TOTAL FREE ENERGY PREDICTED BY IDOCK:   -7.94 KCAL/MOL
REMARK 923 INTER-LIGAND FREE ENERGY PREDICTED BY IDOCK:   -7.44 KCAL/MOL
REMARK 924 INTRA-LIGAND FREE ENERGY PREDICTED BY IDOCK:   -0.50 KCAL/MOL
REMARK 927      BINDING AFFINITY PREDICTED BY RF-SCORE:    0.00 PKD
ROOT
HETATM    1  F   UNL     1     -10.016  19.628  69.325  1.00  0.00    -0.478 F  
HETATM    2  C   UNL     1      -9.857  19.326  68.007  1.00  0.00    -0.365 C  
HETATM    3  C   UNL     1     -10.335  17.941  67.642  1.00  0.00    -0.387 A  
HETATM    4  F   UNL     1     -10.502  20.303  67.315  1.00  0.00    -0.525 F  
HETATM    5  F   UNL     1      -8.530  19.493  67.745  1.00  0.00    -0.315 F  
HETATM    6  C   UNL     1     -10.900  17.098  68.606  1.00  0.00    -0.250 A  
HETATM    7  C   UNL     1     -11.233  15.782  68.282  1.00  0.00    -0.356 A  
HETATM    8  C   UNL     1     -11.009  15.280  66.990  1.00  0.00    -0.324 A  
HETATM    9  C   UNL     1     -10.518  16.143  66.003  1.00  0.00    -0.349 A  
HETATM   10  C   UNL     1     -10.181  17.462  66.331  1.00  0.00    -0.339 A  
ENDROOT
BRANCH   8  11
HETATM   11  C   UNL     1     -11.256  13.823  66.777  1.00  0.00    -0.316 C  
HETATM   12  O   UNL     1     -12.293  13.470  66.215  1.00  0.00    -0.417 OA 
HETATM   13  N   UNL     1     -10.318  12.933  67.255  1.00  0.00    -0.233 N  
HETATM   14  H   UNL     1      -9.468  13.264  67.711  1.00  0.00     0.000 HD 
BRANCH  13  15
HETATM   15  N   UNL     1     -10.559  11.571  67.100  1.00  0.00    -0.226 N  
HETATM   16  C   UNL     1     -10.926  10.813  68.188  1.00  0.00    -0.257 C  
HETATM   17  C   UNL     1     -10.851   9.359  67.788  1.00  0.00    -0.223 C  
HETATM   18  O   UNL     1     -11.197  11.228  69.306  1.00  0.00    -0.232 OA 
HETATM   19  C   UNL     1     -10.222   9.393  66.359  1.00  0.00    -0.300 C  
HETATM   20  C   UNL     1      -8.903   8.571  66.342  1.00  0.00    -0.178 C  
HETATM   21  C   UNL     1      -9.941  10.848  66.101  1.00  0.00    -0.233 C  
HETATM   22  O   UNL     1      -9.208  11.255  65.212  1.00  0.00    -0.218 OA 
HETATM   23  C   UNL     1      -8.010   9.167  67.436  1.00  0.00    -0.103 C  
HETATM   24  C   UNL     1      -8.549   9.134  68.669  1.00  0.00    -0.128 C  
HETATM   25  C   UNL     1      -9.939   8.506  68.725  1.00  0.00    -0.197 C  
HETATM   26  C   UNL     1      -9.925   7.095  68.096  1.00  0.00    -0.172 C  
HETATM   27  C   UNL     1      -8.674   6.304  67.775  1.00  0.00    -0.113 C  
HETATM   28  C   UNL     1      -9.325   7.140  66.700  1.00  0.00    -0.207 C  
ENDBRANCH  13  15
ENDBRANCH   8  11
TORSDOF 2
ENDMDL
MODEL       22
REMARK 921   NORMALIZED FREE ENERGY PREDICTED BY IDOCK:   -6.70 KCAL/MOL
REMARK 922        TOTAL FREE ENERGY PREDICTED BY IDOCK:   -7.93 KCAL/MOL
REMARK 923 INTER-LIGAND FREE ENERGY PREDICTED BY IDOCK:   -7.77 KCAL/MOL
REMARK 924 INTRA-LIGAND FREE ENERGY PREDICTED BY IDOCK:   -0.16 KCAL/MOL
REMARK 927      BINDING AFFINITY PREDICTED BY RF-SCORE:    0.00 PKD
ROOT
HETATM    1  F   UNL     1      -9.637   6.941  65.961  1.00  0.00    -0.165 F  
HETATM    2  C   UNL     1     -10.302   7.386  67.063  1.00  0.00    -0.314 C  
HETATM    3  C   UNL     1     -10.392   8.891  67.148  1.00  0.00    -0.351 A  
HETATM    4  F   UNL     1     -11.523   6.788  67.035  1.00  0.00    -0.464 F  
HETATM    5  F   UNL     1      -9.646   6.853  68.133  1.00  0.00    -0.127 F  
HETATM    6  C   UNL     1      -9.844   9.701  66.147  1.00  0.00    -0.334 A  
HETATM    7  C   UNL     1      -9.834  11.089  66.293  1.00  0.00    -0.257 A  
HETATM    8  C   UNL     1     -10.370  11.697  67.439  1.00  0.00    -0.231 A  
HETATM    9  C   UNL     1     -10.990  10.895  68.405  1.00  0.00    -0.288 A  
HETATM   10  C   UNL     1     -10.996   9.502  68.259  1.00  0.00    -0.131 A  
ENDROOT
BRANCH   8  11
HETATM   11  C   UNL     1     -10.181  13.172  67.576  1.00  0.00    -0.225 C  
HETATM   12  O   UNL     1     -10.158  13.867  66.560  1.00  0.00    -0.271 OA 
HETATM   13  N   UNL     1     -10.006  13.684  68.844  1.00  0.00    -0.422 N  
HETATM   14  H   UNL     1     -10.037  13.077  69.663  1.00  0.00     0.000 HD 
BRANCH  13  15
HETATM   15  N   UNL     1      -9.787  15.053  68.979  1.00  0.00    -0.230 N  
HETATM   16  C   UNL     1     -10.842  15.928  68.867  1.00  0.00    -0.274 C  
HETATM   17  C   UNL     1     -10.278  17.327  68.781  1.00  0.00    -0.353 C  
HETATM   18  O   UNL     1     -12.026  15.634  68.779  1.00  0.00    -0.348 OA 
HETATM   19  C   UNL     1      -8.735  17.106  68.689  1.00  0.00    -0.266 C  
HETATM   20  C   UNL     1      -8.188  17.735  67.378  1.00  0.00    -0.221 C  
HETATM   21  C   UNL     1      -8.565  15.611  68.669  1.00  0.00    -0.188 C  
HETATM   22  O   UNL     1      -7.535  15.046  68.334  1.00  0.00    -0.106 OA 
HETATM   23  C   UNL     1      -8.983  17.100  66.231  1.00  0.00    -0.262 C  
HETATM   24  C   UNL     1     -10.313  17.294  66.306  1.00  0.00    -0.323 C  
HETATM   25  C   UNL     1     -10.757  18.109  67.518  1.00  0.00    -0.365 C  
HETATM   26  C   UNL     1     -10.004  19.457  67.572  1.00  0.00    -0.473 C  
HETATM   27  C   UNL     1      -9.197  20.045  66.432  1.00  0.00    -0.453 C  
HETATM   28  C   UNL     1      -8.502  19.232  67.497  1.00  0.00    -0.324 C  
ENDBRANCH  13  15
ENDBRANCH   8  11
TORSDOF 2
ENDMDL
MODEL       23
REMARK 921   NORMALIZED FREE ENERGY PREDICTED BY IDOCK:   -6.68 KCAL/MOL
REMARK 922        TOTAL FREE ENERGY PREDICTED BY IDOCK:   -7.91 KCAL/MOL
REMARK 923 INTER-LIGAND FREE ENERGY PREDICTED BY IDOCK:   -7.74 KCAL/MOL
REMARK 924 INTRA-LIGAND FREE ENERGY PREDICTED BY IDOCK:   -0.17 KCAL/MOL
REMARK 927      BINDING AFFINITY PREDICTED BY RF-SCORE:    0.00 PKD
ROOT
HETATM    1  F   UNL     1     -12.064  14.322  65.974  1.00  0.00    -0.374 F  
HETATM    2  C   UNL     1     -11.395  13.225  65.524  1.00  0.00    -0.294 C  
HETATM    3  C   UNL     1     -11.314  12.109  66.538  1.00  0.00    -0.405 A  
HETATM    4  F   UNL     1     -12.017  12.847  64.375  1.00  0.00    -0.366 F  
HETATM    5  F   UNL     1     -10.160  13.669  65.154  1.00  0.00    -0.323 F  
HETATM    6  C   UNL     1     -11.908  12.238  67.798  1.00  0.00    -0.341 A  
HETATM    7  C   UNL     1     -11.730  11.247  68.765  1.00  0.00    -0.405 A  
HETATM    8  C   UNL     1     -10.954  10.109  68.494  1.00  0.00    -0.278 A  
HETATM    9  C   UNL     1     -10.425   9.938  67.210  1.00  0.00    -0.319 A  
HETATM   10  C   UNL     1     -10.601  10.935  66.242  1.00  0.00    -0.276 A  
ENDROOT
BRANCH   8  11
HETATM   11  C   UNL     1     -10.697   9.177  69.633  1.00  0.00    -0.225 C  
HETATM   12  O   UNL     1     -10.407   8.006  69.392  1.00  0.00    -0.210 OA 
HETATM   13  N   UNL     1     -10.832   9.673  70.913  1.00  0.00    -0.319 N  
HETATM   14  H   UNL     1     -11.069  10.652  71.073  1.00  0.00     0.000 HD 
BRANCH  13  15
HETATM   15  N   UNL     1     -10.636   8.802  71.982  1.00  0.00    -0.345 N  
HETATM   16  C   UNL     1      -9.362   8.410  72.320  1.00  0.00    -0.286 C  
HETATM   17  C   UNL     1      -9.471   7.277  73.312  1.00  0.00    -0.240 C  
HETATM   18  O   UNL     1      -8.318   8.845  71.852  1.00  0.00    -0.349 OA 
HETATM   19  C   UNL     1     -11.001   6.966  73.361  1.00  0.00    -0.221 C  
HETATM   20  C   UNL     1     -11.253   5.487  72.955  1.00  0.00    -0.358 C  
HETATM   21  C   UNL     1     -11.612   7.902  72.354  1.00  0.00    -0.380 C  
HETATM   22  O   UNL     1     -12.743   7.780  71.907  1.00  0.00    -0.312 OA 
HETATM   23  C   UNL     1     -10.620   5.306  71.571  1.00  0.00    -0.254 C  
HETATM   24  C   UNL     1      -9.301   5.569  71.528  1.00  0.00    -0.172 C  
HETATM   25  C   UNL     1      -8.705   5.991  72.868  1.00  0.00    -0.123 C  
HETATM   26  C   UNL     1      -9.018   4.941  73.958  1.00  0.00    -0.113 C  
HETATM   27  C   UNL     1      -9.541   3.545  73.690  1.00  0.00    -0.136 C  
HETATM   28  C   UNL     1     -10.511   4.656  74.009  1.00  0.00    -0.322 C  
ENDBRANCH  13  15
ENDBRANCH   8  11
TORSDOF 2
ENDMDL
MODEL       24
REMARK 921   NORMALIZED FREE ENERGY PREDICTED BY IDOCK:   -6.64 KCAL/MOL
REMARK 922        TOTAL FREE ENERGY PREDICTED BY IDOCK:   -7.87 KCAL/MOL
REMARK 923 INTER-LIGAND FREE ENERGY PREDICTED BY IDOCK:   -7.38 KCAL/MOL
REMARK 924 INTRA-LIGAND FREE ENERGY PREDICTED BY IDOCK:   -0.49 KCAL/MOL
REMARK 927      BINDING AFFINITY PREDICTED BY RF-SCORE:    0.00 PKD
ROOT
HETATM    1  F   UNL     1     -10.337   5.455  68.421  1.00  0.00    -0.211 F  
HETATM    2  C   UNL     1     -10.583   6.487  69.274  1.00  0.00    -0.247 C  
HETATM    3  C   UNL     1     -10.629   7.835  68.595  1.00  0.00    -0.152 A  
HETATM    4  F   UNL     1     -11.744   6.181  69.913  1.00  0.00    -0.477 F  
HETATM    5  F   UNL     1      -9.605   6.426  70.222  1.00  0.00    -0.160 F  
HETATM    6  C   UNL     1     -10.449   7.950  67.212  1.00  0.00    -0.390 A  
HETATM    7  C   UNL     1     -10.382   9.209  66.614  1.00  0.00    -0.289 A  
HETATM    8  C   UNL     1     -10.490  10.378  67.383  1.00  0.00    -0.299 A  
HETATM    9  C   UNL     1     -10.748  10.267  68.754  1.00  0.00    -0.247 A  
HETATM   10  C   UNL     1     -10.813   9.003  69.354  1.00  0.00    -0.152 A  
ENDROOT
BRANCH   8  11
HETATM   11  C   UNL     1     -10.257  11.676  66.681  1.00  0.00    -0.216 C  
HETATM   12  O   UNL     1     -10.221  11.691  65.451  1.00  0.00    -0.241 OA 
HETATM   13  N   UNL     1     -10.056  12.800  67.455  1.00  0.00    -0.217 N  
HETATM   14  H   UNL     1     -10.098  12.749  68.472  1.00  0.00     0.000 HD 
BRANCH  13  15
HETATM   15  N   UNL     1      -9.795  14.007  66.811  1.00  0.00    -0.265 N  
HETATM   16  C   UNL     1      -8.553  14.587  66.924  1.00  0.00    -0.179 C  
HETATM   17  C   UNL     1      -8.643  15.989  66.369  1.00  0.00    -0.369 C  
HETATM   18  O   UNL     1      -7.563  14.093  67.445  1.00  0.00    -0.182 OA 
HETATM   19  C   UNL     1     -10.165  16.182  66.077  1.00  0.00    -0.374 C  
HETATM   20  C   UNL     1     -10.708  17.395  66.883  1.00  0.00    -0.125 C  
HETATM   21  C   UNL     1     -10.807  14.905  66.547  1.00  0.00    -0.322 C  
HETATM   22  O   UNL     1     -12.007  14.775  66.738  1.00  0.00    -0.327 OA 
HETATM   23  C   UNL     1     -10.381  17.116  68.354  1.00  0.00    -0.362 C  
HETATM   24  C   UNL     1      -9.069  16.954  68.608  1.00  0.00    -0.265 C  
HETATM   25  C   UNL     1      -8.175  17.084  67.377  1.00  0.00    -0.199 C  
HETATM   26  C   UNL     1      -8.431  18.428  66.658  1.00  0.00    -0.283 C  
HETATM   27  C   UNL     1      -9.198  19.593  67.249  1.00  0.00    -0.416 C  
HETATM   28  C   UNL     1      -9.913  18.600  66.365  1.00  0.00    -0.415 C  
ENDBRANCH  13  15
ENDBRANCH   8  11
TORSDOF 2
ENDMDL
MODEL       25
REMARK 921   NORMALIZED FREE ENERGY PREDICTED BY IDOCK:   -6.63 KCAL/MOL
REMARK 922        TOTAL FREE ENERGY PREDICTED BY IDOCK:   -7.85 KCAL/MOL
REMARK 923 INTER-LIGAND FREE ENERGY PREDICTED BY IDOCK:   -7.78 KCAL/MOL
REMARK 924 INTRA-LIGAND FREE ENERGY PREDICTED BY IDOCK:   -0.07 KCAL/MOL
REMARK 927      BINDING AFFINITY PREDICTED BY RF-SCORE:    0.00 PKD
ROOT
HETATM    1  F   UNL     1     -14.263  15.169  72.904  1.00  0.00    -0.465 F  
HETATM    2  C   UNL     1     -13.570  15.198  71.732  1.00  0.00    -0.455 C  
HETATM    3  C   UNL     1     -13.073  13.842  71.290  1.00  0.00    -0.385 A  
HETATM    4  F   UNL     1     -14.394  15.779  70.820  1.00  0.00    -0.229 F  
HETATM    5  F   UNL     1     -12.547  16.078  71.928  1.00  0.00    -0.449 F  
HETATM    6  C   UNL     1     -13.348  12.695  72.043  1.00  0.00    -0.555 A  
HETATM    7  C   UNL     1     -12.789  11.468  71.685  1.00  0.00    -0.475 A  
HETATM    8  C   UNL     1     -11.944  11.360  70.570  1.00  0.00    -0.451 A  
HETATM    9  C   UNL     1     -11.730  12.488  69.769  1.00  0.00    -0.355 A  
HETATM   10  C   UNL     1     -12.289  13.720  70.131  1.00  0.00    -0.390 A  
ENDROOT
BRANCH   8  11
HETATM   11  C   UNL     1     -11.275  10.043  70.351  1.00  0.00    -0.323 C  
HETATM   12  O   UNL     1     -11.736   9.041  70.897  1.00  0.00    -0.281 OA 
HETATM   13  N   UNL     1     -10.140  10.019  69.566  1.00  0.00    -0.214 N  
HETATM   14  H   UNL     1      -9.791  10.870  69.126  1.00  0.00     0.000 HD 
BRANCH  13  15
HETATM   15  N   UNL     1      -9.484   8.803  69.391  1.00  0.00    -0.160 N  
HETATM   16  C   UNL     1      -9.901   7.938  68.406  1.00  0.00    -0.173 C  
HETATM   17  C   UNL     1      -9.205   6.616  68.625  1.00  0.00    -0.128 C  
HETATM   18  O   UNL     1     -10.740   8.164  67.545  1.00  0.00    -0.242 OA 
HETATM   19  C   UNL     1      -8.458   6.804  69.983  1.00  0.00    -0.140 C  
HETATM   20  C   UNL     1      -8.939   5.735  71.004  1.00  0.00    -0.150 C  
HETATM   21  C   UNL     1      -8.842   8.183  70.442  1.00  0.00    -0.141 C  
HETATM   22  O   UNL     1      -8.682   8.594  71.582  1.00  0.00    -0.177 OA 
HETATM   23  C   UNL     1     -10.461   5.885  71.099  1.00  0.00    -0.291 C  
HETATM   24  C   UNL     1     -11.108   5.719  69.930  1.00  0.00    -0.327 C  
HETATM   25  C   UNL     1     -10.191   5.411  68.749  1.00  0.00    -0.252 C  
HETATM   26  C   UNL     1      -9.296   4.190  69.057  1.00  0.00    -0.232 C  
HETATM   27  C   UNL     1      -9.512   3.228  70.208  1.00  0.00    -0.234 C  
HETATM   28  C   UNL     1      -8.561   4.388  70.374  1.00  0.00    -0.106 C  
ENDBRANCH  13  15
ENDBRANCH   8  11
TORSDOF 2
ENDMDL
MODEL       26
REMARK 921   NORMALIZED FREE ENERGY PREDICTED BY IDOCK:   -6.62 KCAL/MOL
REMARK 922        TOTAL FREE ENERGY PREDICTED BY IDOCK:   -7.84 KCAL/MOL
REMARK 923 INTER-LIGAND FREE ENERGY PREDICTED BY IDOCK:   -7.35 KCAL/MOL
REMARK 924 INTRA-LIGAND FREE ENERGY PREDICTED BY IDOCK:   -0.50 KCAL/MOL
REMARK 927      BINDING AFFINITY PREDICTED BY RF-SCORE:    0.00 PKD
ROOT
HETATM    1  F   UNL     1     -12.229  15.952  69.823  1.00  0.00    -0.348 F  
HETATM    2  C   UNL     1     -11.607  14.998  69.076  1.00  0.00    -0.319 C  
HETATM    3  C   UNL     1     -11.807  13.595  69.598  1.00  0.00    -0.396 A  
HETATM    4  F   UNL     1     -12.066  15.156  67.805  1.00  0.00    -0.332 F  
HETATM    5  F   UNL     1     -10.290  15.349  69.047  1.00  0.00    -0.208 F  
HETATM    6  C   UNL     1     -12.586  13.356  70.736  1.00  0.00    -0.369 A  
HETATM    7  C   UNL     1     -12.671  12.070  71.273  1.00  0.00    -0.382 A  
HETATM    8  C   UNL     1     -11.979  10.999  70.687  1.00  0.00    -0.464 A  
HETATM    9  C   UNL     1     -11.264  11.219  69.504  1.00  0.00    -0.337 A  
HETATM   10  C   UNL     1     -11.177  12.510  68.968  1.00  0.00    -0.321 A  
ENDROOT
BRANCH   8  11
HETATM   11  C   UNL     1     -12.008   9.695  71.414  1.00  0.00    -0.399 C  
HETATM   12  O   UNL     1     -12.951   9.452  72.167  1.00  0.00    -0.390 OA 
HETATM   13  N   UNL     1     -10.948   8.832  71.231  1.00  0.00    -0.254 N  
HETATM   14  H   UNL     1     -10.186   9.066  70.594  1.00  0.00     0.000 HD 
BRANCH  13  15
HETATM   15  N   UNL     1     -10.944   7.631  71.937  1.00  0.00    -0.234 N  
HETATM   16  C   UNL     1     -10.084   7.465  72.998  1.00  0.00    -0.273 C  
HETATM   17  C   UNL     1     -10.101   6.006  73.386  1.00  0.00    -0.205 C  
HETATM   18  O   UNL     1      -9.371   8.325  73.499  1.00  0.00    -0.210 OA 
HETATM   19  C   UNL     1     -10.971   5.332  72.279  1.00  0.00    -0.249 C  
HETATM   20  C   UNL     1     -10.144   4.236  71.550  1.00  0.00    -0.205 C  
HETATM   21  C   UNL     1     -11.317   6.449  71.333  1.00  0.00    -0.301 C  
HETATM   22  O   UNL     1     -11.754   6.278  70.205  1.00  0.00    -0.398 OA 
HETATM   23  C   UNL     1      -8.883   4.928  71.023  1.00  0.00    -0.152 C  
HETATM   24  C   UNL     1      -8.129   5.506  71.977  1.00  0.00    -0.115 C  
HETATM   25  C   UNL     1      -8.684   5.351  73.390  1.00  0.00    -0.115 C  
HETATM   26  C   UNL     1      -8.932   3.861  73.716  1.00  0.00    -0.091 C  
HETATM   27  C   UNL     1      -8.400   2.697  72.905  1.00  0.00    -0.070 C  
HETATM   28  C   UNL     1      -9.793   3.216  72.641  1.00  0.00    -0.208 C  
ENDBRANCH  13  15
ENDBRANCH   8  11
TORSDOF 2
ENDMDL
MODEL       27
REMARK 921   NORMALIZED FREE ENERGY PREDICTED BY IDOCK:   -6.60 KCAL/MOL
REMARK 922        TOTAL FREE ENERGY PREDICTED BY IDOCK:   -7.82 KCAL/MOL
REMARK 923 INTER-LIGAND FREE ENERGY PREDICTED BY IDOCK:   -7.39 KCAL/MOL
REMARK 924 INTRA-LIGAND FREE ENERGY PREDICTED BY IDOCK:   -0.43 KCAL/MOL
REMARK 927      BINDING AFFINITY PREDICTED BY RF-SCORE:    0.00 PKD
ROOT
HETATM    1  F   UNL     1     -11.526  14.298  64.461  1.00  0.00    -0.353 F  
HETATM    2  C   UNL     1     -11.972  14.209  65.745  1.00  0.00    -0.402 C  
HETATM    3  C   UNL     1     -11.582  12.922  66.433  1.00  0.00    -0.425 A  
HETATM    4  F   UNL     1     -11.501  15.311  66.386  1.00  0.00    -0.323 F  
HETATM    5  F   UNL     1     -13.325  14.362  65.679  1.00  0.00    -0.480 F  
HETATM    6  C   UNL     1     -10.815  11.957  65.771  1.00  0.00    -0.341 A  
HETATM    7  C   UNL     1     -10.556  10.727  66.377  1.00  0.00    -0.266 A  
HETATM    8  C   UNL     1     -11.060  10.434  67.654  1.00  0.00    -0.361 A  
HETATM    9  C   UNL     1     -11.760  11.425  68.351  1.00  0.00    -0.373 A  
HETATM   10  C   UNL     1     -12.021  12.659  67.741  1.00  0.00    -0.303 A  
ENDROOT
BRANCH   8  11
HETATM   11  C   UNL     1     -10.860   9.043  68.159  1.00  0.00    -0.027 C  
HETATM   12  O   UNL     1     -10.777   8.120  67.349  1.00  0.00    -0.269 OA 
HETATM   13  N   UNL     1     -10.812   8.853  69.524  1.00  0.00    -0.362 N  
HETATM   14  H   UNL     1     -10.879   9.644  70.164  1.00  0.00     0.000 HD 
BRANCH  13  15
HETATM   15  N   UNL     1     -10.669   7.555  70.006  1.00  0.00    -0.238 N  
HETATM   16  C   UNL     1     -11.639   7.017  70.820  1.00  0.00    -0.338 C  
HETATM   17  C   UNL     1     -11.098   5.733  71.402  1.00  0.00    -0.273 C  
HETATM   18  O   UNL     1     -12.722   7.517  71.089  1.00  0.00    -0.310 OA 
HETATM   19  C   UNL     1      -9.609   5.705  70.932  1.00  0.00    -0.212 C  
HETATM   20  C   UNL     1      -8.667   5.648  72.167  1.00  0.00    -0.133 C  
HETATM   21  C   UNL     1      -9.421   6.995  70.183  1.00  0.00    -0.162 C  
HETATM   22  O   UNL     1      -8.330   7.466  69.896  1.00  0.00    -0.130 OA 
HETATM   23  C   UNL     1      -9.027   6.855  73.040  1.00  0.00    -0.146 C  
HETATM   24  C   UNL     1     -10.308   6.878  73.449  1.00  0.00    -0.337 C  
HETATM   25  C   UNL     1     -11.141   5.695  72.962  1.00  0.00    -0.327 C  
HETATM   26  C   UNL     1     -10.467   4.360  73.350  1.00  0.00    -0.262 C  
HETATM   27  C   UNL     1      -9.336   4.219  74.348  1.00  0.00    -0.121 C  
HETATM   28  C   UNL     1      -9.023   4.334  72.876  1.00  0.00    -0.119 C  
ENDBRANCH  13  15
ENDBRANCH   8  11
TORSDOF 2
ENDMDL
MODEL       28
REMARK 921   NORMALIZED FREE ENERGY PREDICTED BY IDOCK:   -6.59 KCAL/MOL
REMARK 922        TOTAL FREE ENERGY PREDICTED BY IDOCK:   -7.81 KCAL/MOL
REMARK 923 INTER-LIGAND FREE ENERGY PREDICTED BY IDOCK:   -7.64 KCAL/MOL
REMARK 924 INTRA-LIGAND FREE ENERGY PREDICTED BY IDOCK:   -0.17 KCAL/MOL
REMARK 927      BINDING AFFINITY PREDICTED BY RF-SCORE:    0.00 PKD
ROOT
HETATM    1  F   UNL     1     -10.681  19.824  68.420  1.00  0.00    -0.506 F  
HETATM    2  C   UNL     1     -10.301  19.294  67.225  1.00  0.00    -0.436 C  
HETATM    3  C   UNL     1     -10.330  17.784  67.197  1.00  0.00    -0.354 A  
HETATM    4  F   UNL     1     -11.115  19.852  66.288  1.00  0.00    -0.506 F  
HETATM    5  F   UNL     1      -9.053  19.785  66.980  1.00  0.00    -0.332 F  
HETATM    6  C   UNL     1     -10.737  17.052  68.318  1.00  0.00    -0.372 A  
HETATM    7  C   UNL     1     -10.652  15.659  68.317  1.00  0.00    -0.262 A  
HETATM    8  C   UNL     1     -10.157  14.969  67.199  1.00  0.00    -0.239 A  
HETATM    9  C   UNL     1      -9.823  15.692  66.048  1.00  0.00    -0.362 A  
HETATM   10  C   UNL     1      -9.906  17.090  66.051  1.00  0.00    -0.263 A  
ENDROOT
BRANCH   8  11
HETATM   11  C   UNL     1      -9.962  13.495  67.345  1.00  0.00    -0.234 C  
HETATM   12  O   UNL     1      -9.750  12.819  66.338  1.00  0.00    -0.251 OA 
HETATM   13  N   UNL     1     -10.065  12.953  68.609  1.00  0.00    -0.387 N  
HETATM   14  H   UNL     1     -10.237  13.547  69.420  1.00  0.00     0.000 HD 
BRANCH  13  15
HETATM   15  N   UNL     1      -9.928  11.575  68.750  1.00  0.00    -0.190 N  
HETATM   16  C   UNL     1      -8.675  11.007  68.727  1.00  0.00    -0.145 C  
HETATM   17  C   UNL     1      -8.845   9.510  68.623  1.00  0.00    -0.132 C  
HETATM   18  O   UNL     1      -7.606  11.601  68.720  1.00  0.00    -0.128 OA 
HETATM   19  C   UNL     1     -10.381   9.319  68.418  1.00  0.00    -0.244 C  
HETATM   20  C   UNL     1     -10.647   8.573  67.080  1.00  0.00    -0.314 C  
HETATM   21  C   UNL     1     -10.935  10.717  68.362  1.00  0.00    -0.251 C  
HETATM   22  O   UNL     1     -12.050  10.993  67.944  1.00  0.00    -0.600 OA 
HETATM   23  C   UNL     1      -9.964   9.397  65.984  1.00  0.00    -0.352 C  
HETATM   24  C   UNL     1      -8.640   9.559  66.157  1.00  0.00    -0.143 C  
HETATM   25  C   UNL     1      -8.088   8.884  67.411  1.00  0.00    -0.108 C  
HETATM   26  C   UNL     1      -8.464   7.386  67.432  1.00  0.00    -0.119 C  
HETATM   27  C   UNL     1      -9.003   6.612  66.246  1.00  0.00    -0.168 C  
HETATM   28  C   UNL     1      -9.962   7.210  67.246  1.00  0.00    -0.243 C  
ENDBRANCH  13  15
ENDBRANCH   8  11
TORSDOF 2
ENDMDL
MODEL       29
REMARK 921   NORMALIZED FREE ENERGY PREDICTED BY IDOCK:   -6.56 KCAL/MOL
REMARK 922        TOTAL FREE ENERGY PREDICTED BY IDOCK:   -7.77 KCAL/MOL
REMARK 923 INTER-LIGAND FREE ENERGY PREDICTED BY IDOCK:   -7.77 KCAL/MOL
REMARK 924 INTRA-LIGAND FREE ENERGY PREDICTED BY IDOCK:   -0.01 KCAL/MOL
REMARK 927      BINDING AFFINITY PREDICTED BY RF-SCORE:    0.00 PKD
ROOT
HETATM    1  F   UNL     1     -14.220  15.104  72.953  1.00  0.00    -0.465 F  
HETATM    2  C   UNL     1     -13.528  15.188  71.782  1.00  0.00    -0.433 C  
HETATM    3  C   UNL     1     -13.022  13.856  71.283  1.00  0.00    -0.414 A  
HETATM    4  F   UNL     1     -14.358  15.801  70.897  1.00  0.00    -0.323 F  
HETATM    5  F   UNL     1     -12.512  16.066  72.015  1.00  0.00    -0.434 F  
HETATM    6  C   UNL     1     -13.287  12.676  71.986  1.00  0.00    -0.555 A  
HETATM    7  C   UNL     1     -12.719  11.469  71.575  1.00  0.00    -0.439 A  
HETATM    8  C   UNL     1     -11.875  11.416  70.455  1.00  0.00    -0.394 A  
HETATM    9  C   UNL     1     -11.671  12.578  69.703  1.00  0.00    -0.372 A  
HETATM   10  C   UNL     1     -12.239  13.790  70.119  1.00  0.00    -0.425 A  
ENDROOT
BRANCH   8  11
HETATM   11  C   UNL     1     -11.196  10.114  70.180  1.00  0.00    -0.310 C  
HETATM   12  O   UNL     1     -11.042   9.757  69.012  1.00  0.00    -0.196 OA 
HETATM   13  N   UNL     1     -10.803   9.352  71.260  1.00  0.00    -0.341 N  
HETATM   14  H   UNL     1     -10.943   9.684  72.213  1.00  0.00     0.000 HD 
BRANCH  13  15
HETATM   15  N   UNL     1     -10.208   8.117  71.014  1.00  0.00    -0.187 N  
HETATM   16  C   UNL     1      -8.974   8.061  70.409  1.00  0.00    -0.146 C  
HETATM   17  C   UNL     1      -8.709   6.624  70.026  1.00  0.00    -0.141 C  
HETATM   18  O   UNL     1      -8.244   9.009  70.155  1.00  0.00    -0.109 OA 
HETATM   19  C   UNL     1     -10.051   5.894  70.351  1.00  0.00    -0.259 C  
HETATM   20  C   UNL     1     -10.614   5.227  69.065  1.00  0.00    -0.150 C  
HETATM   21  C   UNL     1     -10.971   6.984  70.827  1.00  0.00    -0.255 C  
HETATM   22  O   UNL     1     -12.184   6.862  70.918  1.00  0.00    -0.381 OA 
HETATM   23  C   UNL     1     -10.742   6.342  68.022  1.00  0.00    -0.362 C  
HETATM   24  C   UNL     1      -9.586   6.969  67.737  1.00  0.00    -0.138 C  
HETATM   25  C   UNL     1      -8.382   6.438  68.511  1.00  0.00    -0.113 C  
HETATM   26  C   UNL     1      -8.239   4.912  68.316  1.00  0.00    -0.085 C  
HETATM   27  C   UNL     1      -8.964   4.104  67.259  1.00  0.00    -0.142 C  
HETATM   28  C   UNL     1      -9.545   4.209  68.648  1.00  0.00    -0.199 C  
ENDBRANCH  13  15
ENDBRANCH   8  11
TORSDOF 2
ENDMDL
MODEL       30
REMARK 921   NORMALIZED FREE ENERGY PREDICTED BY IDOCK:   -6.44 KCAL/MOL
REMARK 922        TOTAL FREE ENERGY PREDICTED BY IDOCK:   -7.65 KCAL/MOL
REMARK 923 INTER-LIGAND FREE ENERGY PREDICTED BY IDOCK:   -7.47 KCAL/MOL
REMARK 924 INTRA-LIGAND FREE ENERGY PREDICTED BY IDOCK:   -0.17 KCAL/MOL
REMARK 927      BINDING AFFINITY PREDICTED BY RF-SCORE:    0.00 PKD
ROOT
HETATM    1  F   UNL     1     -10.913   5.138  71.773  1.00  0.00    -0.275 F  
HETATM    2  C   UNL     1     -11.596   6.215  72.249  1.00  0.00    -0.313 C  
HETATM    3  C   UNL     1     -11.549   7.414  71.332  1.00  0.00    -0.303 A  
HETATM    4  F   UNL     1     -12.864   5.784  72.486  1.00  0.00    -0.238 F  
HETATM    5  F   UNL     1     -11.056   6.486  73.472  1.00  0.00    -0.250 F  
HETATM    6  C   UNL     1     -10.870   7.358  70.110  1.00  0.00    -0.270 A  
HETATM    7  C   UNL     1     -10.739   8.505  69.325  1.00  0.00    -0.147 A  
HETATM    8  C   UNL     1     -11.281   9.730  69.744  1.00  0.00    -0.242 A  
HETATM    9  C   UNL     1     -12.029   9.772  70.927  1.00  0.00    -0.413 A  
HETATM   10  C   UNL     1     -12.157   8.621  71.715  1.00  0.00    -0.403 A  
ENDROOT
BRANCH   8  11
HETATM   11  C   UNL     1     -10.964  10.931  68.915  1.00  0.00    -0.229 C  
HETATM   12  O   UNL     1     -11.294  12.043  69.324  1.00  0.00    -0.251 OA 
HETATM   13  N   UNL     1     -10.340  10.729  67.701  1.00  0.00    -0.191 N  
HETATM   14  H   UNL     1     -10.077   9.791  67.398  1.00  0.00     0.000 HD 
BRANCH  13  15
HETATM   15  N   UNL     1     -10.078  11.838  66.901  1.00  0.00    -0.205 N  
HETATM   16  C   UNL     1      -9.016  12.660  67.198  1.00  0.00    -0.205 C  
HETATM   17  C   UNL     1      -9.139  13.903  66.349  1.00  0.00    -0.105 C  
HETATM   18  O   UNL     1      -8.158  12.462  68.047  1.00  0.00    -0.141 OA 
HETATM   19  C   UNL     1     -10.524  13.744  65.647  1.00  0.00    -0.312 C  
HETATM   20  C   UNL     1     -11.441  14.946  66.008  1.00  0.00    -0.275 C  
HETATM   21  C   UNL     1     -11.088  12.464  66.201  1.00  0.00    -0.302 C  
HETATM   22  O   UNL     1     -12.262  12.137  66.105  1.00  0.00    -0.611 OA 
HETATM   23  C   UNL     1     -11.514  14.988  67.538  1.00  0.00    -0.339 C  
HETATM   24  C   UNL     1     -10.322  15.129  68.145  1.00  0.00    -0.239 C  
HETATM   25  C   UNL     1      -9.140  15.222  67.183  1.00  0.00    -0.226 C  
HETATM   26  C   UNL     1      -9.365  16.349  66.151  1.00  0.00    -0.360 C  
HETATM   27  C   UNL     1     -10.426  17.426  66.262  1.00  0.00    -0.276 C  
HETATM   28  C   UNL     1     -10.709  16.178  65.461  1.00  0.00    -0.355 C  
ENDBRANCH  13  15
ENDBRANCH   8  11
TORSDOF 2
ENDMDL
MODEL       31
REMARK 921   NORMALIZED FREE ENERGY PREDICTED BY IDOCK:   -6.43 KCAL/MOL
REMARK 922        TOTAL FREE ENERGY PREDICTED BY IDOCK:   -7.64 KCAL/MOL
REMARK 923 INTER-LIGAND FREE ENERGY PREDICTED BY IDOCK:   -7.26 KCAL/MOL
REMARK 924 INTRA-LIGAND FREE ENERGY PREDICTED BY IDOCK:   -0.37 KCAL/MOL
REMARK 927      BINDING AFFINITY PREDICTED BY RF-SCORE:    0.00 PKD
ROOT
HETATM    1  F   UNL     1      -9.876   5.316  69.235  1.00  0.00    -0.175 F  
HETATM    2  C   UNL     1      -9.766   5.814  67.972  1.00  0.00    -0.124 C  
HETATM    3  C   UNL     1      -9.986   7.305  67.888  1.00  0.00    -0.192 A  
HETATM    4  F   UNL     1      -8.538   5.438  67.523  1.00  0.00    -0.110 F  
HETATM    5  F   UNL     1     -10.668   5.121  67.220  1.00  0.00    -0.246 F  
HETATM    6  C   UNL     1     -10.254   8.058  69.037  1.00  0.00    -0.217 A  
HETATM    7  C   UNL     1     -10.566   9.414  68.932  1.00  0.00    -0.231 A  
HETATM    8  C   UNL     1     -10.619  10.046  67.680  1.00  0.00    -0.323 A  
HETATM    9  C   UNL     1     -10.275   9.316  66.536  1.00  0.00    -0.316 A  
HETATM   10  C   UNL     1      -9.964   7.954  66.642  1.00  0.00    -0.316 A  
ENDROOT
BRANCH   8  11
HETATM   11  C   UNL     1     -11.106  11.458  67.653  1.00  0.00    -0.268 C  
HETATM   12  O   UNL     1     -12.250  11.702  68.037  1.00  0.00    -0.551 OA 
HETATM   13  N   UNL     1     -10.254  12.424  67.160  1.00  0.00    -0.215 N  
HETATM   14  H   UNL     1      -9.312  12.183  66.855  1.00  0.00     0.000 HD 
BRANCH  13  15
HETATM   15  N   UNL     1     -10.714  13.736  67.090  1.00  0.00    -0.280 N  
HETATM   16  C   UNL     1     -10.703  14.401  65.886  1.00  0.00    -0.306 C  
HETATM   17  C   UNL     1     -10.987  15.859  66.158  1.00  0.00    -0.126 C  
HETATM   18  O   UNL     1     -10.441  13.921  64.792  1.00  0.00    -0.408 OA 
HETATM   19  C   UNL     1     -10.992  15.958  67.716  1.00  0.00    -0.315 C  
HETATM   20  C   UNL     1      -9.913  16.973  68.186  1.00  0.00    -0.287 C  
HETATM   21  C   UNL     1     -10.653  14.570  68.187  1.00  0.00    -0.238 C  
HETATM   22  O   UNL     1     -10.297  14.303  69.325  1.00  0.00    -0.176 OA 
HETATM   23  C   UNL     1      -8.584  16.494  67.591  1.00  0.00    -0.189 C  
HETATM   24  C   UNL     1      -8.576  16.413  66.248  1.00  0.00    -0.375 C  
HETATM   25  C   UNL     1      -9.893  16.818  65.591  1.00  0.00    -0.111 C  
HETATM   26  C   UNL     1     -10.319  18.230  66.051  1.00  0.00    -0.377 C  
HETATM   27  C   UNL     1      -9.421  19.212  66.775  1.00  0.00    -0.376 C  
HETATM   28  C   UNL     1     -10.336  18.313  67.569  1.00  0.00    -0.415 C  
ENDBRANCH  13  15
ENDBRANCH   8  11
TORSDOF 2
ENDMDL
MODEL       32
REMARK 921   NORMALIZED FREE ENERGY PREDICTED BY IDOCK:   -6.42 KCAL/MOL
REMARK 922        TOTAL FREE ENERGY PREDICTED BY IDOCK:   -7.61 KCAL/MOL
REMARK 923 INTER-LIGAND FREE ENERGY PREDICTED BY IDOCK:   -7.13 KCAL/MOL
REMARK 924 INTRA-LIGAND FREE ENERGY PREDICTED BY IDOCK:   -0.48 KCAL/MOL
REMARK 927      BINDING AFFINITY PREDICTED BY RF-SCORE:    0.00 PKD
ROOT
HETATM    1  F   UNL     1      -9.231  17.576  67.110  1.00  0.00    -0.230 F  
HETATM    2  C   UNL     1     -10.116  17.354  68.120  1.00  0.00    -0.328 C  
HETATM    3  C   UNL     1     -10.342  15.890  68.415  1.00  0.00    -0.240 A  
HETATM    4  F   UNL     1      -9.644  18.040  69.195  1.00  0.00    -0.270 F  
HETATM    5  F   UNL     1     -11.267  17.983  67.749  1.00  0.00    -0.315 F  
HETATM    6  C   UNL     1      -9.661  14.899  67.699  1.00  0.00    -0.200 A  
HETATM    7  C   UNL     1      -9.961  13.552  67.904  1.00  0.00    -0.245 A  
HETATM    8  C   UNL     1     -10.948  13.166  68.824  1.00  0.00    -0.298 A  
HETATM    9  C   UNL     1     -11.575  14.149  69.598  1.00  0.00    -0.349 A  
HETATM   10  C   UNL     1     -11.275  15.501  69.390  1.00  0.00    -0.302 A  
ENDROOT
BRANCH   8  11
HETATM   11  C   UNL     1     -11.305  11.716  68.867  1.00  0.00    -0.267 C  
HETATM   12  O   UNL     1     -12.371  11.349  68.373  1.00  0.00    -0.505 OA 
HETATM   13  N   UNL     1     -10.430  10.856  69.496  1.00  0.00    -0.398 N  
HETATM   14  H   UNL     1      -9.553  11.197  69.890  1.00  0.00     0.000 HD 
BRANCH  13  15
HETATM   15  N   UNL     1     -10.773   9.509  69.580  1.00  0.00    -0.224 N  
HETATM   16  C   UNL     1     -11.308   9.011  70.745  1.00  0.00    -0.277 C  
HETATM   17  C   UNL     1     -11.322   7.504  70.644  1.00  0.00    -0.301 C  
HETATM   18  O   UNL     1     -11.648   9.659  71.725  1.00  0.00    -0.378 OA 
HETATM   19  C   UNL     1     -10.557   7.210  69.315  1.00  0.00    -0.233 C  
HETATM   20  C   UNL     1      -9.319   6.315  69.604  1.00  0.00    -0.150 C  
HETATM   21  C   UNL     1     -10.127   8.561  68.815  1.00  0.00    -0.196 C  
HETATM   22  O   UNL     1      -9.279   8.732  67.951  1.00  0.00    -0.138 OA 
HETATM   23  C   UNL     1      -8.487   7.058  70.655  1.00  0.00    -0.139 C  
HETATM   24  C   UNL     1      -9.143   7.308  71.803  1.00  0.00    -0.141 C  
HETATM   25  C   UNL     1     -10.582   6.799  71.824  1.00  0.00    -0.237 C  
HETATM   26  C   UNL     1     -10.631   5.292  71.484  1.00  0.00    -0.254 C  
HETATM   27  C   UNL     1      -9.428   4.371  71.463  1.00  0.00    -0.215 C  
HETATM   28  C   UNL     1      -9.897   5.016  70.181  1.00  0.00    -0.303 C  
ENDBRANCH  13  15
ENDBRANCH   8  11
TORSDOF 2
ENDMDL
MODEL       33
REMARK 921   NORMALIZED FREE ENERGY PREDICTED BY IDOCK:   -6.40 KCAL/MOL
REMARK 922        TOTAL FREE ENERGY PREDICTED BY IDOCK:   -7.59 KCAL/MOL
REMARK 923 INTER-LIGAND FREE ENERGY PREDICTED BY IDOCK:   -7.19 KCAL/MOL
REMARK 924 INTRA-LIGAND FREE ENERGY PREDICTED BY IDOCK:   -0.41 KCAL/MOL
REMARK 927      BINDING AFFINITY PREDICTED BY RF-SCORE:    0.00 PKD
ROOT
HETATM    1  F   UNL     1     -13.994  15.362  73.070  1.00  0.00    -0.524 F  
HETATM    2  C   UNL     1     -13.300  15.263  71.903  1.00  0.00    -0.430 C  
HETATM    3  C   UNL     1     -13.028  13.839  71.480  1.00  0.00    -0.444 A  
HETATM    4  F   UNL     1     -14.015  15.958  70.978  1.00  0.00    -0.389 F  
HETATM    5  F   UNL     1     -12.149  15.967  72.096  1.00  0.00    -0.396 F  
HETATM    6  C   UNL     1     -13.490  12.761  72.245  1.00  0.00    -0.591 A  
HETATM    7  C   UNL     1     -13.136  11.455  71.905  1.00  0.00    -0.505 A  
HETATM    8  C   UNL     1     -12.314  11.197  70.797  1.00  0.00    -0.504 A  
HETATM    9  C   UNL     1     -11.916  12.265  69.984  1.00  0.00    -0.379 A  
HETATM   10  C   UNL     1     -12.269  13.576  70.328  1.00  0.00    -0.417 A  
ENDROOT
BRANCH   8  11
HETATM   11  C   UNL     1     -11.867   9.786  70.598  1.00  0.00    -0.281 C  
HETATM   12  O   UNL     1     -12.476   8.881  71.167  1.00  0.00    -0.291 OA 
HETATM   13  N   UNL     1     -10.760   9.566  69.805  1.00  0.00    -0.229 N  
HETATM   14  H   UNL     1     -10.284  10.342  69.345  1.00  0.00     0.000 HD 
BRANCH  13  15
HETATM   15  N   UNL     1     -10.309   8.258  69.647  1.00  0.00    -0.214 N  
HETATM   16  C   UNL     1      -9.407   7.734  70.543  1.00  0.00    -0.163 C  
HETATM   17  C   UNL     1      -8.897   6.429  69.980  1.00  0.00    -0.143 C  
HETATM   18  O   UNL     1      -9.024   8.257  71.581  1.00  0.00    -0.147 OA 
HETATM   19  C   UNL     1      -9.515   6.371  68.547  1.00  0.00    -0.120 C  
HETATM   20  C   UNL     1      -8.384   6.274  67.486  1.00  0.00    -0.113 C  
HETATM   21  C   UNL     1     -10.266   7.666  68.403  1.00  0.00    -0.198 C  
HETATM   22  O   UNL     1     -10.657   8.114  67.335  1.00  0.00    -0.279 OA 
HETATM   23  C   UNL     1      -7.466   7.477  67.725  1.00  0.00    -0.101 C  
HETATM   24  C   UNL     1      -6.928   7.527  68.958  1.00  0.00    -0.073 C  
HETATM   25  C   UNL     1      -7.341   6.371  69.865  1.00  0.00    -0.082 C  
HETATM   26  C   UNL     1      -7.038   5.015  69.191  1.00  0.00    -0.056 C  
HETATM   27  C   UNL     1      -6.162   4.832  67.968  1.00  0.00    -0.035 C  
HETATM   28  C   UNL     1      -7.657   4.960  67.803  1.00  0.00    -0.083 C  
ENDBRANCH  13  15
ENDBRANCH   8  11
TORSDOF 2
ENDMDL
MODEL       34
REMARK 921   NORMALIZED FREE ENERGY PREDICTED BY IDOCK:   -6.38 KCAL/MOL
REMARK 922        TOTAL FREE ENERGY PREDICTED BY IDOCK:   -7.58 KCAL/MOL
REMARK 923 INTER-LIGAND FREE ENERGY PREDICTED BY IDOCK:   -7.15 KCAL/MOL
REMARK 924 INTRA-LIGAND FREE ENERGY PREDICTED BY IDOCK:   -0.43 KCAL/MOL
REMARK 927      BINDING AFFINITY PREDICTED BY RF-SCORE:    0.00 PKD
ROOT
HETATM    1  F   UNL     1     -12.410  16.598  71.904  1.00  0.00    -0.342 F  
HETATM    2  C   UNL     1     -13.031  15.523  72.465  1.00  0.00    -0.428 C  
HETATM    3  C   UNL     1     -12.638  14.205  71.841  1.00  0.00    -0.371 A  
HETATM    4  F   UNL     1     -12.752  15.578  73.795  1.00  0.00    -0.496 F  
HETATM    5  F   UNL     1     -14.367  15.765  72.351  1.00  0.00    -0.598 F  
HETATM    6  C   UNL     1     -11.704  14.152  70.801  1.00  0.00    -0.231 A  
HETATM    7  C   UNL     1     -11.435  12.943  70.158  1.00  0.00     0.001 A  
HETATM    8  C   UNL     1     -12.093  11.763  70.539  1.00  0.00    -0.439 A  
HETATM    9  C   UNL     1     -12.969  11.797  71.630  1.00  0.00    -0.467 A  
HETATM   10  C   UNL     1     -13.241  13.012  72.272  1.00  0.00    -0.539 A  
ENDROOT
BRANCH   8  11
HETATM   11  C   UNL     1     -11.853  10.552  69.699  1.00  0.00    -0.234 C  
HETATM   12  O   UNL     1     -12.325  10.510  68.563  1.00  0.00    -0.180 OA 
HETATM   13  N   UNL     1     -11.137   9.513  70.256  1.00  0.00    -0.257 N  
HETATM   14  H   UNL     1     -10.758   9.587  71.200  1.00  0.00     0.000 HD 
BRANCH  13  15
HETATM   15  N   UNL     1     -10.944   8.362  69.498  1.00  0.00    -0.113 N  
HETATM   16  C   UNL     1     -11.449   7.160  69.938  1.00  0.00    -0.115 C  
HETATM   17  C   UNL     1     -10.862   6.066  69.078  1.00  0.00    -0.412 C  
HETATM   18  O   UNL     1     -12.185   6.989  70.900  1.00  0.00    -0.364 OA 
HETATM   19  C   UNL     1      -9.814   6.807  68.189  1.00  0.00    -0.144 C  
HETATM   20  C   UNL     1      -8.403   6.197  68.415  1.00  0.00    -0.114 C  
HETATM   21  C   UNL     1      -9.855   8.235  68.662  1.00  0.00    -0.176 C  
HETATM   22  O   UNL     1      -8.995   9.064  68.404  1.00  0.00    -0.133 OA 
HETATM   23  C   UNL     1      -8.129   6.292  69.920  1.00  0.00    -0.120 C  
HETATM   24  C   UNL     1      -9.029   5.649  70.688  1.00  0.00    -0.157 C  
HETATM   25  C   UNL     1     -10.137   4.955  69.901  1.00  0.00    -0.332 C  
HETATM   26  C   UNL     1      -9.539   4.000  68.844  1.00  0.00    -0.213 C  
HETATM   27  C   UNL     1      -8.092   3.551  68.804  1.00  0.00    -0.070 C  
HETATM   28  C   UNL     1      -8.531   4.733  67.974  1.00  0.00    -0.102 C  
ENDBRANCH  13  15
ENDBRANCH   8  11
TORSDOF 2
ENDMDL
MODEL       35
REMARK 921   NORMALIZED FREE ENERGY PREDICTED BY IDOCK:   -6.37 KCAL/MOL
REMARK 922        TOTAL FREE ENERGY PREDICTED BY IDOCK:   -7.56 KCAL/MOL
REMARK 923 INTER-LIGAND FREE ENERGY PREDICTED BY IDOCK:   -7.06 KCAL/MOL
REMARK 924 INTRA-LIGAND FREE ENERGY PREDICTED BY IDOCK:   -0.50 KCAL/MOL
REMARK 927      BINDING AFFINITY PREDICTED BY RF-SCORE:    0.00 PKD
ROOT
HETATM    1  F   UNL     1     -10.266  19.347  69.394  1.00  0.00    -0.440 F  
HETATM    2  C   UNL     1     -10.250  19.242  68.036  1.00  0.00    -0.408 C  
HETATM    3  C   UNL     1     -10.526  17.846  67.534  1.00  0.00    -0.398 A  
HETATM    4  F   UNL     1     -11.149  20.154  67.576  1.00  0.00    -0.345 F  
HETATM    5  F   UNL     1      -9.024  19.693  67.644  1.00  0.00    -0.327 F  
HETATM    6  C   UNL     1     -10.789  16.800  68.425  1.00  0.00    -0.355 A  
HETATM    7  C   UNL     1     -10.932  15.493  67.955  1.00  0.00    -0.311 A  
HETATM    8  C   UNL     1     -10.813  15.204  66.587  1.00  0.00    -0.318 A  
HETATM    9  C   UNL     1     -10.629  16.257  65.684  1.00  0.00    -0.360 A  
HETATM   10  C   UNL     1     -10.483  17.568  66.157  1.00  0.00    -0.288 A  
ENDROOT
BRANCH   8  11
HETATM   11  C   UNL     1     -10.831  13.763  66.195  1.00  0.00    -0.279 C  
HETATM   12  O   UNL     1     -11.852  13.104  66.389  1.00  0.00    -0.363 OA 
HETATM   13  N   UNL     1      -9.678  13.226  65.661  1.00  0.00    -0.474 N  
HETATM   14  H   UNL     1      -8.852  13.805  65.510  1.00  0.00     0.000 HD 
BRANCH  13  15
HETATM   15  N   UNL     1      -9.670  11.873  65.331  1.00  0.00    -0.232 N  
HETATM   16  C   UNL     1      -9.064  10.969  66.172  1.00  0.00    -0.192 C  
HETATM   17  C   UNL     1      -8.967   9.650  65.444  1.00  0.00    -0.231 C  
HETATM   18  O   UNL     1      -8.614  11.199  67.286  1.00  0.00    -0.135 OA 
HETATM   19  C   UNL     1      -9.455   9.981  63.998  1.00  0.00    -0.299 C  
HETATM   20  C   UNL     1      -8.337   9.643  62.972  1.00  0.00    -0.168 C  
HETATM   21  C   UNL     1      -9.725  11.461  64.017  1.00  0.00    -0.245 C  
HETATM   22  O   UNL     1      -9.861  12.143  63.012  1.00  0.00    -0.365 OA 
HETATM   23  C   UNL     1      -7.097  10.429  63.412  1.00  0.00    -0.027 C  
HETATM   24  C   UNL     1      -6.673  10.141  64.656  1.00  0.00    -0.120 C  
HETATM   25  C   UNL     1      -7.513   9.087  65.373  1.00  0.00    -0.089 C  
HETATM   26  C   UNL     1      -7.619   7.803  64.521  1.00  0.00    -0.108 C  
HETATM   27  C   UNL     1      -6.757   7.491  63.315  1.00  0.00    -0.058 C  
HETATM   28  C   UNL     1      -8.109   8.133  63.120  1.00  0.00    -0.127 C  
ENDBRANCH  13  15
ENDBRANCH   8  11
TORSDOF 2
ENDMDL
MODEL       36
REMARK 921   NORMALIZED FREE ENERGY PREDICTED BY IDOCK:   -6.36 KCAL/MOL
REMARK 922        TOTAL FREE ENERGY PREDICTED BY IDOCK:   -7.55 KCAL/MOL
REMARK 923 INTER-LIGAND FREE ENERGY PREDICTED BY IDOCK:   -7.13 KCAL/MOL
REMARK 924 INTRA-LIGAND FREE ENERGY PREDICTED BY IDOCK:   -0.42 KCAL/MOL
REMARK 927      BINDING AFFINITY PREDICTED BY RF-SCORE:    0.00 PKD
ROOT
HETATM    1  F   UNL     1     -10.978   5.306  74.205  1.00  0.00    -0.297 F  
HETATM    2  C   UNL     1     -11.332   5.226  72.892  1.00  0.00    -0.301 C  
HETATM    3  C   UNL     1     -10.770   6.343  72.046  1.00  0.00    -0.261 A  
HETATM    4  F   UNL     1     -10.937   3.996  72.469  1.00  0.00    -0.193 F  
HETATM    5  F   UNL     1     -12.695   5.209  72.876  1.00  0.00    -0.222 F  
HETATM    6  C   UNL     1      -9.951   7.328  72.608  1.00  0.00    -0.223 A  
HETATM    7  C   UNL     1      -9.531   8.415  71.840  1.00  0.00    -0.323 A  
HETATM    8  C   UNL     1      -9.921   8.542  70.498  1.00  0.00    -0.214 A  
HETATM    9  C   UNL     1     -10.674   7.519  69.910  1.00  0.00    -0.254 A  
HETATM   10  C   UNL     1     -11.098   6.430  70.683  1.00  0.00    -0.376 A  
ENDROOT
BRANCH   8  11
HETATM   11  C   UNL     1      -9.549   9.810  69.800  1.00  0.00    -0.230 C  
HETATM   12  O   UNL     1      -8.407  10.251  69.933  1.00  0.00    -0.143 OA 
HETATM   13  N   UNL     1     -10.523  10.449  69.062  1.00  0.00    -0.205 N  
HETATM   14  H   UNL     1     -11.457  10.049  68.971  1.00  0.00     0.000 HD 
BRANCH  13  15
HETATM   15  N   UNL     1     -10.199  11.653  68.443  1.00  0.00    -0.202 N  
HETATM   16  C   UNL     1     -10.897  12.795  68.761  1.00  0.00    -0.234 C  
HETATM   17  C   UNL     1     -10.526  13.861  67.759  1.00  0.00    -0.243 C  
HETATM   18  O   UNL     1     -11.727  12.916  69.651  1.00  0.00    -0.300 OA 
HETATM   19  C   UNL     1      -9.640  13.107  66.717  1.00  0.00    -0.249 C  
HETATM   20  C   UNL     1     -10.276  13.218  65.303  1.00  0.00    -0.303 C  
HETATM   21  C   UNL     1      -9.637  11.677  67.184  1.00  0.00    -0.175 C  
HETATM   22  O   UNL     1      -9.283  10.734  66.492  1.00  0.00    -0.163 OA 
HETATM   23  C   UNL     1     -11.702  12.672  65.427  1.00  0.00    -0.428 C  
HETATM   24  C   UNL     1     -12.468  13.323  66.321  1.00  0.00    -0.283 C  
HETATM   25  C   UNL     1     -11.760  14.477  67.027  1.00  0.00    -0.412 C  
HETATM   26  C   UNL     1     -11.164  15.462  65.996  1.00  0.00    -0.168 C  
HETATM   27  C   UNL     1     -11.506  15.481  64.520  1.00  0.00    -0.311 C  
HETATM   28  C   UNL     1     -10.291  14.721  64.995  1.00  0.00    -0.420 C  
ENDBRANCH  13  15
ENDBRANCH   8  11
TORSDOF 2
ENDMDL
MODEL       37
REMARK 921   NORMALIZED FREE ENERGY PREDICTED BY IDOCK:   -6.36 KCAL/MOL
REMARK 922        TOTAL FREE ENERGY PREDICTED BY IDOCK:   -7.55 KCAL/MOL
REMARK 923 INTER-LIGAND FREE ENERGY PREDICTED BY IDOCK:   -7.40 KCAL/MOL
REMARK 924 INTRA-LIGAND FREE ENERGY PREDICTED BY IDOCK:   -0.16 KCAL/MOL
REMARK 927      BINDING AFFINITY PREDICTED BY RF-SCORE:    0.00 PKD
ROOT
HETATM    1  F   UNL     1     -11.833  13.495  64.078  1.00  0.00    -0.405 F  
HETATM    2  C   UNL     1     -12.079  13.811  65.379  1.00  0.00    -0.407 C  
HETATM    3  C   UNL     1     -11.591  12.770  66.357  1.00  0.00    -0.435 A  
HETATM    4  F   UNL     1     -11.514  15.031  65.585  1.00  0.00    -0.345 F  
HETATM    5  F   UNL     1     -13.426  14.001  65.466  1.00  0.00    -0.451 F  
HETATM    6  C   UNL     1     -10.934  11.617  65.912  1.00  0.00    -0.334 A  
HETATM    7  C   UNL     1     -10.589  10.611  66.816  1.00  0.00    -0.297 A  
HETATM    8  C   UNL     1     -10.893  10.734  68.181  1.00  0.00    -0.284 A  
HETATM    9  C   UNL     1     -11.478  11.919  68.641  1.00  0.00    -0.350 A  
HETATM   10  C   UNL     1     -11.827  12.927  67.733  1.00  0.00    -0.391 A  
ENDROOT
BRANCH   8  11
HETATM   11  C   UNL     1     -10.621   9.547  69.045  1.00  0.00    -0.219 C  
HETATM   12  O   UNL     1      -9.500   9.039  69.028  1.00  0.00    -0.153 OA 
HETATM   13  N   UNL     1     -11.661   9.050  69.803  1.00  0.00    -0.419 N  
HETATM   14  H   UNL     1     -12.576   9.501  69.795  1.00  0.00     0.000 HD 
BRANCH  13  15
HETATM   15  N   UNL     1     -11.430   7.918  70.580  1.00  0.00    -0.267 N  
HETATM   16  C   UNL     1     -10.733   8.029  71.761  1.00  0.00    -0.240 C  
HETATM   17  C   UNL     1     -10.401   6.636  72.238  1.00  0.00    -0.219 C  
HETATM   18  O   UNL     1     -10.378   9.068  72.301  1.00  0.00    -0.265 OA 
HETATM   19  C   UNL     1     -10.864   5.716  71.065  1.00  0.00    -0.289 C  
HETATM   20  C   UNL     1      -9.660   4.888  70.535  1.00  0.00    -0.253 C  
HETATM   21  C   UNL     1     -11.358   6.665  70.008  1.00  0.00    -0.382 C  
HETATM   22  O   UNL     1     -11.550   6.351  68.842  1.00  0.00    -0.230 OA 
HETATM   23  C   UNL     1      -8.578   5.901  70.148  1.00  0.00    -0.134 C  
HETATM   24  C   UNL     1      -8.174   6.692  71.159  1.00  0.00    -0.120 C  
HETATM   25  C   UNL     1      -8.876   6.415  72.486  1.00  0.00    -0.133 C  
HETATM   26  C   UNL     1      -8.744   4.924  72.871  1.00  0.00    -0.117 C  
HETATM   27  C   UNL     1      -7.787   3.944  72.222  1.00  0.00    -0.076 C  
HETATM   28  C   UNL     1      -9.211   4.036  71.729  1.00  0.00    -0.184 C  
ENDBRANCH  13  15
ENDBRANCH   8  11
TORSDOF 2
ENDMDL
MODEL       38
REMARK 921   NORMALIZED FREE ENERGY PREDICTED BY IDOCK:   -6.23 KCAL/MOL
REMARK 922        TOTAL FREE ENERGY PREDICTED BY IDOCK:   -7.40 KCAL/MOL
REMARK 923 INTER-LIGAND FREE ENERGY PREDICTED BY IDOCK:   -7.23 KCAL/MOL
REMARK 924 INTRA-LIGAND FREE ENERGY PREDICTED BY IDOCK:   -0.17 KCAL/MOL
REMARK 927      BINDING AFFINITY PREDICTED BY RF-SCORE:    0.00 PKD
ROOT
HETATM    1  F   UNL     1     -10.437   6.554  66.806  1.00  0.00    -0.253 F  
HETATM    2  C   UNL     1     -10.493   7.180  68.015  1.00  0.00    -0.201 C  
HETATM    3  C   UNL     1     -10.496   8.686  67.916  1.00  0.00    -0.269 A  
HETATM    4  F   UNL     1     -11.596   6.692  68.642  1.00  0.00    -0.243 F  
HETATM    5  F   UNL     1      -9.423   6.717  68.722  1.00  0.00    -0.132 F  
HETATM    6  C   UNL     1     -10.465   9.325  66.671  1.00  0.00    -0.237 A  
HETATM    7  C   UNL     1     -10.355  10.715  66.596  1.00  0.00    -0.297 A  
HETATM    8  C   UNL     1     -10.271  11.494  67.761  1.00  0.00    -0.200 A  
HETATM    9  C   UNL     1     -10.382  10.866  69.006  1.00  0.00    -0.230 A  
HETATM   10  C   UNL     1     -10.489   9.471  69.081  1.00  0.00    -0.224 A  
ENDROOT
BRANCH   8  11
HETATM   11  C   UNL     1     -10.006  12.953  67.582  1.00  0.00    -0.218 C  
HETATM   12  O   UNL     1     -10.438  13.745  68.419  1.00  0.00    -0.240 OA 
HETATM   13  N   UNL     1      -9.311  13.348  66.458  1.00  0.00    -0.367 N  
HETATM   14  H   UNL     1      -8.963  12.661  65.789  1.00  0.00     0.000 HD 
BRANCH  13  15
HETATM   15  N   UNL     1      -9.095  14.709  66.260  1.00  0.00    -0.217 N  
HETATM   16  C   UNL     1      -8.114  15.357  66.975  1.00  0.00    -0.230 C  
HETATM   17  C   UNL     1      -8.289  16.842  66.764  1.00  0.00    -0.269 C  
HETATM   18  O   UNL     1      -7.287  14.838  67.711  1.00  0.00    -0.135 OA 
HETATM   19  C   UNL     1      -9.622  16.953  65.958  1.00  0.00    -0.238 C  
HETATM   20  C   UNL     1     -10.645  17.820  66.745  1.00  0.00    -0.235 C  
HETATM   21  C   UNL     1     -10.113  15.537  65.837  1.00  0.00    -0.349 C  
HETATM   22  O   UNL     1     -11.252  15.235  65.513  1.00  0.00    -0.329 OA 
HETATM   23  C   UNL     1     -10.796  17.165  68.121  1.00  0.00    -0.316 C  
HETATM   24  C   UNL     1      -9.649  17.073  68.819  1.00  0.00    -0.269 C  
HETATM   25  C   UNL     1      -8.432  17.643  68.097  1.00  0.00    -0.260 C  
HETATM   26  C   UNL     1      -8.691  19.103  67.662  1.00  0.00    -0.329 C  
HETATM   27  C   UNL     1      -9.835  19.963  68.159  1.00  0.00    -0.524 C  
HETATM   28  C   UNL     1      -9.983  19.199  66.865  1.00  0.00    -0.419 C  
ENDBRANCH  13  15
ENDBRANCH   8  11
TORSDOF 2
ENDMDL
MODEL       39
REMARK 921   NORMALIZED FREE ENERGY PREDICTED BY IDOCK:   -6.20 KCAL/MOL
REMARK 922        TOTAL FREE ENERGY PREDICTED BY IDOCK:   -7.37 KCAL/MOL
REMARK 923 INTER-LIGAND FREE ENERGY PREDICTED BY IDOCK:   -6.90 KCAL/MOL
REMARK 924 INTRA-LIGAND FREE ENERGY PREDICTED BY IDOCK:   -0.47 KCAL/MOL
REMARK 927      BINDING AFFINITY PREDICTED BY RF-SCORE:    0.00 PKD
ROOT
HETATM    1  F   UNL     1     -12.068  16.317  70.282  1.00  0.00    -0.290 F  
HETATM    2  C   UNL     1     -11.170  15.848  69.372  1.00  0.00    -0.336 C  
HETATM    3  C   UNL     1     -11.187  14.346  69.225  1.00  0.00    -0.308 A  
HETATM    4  F   UNL     1     -11.443  16.493  68.206  1.00  0.00    -0.355 F  
HETATM    5  F   UNL     1      -9.954  16.308  69.780  1.00  0.00    -0.247 F  
HETATM    6  C   UNL     1     -12.078  13.561  69.966  1.00  0.00    -0.411 A  
HETATM    7  C   UNL     1     -12.006  12.168  69.905  1.00  0.00    -0.380 A  
HETATM    8  C   UNL     1     -11.044  11.531  69.107  1.00  0.00    -0.316 A  
HETATM    9  C   UNL     1     -10.204  12.311  68.304  1.00  0.00    -0.221 A  
HETATM   10  C   UNL     1     -10.274  13.709  68.368  1.00  0.00    -0.245 A  
ENDROOT
BRANCH   8  11
HETATM   11  C   UNL     1     -10.945  10.045  69.220  1.00  0.00    -0.228 C  
HETATM   12  O   UNL     1     -10.967   9.365  68.194  1.00  0.00    -0.166 OA 
HETATM   13  N   UNL     1     -10.869   9.499  70.484  1.00  0.00    -0.266 N  
HETATM   14  H   UNL     1     -10.849  10.096  71.311  1.00  0.00     0.000 HD 
BRANCH  13  15
HETATM   15  N   UNL     1     -10.820   8.113  70.603  1.00  0.00    -0.229 N  
HETATM   16  C   UNL     1     -11.848   7.443  71.225  1.00  0.00    -0.301 C  
HETATM   17  C   UNL     1     -11.405   6.017  71.451  1.00  0.00    -0.301 C  
HETATM   18  O   UNL     1     -12.909   7.924  71.599  1.00  0.00    -0.321 OA 
HETATM   19  C   UNL     1      -9.904   6.017  71.019  1.00  0.00    -0.220 C  
HETATM   20  C   UNL     1      -9.011   5.571  72.210  1.00  0.00    -0.143 C  
HETATM   21  C   UNL     1      -9.614   7.445  70.646  1.00  0.00    -0.171 C  
HETATM   22  O   UNL     1      -8.488   7.902  70.516  1.00  0.00    -0.122 OA 
HETATM   23  C   UNL     1      -9.330   6.522  73.367  1.00  0.00    -0.148 C  
HETATM   24  C   UNL     1     -10.622   6.521  73.745  1.00  0.00    -0.285 C  
HETATM   25  C   UNL     1     -11.505   5.568  72.943  1.00  0.00    -0.327 C  
HETATM   26  C   UNL     1     -10.925   4.136  72.970  1.00  0.00    -0.233 C  
HETATM   27  C   UNL     1      -9.840   3.660  73.915  1.00  0.00    -0.154 C  
HETATM   28  C   UNL     1      -9.469   4.143  72.534  1.00  0.00    -0.175 C  
ENDBRANCH  13  15
ENDBRANCH   8  11
TORSDOF 2
ENDMDL
MODEL       40
REMARK 921   NORMALIZED FREE ENERGY PREDICTED BY IDOCK:   -6.19 KCAL/MOL
REMARK 922        TOTAL FREE ENERGY PREDICTED BY IDOCK:   -7.37 KCAL/MOL
REMARK 923 INTER-LIGAND FREE ENERGY PREDICTED BY IDOCK:   -7.18 KCAL/MOL
REMARK 924 INTRA-LIGAND FREE ENERGY PREDICTED BY IDOCK:   -0.19 KCAL/MOL
REMARK 927      BINDING AFFINITY PREDICTED BY RF-SCORE:    0.00 PKD
ROOT
HETATM    1  F   UNL     1     -12.592  15.845  71.854  1.00  0.00    -0.416 F  
HETATM    2  C   UNL     1     -13.041  14.634  72.287  1.00  0.00    -0.364 C  
HETATM    3  C   UNL     1     -12.541  13.474  71.460  1.00  0.00    -0.358 A  
HETATM    4  F   UNL     1     -12.678  14.542  73.594  1.00  0.00    -0.579 F  
HETATM    5  F   UNL     1     -14.401  14.718  72.279  1.00  0.00    -0.488 F  
HETATM    6  C   UNL     1     -11.683  13.681  70.374  1.00  0.00    -0.223 A  
HETATM    7  C   UNL     1     -11.319  12.615  69.551  1.00  0.00    -0.227 A  
HETATM    8  C   UNL     1     -11.806  11.321  69.793  1.00  0.00    -0.437 A  
HETATM    9  C   UNL     1     -12.600  11.094  70.922  1.00  0.00    -0.483 A  
HETATM   10  C   UNL     1     -12.967  12.166  71.746  1.00  0.00    -0.437 A  
ENDROOT
BRANCH   8  11
HETATM   11  C   UNL     1     -11.484  10.275  68.776  1.00  0.00    -0.113 C  
HETATM   12  O   UNL     1     -11.741  10.494  67.592  1.00  0.00    -0.401 OA 
HETATM   13  N   UNL     1     -10.942   9.088  69.222  1.00  0.00    -0.418 N  
HETATM   14  H   UNL     1     -10.738   8.945  70.211  1.00  0.00     0.000 HD 
BRANCH  13  15
HETATM   15  N   UNL     1     -10.678   8.090  68.287  1.00  0.00    -0.091 N  
HETATM   16  C   UNL     1     -11.082   6.798  68.535  1.00  0.00    -0.142 C  
HETATM   17  C   UNL     1     -10.432   5.903  67.507  1.00  0.00    -0.306 C  
HETATM   18  O   UNL     1     -11.783   6.420  69.463  1.00  0.00    -0.366 OA 
HETATM   19  C   UNL     1      -9.462   6.855  66.738  1.00  0.00    -0.204 C  
HETATM   20  C   UNL     1      -8.004   6.328  66.852  1.00  0.00    -0.109 C  
HETATM   21  C   UNL     1      -9.600   8.182  67.433  1.00  0.00    -0.160 C  
HETATM   22  O   UNL     1      -8.811   9.106  67.303  1.00  0.00    -0.123 OA 
HETATM   23  C   UNL     1      -7.706   6.204  68.350  1.00  0.00    -0.103 C  
HETATM   24  C   UNL     1      -8.539   5.381  69.013  1.00  0.00    -0.102 C  
HETATM   25  C   UNL     1      -9.608   4.736  68.135  1.00  0.00    -0.200 C  
HETATM   26  C   UNL     1      -8.961   4.009  66.935  1.00  0.00    -0.141 C  
HETATM   27  C   UNL     1      -7.486   3.687  66.811  1.00  0.00    -0.079 C  
HETATM   28  C   UNL     1      -8.030   4.948  66.183  1.00  0.00    -0.107 C  
ENDBRANCH  13  15
ENDBRANCH   8  11
TORSDOF 2
ENDMDL
MODEL       41
REMARK 921   NORMALIZED FREE ENERGY PREDICTED BY IDOCK:   -6.17 KCAL/MOL
REMARK 922        TOTAL FREE ENERGY PREDICTED BY IDOCK:   -7.35 KCAL/MOL
REMARK 923 INTER-LIGAND FREE ENERGY PREDICTED BY IDOCK:   -6.85 KCAL/MOL
REMARK 924 INTRA-LIGAND FREE ENERGY PREDICTED BY IDOCK:   -0.50 KCAL/MOL
REMARK 927      BINDING AFFINITY PREDICTED BY RF-SCORE:    0.00 PKD
ROOT
HETATM    1  F   UNL     1      -9.053  18.981  66.793  1.00  0.00    -0.280 F  
HETATM    2  C   UNL     1     -10.039  18.576  67.641  1.00  0.00    -0.364 C  
HETATM    3  C   UNL     1     -10.223  17.078  67.683  1.00  0.00    -0.317 A  
HETATM    4  F   UNL     1      -9.732  19.103  68.856  1.00  0.00    -0.398 F  
HETATM    5  F   UNL     1     -11.169  19.218  67.228  1.00  0.00    -0.553 F  
HETATM    6  C   UNL     1      -9.413  16.232  66.918  1.00  0.00    -0.245 A  
HETATM    7  C   UNL     1      -9.666  14.860  66.880  1.00  0.00    -0.248 A  
HETATM    8  C   UNL     1     -10.734  14.305  67.602  1.00  0.00    -0.259 A  
HETATM    9  C   UNL     1     -11.497  15.136  68.431  1.00  0.00    -0.347 A  
HETATM   10  C   UNL     1     -11.243  16.513  68.466  1.00  0.00    -0.296 A  
ENDROOT
BRANCH   8  11
HETATM   11  C   UNL     1     -11.019  12.856  67.384  1.00  0.00    -0.260 C  
HETATM   12  O   UNL     1     -12.156  12.513  67.060  1.00  0.00    -0.521 OA 
HETATM   13  N   UNL     1      -9.993  11.958  67.592  1.00  0.00    -0.187 N  
HETATM   14  H   UNL     1      -9.062  12.281  67.855  1.00  0.00     0.000 HD 
BRANCH  13  15
HETATM   15  N   UNL     1     -10.259  10.601  67.432  1.00  0.00    -0.194 N  
HETATM   16  C   UNL     1     -10.350   9.788  68.538  1.00  0.00    -0.202 C  
HETATM   17  C   UNL     1     -10.367   8.355  68.061  1.00  0.00    -0.270 C  
HETATM   18  O   UNL     1     -10.344  10.146  69.708  1.00  0.00    -0.235 OA 
HETATM   19  C   UNL     1     -10.101   8.466  66.527  1.00  0.00    -0.317 C  
HETATM   20  C   UNL     1      -8.822   7.666  66.153  1.00  0.00    -0.192 C  
HETATM   21  C   UNL     1      -9.897   9.936  66.280  1.00  0.00    -0.245 C  
HETATM   22  O   UNL     1      -9.401  10.395  65.262  1.00  0.00    -0.182 OA 
HETATM   23  C   UNL     1      -7.694   8.225  67.027  1.00  0.00    -0.096 C  
HETATM   24  C   UNL     1      -7.920   8.126  68.350  1.00  0.00    -0.123 C  
HETATM   25  C   UNL     1      -9.253   7.474  68.709  1.00  0.00    -0.145 C  
HETATM   26  C   UNL     1      -9.385   6.094  68.027  1.00  0.00    -0.114 C  
HETATM   27  C   UNL     1      -8.245   5.338  67.375  1.00  0.00    -0.103 C  
HETATM   28  C   UNL     1      -9.139   6.214  66.531  1.00  0.00    -0.156 C  
ENDBRANCH  13  15
ENDBRANCH   8  11
TORSDOF 2
ENDMDL
MODEL       42
REMARK 921   NORMALIZED FREE ENERGY PREDICTED BY IDOCK:   -6.16 KCAL/MOL
REMARK 922        TOTAL FREE ENERGY PREDICTED BY IDOCK:   -7.32 KCAL/MOL
REMARK 923 INTER-LIGAND FREE ENERGY PREDICTED BY IDOCK:   -7.19 KCAL/MOL
REMARK 924 INTRA-LIGAND FREE ENERGY PREDICTED BY IDOCK:   -0.14 KCAL/MOL
REMARK 927      BINDING AFFINITY PREDICTED BY RF-SCORE:    0.00 PKD
ROOT
HETATM    1  F   UNL     1     -10.250  20.312  66.663  1.00  0.00    -0.527 F  
HETATM    2  C   UNL     1      -9.028  19.710  66.681  1.00  0.00    -0.362 C  
HETATM    3  C   UNL     1      -9.097  18.202  66.669  1.00  0.00    -0.290 A  
HETATM    4  F   UNL     1      -8.343  20.213  65.620  1.00  0.00    -0.332 F  
HETATM    5  F   UNL     1      -8.399  20.183  67.794  1.00  0.00    -0.332 F  
HETATM    6  C   UNL     1     -10.329  17.539  66.620  1.00  0.00    -0.319 A  
HETATM    7  C   UNL     1     -10.384  16.148  66.723  1.00  0.00    -0.291 A  
HETATM    8  C   UNL     1      -9.212  15.391  66.877  1.00  0.00    -0.254 A  
HETATM    9  C   UNL     1      -7.974  16.043  66.846  1.00  0.00    -0.283 A  
HETATM   10  C   UNL     1      -7.920  17.439  66.746  1.00  0.00    -0.278 A  
ENDROOT
BRANCH   8  11
HETATM   11  C   UNL     1      -9.378  13.928  67.128  1.00  0.00    -0.243 C  
HETATM   12  O   UNL     1      -9.165  13.488  68.257  1.00  0.00    -0.197 OA 
HETATM   13  N   UNL     1      -9.731  13.128  66.062  1.00  0.00    -0.404 N  
HETATM   14  H   UNL     1      -9.904  13.530  65.140  1.00  0.00     0.000 HD 
BRANCH  13  15
HETATM   15  N   UNL     1      -9.847  11.757  66.275  1.00  0.00    -0.215 N  
HETATM   16  C   UNL     1     -10.932  11.260  66.959  1.00  0.00    -0.294 C  
HETATM   17  C   UNL     1     -10.659   9.809  67.275  1.00  0.00    -0.320 C  
HETATM   18  O   UNL     1     -11.917  11.891  67.317  1.00  0.00    -0.605 OA 
HETATM   19  C   UNL     1      -9.181   9.597  66.817  1.00  0.00    -0.181 C  
HETATM   20  C   UNL     1      -8.318   9.124  68.021  1.00  0.00    -0.120 C  
HETATM   21  C   UNL     1      -8.730  10.951  66.343  1.00  0.00    -0.170 C  
HETATM   22  O   UNL     1      -7.561  11.257  66.163  1.00  0.00    -0.088 OA 
HETATM   23  C   UNL     1      -8.490  10.182  69.116  1.00  0.00    -0.157 C  
HETATM   24  C   UNL     1      -9.763  10.364  69.514  1.00  0.00    -0.196 C  
HETATM   25  C   UNL     1     -10.774   9.475  68.795  1.00  0.00    -0.218 C  
HETATM   26  C   UNL     1     -10.371   7.988  68.911  1.00  0.00    -0.222 C  
HETATM   27  C   UNL     1      -9.328   7.446  69.867  1.00  0.00    -0.154 C  
HETATM   28  C   UNL     1      -8.937   7.788  68.450  1.00  0.00    -0.132 C  
ENDBRANCH  13  15
ENDBRANCH   8  11
TORSDOF 2
ENDMDL
MODEL       43
REMARK 921   NORMALIZED FREE ENERGY PREDICTED BY IDOCK:   -6.15 KCAL/MOL
REMARK 922        TOTAL FREE ENERGY PREDICTED BY IDOCK:   -7.32 KCAL/MOL
REMARK 923 INTER-LIGAND FREE ENERGY PREDICTED BY IDOCK:   -6.82 KCAL/MOL
REMARK 924 INTRA-LIGAND FREE ENERGY PREDICTED BY IDOCK:   -0.50 KCAL/MOL
REMARK 927      BINDING AFFINITY PREDICTED BY RF-SCORE:    0.00 PKD
ROOT
HETATM    1  F   UNL     1      -7.582   7.194  63.761  1.00  0.00    -0.080 F  
HETATM    2  C   UNL     1      -7.955   7.184  65.071  1.00  0.00    -0.129 C  
HETATM    3  C   UNL     1      -8.766   8.391  65.478  1.00  0.00    -0.196 A  
HETATM    4  F   UNL     1      -8.620   6.014  65.266  1.00  0.00    -0.146 F  
HETATM    5  F   UNL     1      -6.798   7.083  65.785  1.00  0.00    -0.051 F  
HETATM    6  C   UNL     1      -9.093   9.385  64.548  1.00  0.00    -0.205 A  
HETATM    7  C   UNL     1      -9.745  10.547  64.960  1.00  0.00    -0.351 A  
HETATM    8  C   UNL     1     -10.083  10.743  66.308  1.00  0.00    -0.285 A  
HETATM    9  C   UNL     1      -9.830   9.719  67.227  1.00  0.00    -0.228 A  
HETATM   10  C   UNL     1      -9.172   8.553  66.813  1.00  0.00    -0.215 A  
ENDROOT
BRANCH   8  11
HETATM   11  C   UNL     1     -10.642  12.078  66.680  1.00  0.00    -0.232 C  
HETATM   12  O   UNL     1     -11.813  12.151  67.054  1.00  0.00    -0.547 OA 
HETATM   13  N   UNL     1      -9.821  13.178  66.552  1.00  0.00    -0.260 N  
HETATM   14  H   UNL     1      -8.855  13.077  66.243  1.00  0.00     0.000 HD 
BRANCH  13  15
HETATM   15  N   UNL     1     -10.346  14.432  66.854  1.00  0.00    -0.263 N  
HETATM   16  C   UNL     1     -10.643  15.312  65.840  1.00  0.00    -0.335 C  
HETATM   17  C   UNL     1     -10.925  16.660  66.460  1.00  0.00     0.112 C  
HETATM   18  O   UNL     1     -10.615  15.076  64.640  1.00  0.00    -0.348 OA 
HETATM   19  C   UNL     1     -10.578  16.459  67.970  1.00  0.00    -0.314 C  
HETATM   20  C   UNL     1      -9.469  17.461  68.395  1.00  0.00    -0.293 C  
HETATM   21  C   UNL     1     -10.075  15.044  68.060  1.00  0.00    -0.223 C  
HETATM   22  O   UNL     1      -9.455  14.599  69.015  1.00  0.00    -0.196 OA 
HETATM   23  C   UNL     1      -8.290  17.228  67.444  1.00  0.00    -0.211 C  
HETATM   24  C   UNL     1      -8.586  17.405  66.143  1.00  0.00    -0.191 C  
HETATM   25  C   UNL     1     -10.036  17.805  65.882  1.00  0.00    -0.183 C  
HETATM   26  C   UNL     1     -10.412  19.058  66.704  1.00  0.00    -0.517 C  
HETATM   27  C   UNL     1      -9.419  19.963  67.404  1.00  0.00    -0.484 C  
HETATM   28  C   UNL     1     -10.085  18.849  68.174  1.00  0.00    -0.447 C  
ENDBRANCH  13  15
ENDBRANCH   8  11
TORSDOF 2
ENDMDL
MODEL       44
REMARK 921   NORMALIZED FREE ENERGY PREDICTED BY IDOCK:   -6.14 KCAL/MOL
REMARK 922        TOTAL FREE ENERGY PREDICTED BY IDOCK:   -7.31 KCAL/MOL
REMARK 923 INTER-LIGAND FREE ENERGY PREDICTED BY IDOCK:   -7.15 KCAL/MOL
REMARK 924 INTRA-LIGAND FREE ENERGY PREDICTED BY IDOCK:   -0.17 KCAL/MOL
REMARK 927      BINDING AFFINITY PREDICTED BY RF-SCORE:    0.00 PKD
ROOT
HETATM    1  F   UNL     1     -10.478   4.502  66.795  1.00  0.00    -0.245 F  
HETATM    2  C   UNL     1      -9.377   5.151  66.325  1.00  0.00    -0.151 C  
HETATM    3  C   UNL     1      -9.430   6.648  66.517  1.00  0.00    -0.192 A  
HETATM    4  F   UNL     1      -8.309   4.580  66.943  1.00  0.00    -0.104 F  
HETATM    5  F   UNL     1      -9.277   4.808  65.009  1.00  0.00    -0.149 F  
HETATM    6  C   UNL     1     -10.523   7.254  67.144  1.00  0.00    -0.394 A  
HETATM    7  C   UNL     1     -10.612   8.645  67.215  1.00  0.00    -0.308 A  
HETATM    8  C   UNL     1      -9.613   9.459  66.659  1.00  0.00    -0.250 A  
HETATM    9  C   UNL     1      -8.479   8.857  66.101  1.00  0.00    -0.133 A  
HETATM   10  C   UNL     1      -8.393   7.460  66.028  1.00  0.00    -0.143 A  
ENDROOT
BRANCH   8  11
HETATM   11  C   UNL     1      -9.865  10.931  66.649  1.00  0.00    -0.198 C  
HETATM   12  O   UNL     1      -8.949  11.696  66.950  1.00  0.00    -0.178 OA 
HETATM   13  N   UNL     1     -11.136  11.365  66.334  1.00  0.00    -0.277 N  
HETATM   14  H   UNL     1     -11.868  10.701  66.085  1.00  0.00     0.000 HD 
BRANCH  13  15
HETATM   15  N   UNL     1     -11.393  12.733  66.364  1.00  0.00    -0.306 N  
HETATM   16  C   UNL     1     -10.931  13.538  65.349  1.00  0.00    -0.292 C  
HETATM   17  C   UNL     1     -11.111  14.975  65.776  1.00  0.00    -0.346 C  
HETATM   18  O   UNL     1     -10.400  13.168  64.311  1.00  0.00    -0.421 OA 
HETATM   19  C   UNL     1     -11.589  14.870  67.259  1.00  0.00    -0.337 C  
HETATM   20  C   UNL     1     -10.598  15.623  68.189  1.00  0.00    -0.274 C  
HETATM   21  C   UNL     1     -11.579  13.396  67.559  1.00  0.00    -0.344 C  
HETATM   22  O   UNL     1     -11.628  12.928  68.687  1.00  0.00    -0.272 OA 
HETATM   23  C   UNL     1      -9.216  15.014  67.930  1.00  0.00    -0.182 C  
HETATM   24  C   UNL     1      -8.801  15.108  66.653  1.00  0.00    -0.321 C  
HETATM   25  C   UNL     1      -9.791  15.806  65.725  1.00  0.00    -0.383 C  
HETATM   26  C   UNL     1     -10.170  17.197  66.281  1.00  0.00    -0.340 C  
HETATM   27  C   UNL     1      -9.432  17.915  67.392  1.00  0.00    -0.258 C  
HETATM   28  C   UNL     1     -10.648  17.083  67.720  1.00  0.00    -0.350 C  
ENDBRANCH  13  15
ENDBRANCH   8  11
TORSDOF 2
ENDMDL
MODEL       45
REMARK 921   NORMALIZED FREE ENERGY PREDICTED BY IDOCK:   -6.13 KCAL/MOL
REMARK 922        TOTAL FREE ENERGY PREDICTED BY IDOCK:   -7.29 KCAL/MOL
REMARK 923 INTER-LIGAND FREE ENERGY PREDICTED BY IDOCK:   -6.88 KCAL/MOL
REMARK 924 INTRA-LIGAND FREE ENERGY PREDICTED BY IDOCK:   -0.41 KCAL/MOL
REMARK 927      BINDING AFFINITY PREDICTED BY RF-SCORE:    0.00 PKD
ROOT
HETATM    1  F   UNL     1     -12.508  16.452  71.806  1.00  0.00    -0.460 F  
HETATM    2  C   UNL     1     -12.880  15.208  72.216  1.00  0.00    -0.343 C  
HETATM    3  C   UNL     1     -12.400  14.103  71.306  1.00  0.00    -0.447 A  
HETATM    4  F   UNL     1     -12.421  15.077  73.490  1.00  0.00    -0.461 F  
HETATM    5  F   UNL     1     -14.240  15.239  72.308  1.00  0.00    -0.505 F  
HETATM    6  C   UNL     1     -11.630  14.388  70.173  1.00  0.00    -0.327 A  
HETATM    7  C   UNL     1     -11.288  13.371  69.281  1.00  0.00    -0.314 A  
HETATM    8  C   UNL     1     -11.710  12.050  69.499  1.00  0.00    -0.408 A  
HETATM    9  C   UNL     1     -12.412  11.747  70.671  1.00  0.00    -0.364 A  
HETATM   10  C   UNL     1     -12.757  12.769  71.565  1.00  0.00    -0.330 A  
ENDROOT
BRANCH   8  11
HETATM   11  C   UNL     1     -11.426  11.060  68.418  1.00  0.00    -0.308 C  
HETATM   12  O   UNL     1     -12.011  11.168  67.340  1.00  0.00    -0.532 OA 
HETATM   13  N   UNL     1     -10.537  10.042  68.694  1.00  0.00    -0.203 N  
HETATM   14  H   UNL     1     -10.067   9.988  69.597  1.00  0.00     0.000 HD 
BRANCH  13  15
HETATM   15  N   UNL     1     -10.297   9.089  67.707  1.00  0.00    -0.233 N  
HETATM   16  C   UNL     1     -10.578   7.765  67.953  1.00  0.00    -0.156 C  
HETATM   17  C   UNL     1      -9.972   6.946  66.838  1.00  0.00    -0.264 C  
HETATM   18  O   UNL     1     -11.152   7.312  68.934  1.00  0.00    -0.080 OA 
HETATM   19  C   UNL     1      -9.157   7.987  66.007  1.00  0.00    -0.193 C  
HETATM   20  C   UNL     1      -7.660   7.570  65.959  1.00  0.00    -0.088 C  
HETATM   21  C   UNL     1      -9.321   9.283  66.753  1.00  0.00    -0.156 C  
HETATM   22  O   UNL     1      -8.619  10.267  66.574  1.00  0.00    -0.129 OA 
HETATM   23  C   UNL     1      -7.204   7.434  67.416  1.00  0.00    -0.093 C  
HETATM   24  C   UNL     1      -7.903   6.534  68.132  1.00  0.00    -0.106 C  
HETATM   25  C   UNL     1      -9.005   5.830  67.345  1.00  0.00    -0.108 C  
HETATM   26  C   UNL     1      -8.432   5.184  66.065  1.00  0.00    -0.118 C  
HETATM   27  C   UNL     1      -6.957   4.977  65.785  1.00  0.00    -0.066 C  
HETATM   28  C   UNL     1      -7.653   6.207  65.254  1.00  0.00    -0.089 C  
ENDBRANCH  13  15
ENDBRANCH   8  11
TORSDOF 2
ENDMDL
MODEL       46
REMARK 921   NORMALIZED FREE ENERGY PREDICTED BY IDOCK:   -6.09 KCAL/MOL
REMARK 922        TOTAL FREE ENERGY PREDICTED BY IDOCK:   -7.25 KCAL/MOL
REMARK 923 INTER-LIGAND FREE ENERGY PREDICTED BY IDOCK:   -7.10 KCAL/MOL
REMARK 924 INTRA-LIGAND FREE ENERGY PREDICTED BY IDOCK:   -0.15 KCAL/MOL
REMARK 927      BINDING AFFINITY PREDICTED BY RF-SCORE:    0.00 PKD
ROOT
HETATM    1  F   UNL     1     -10.066  19.926  69.719  1.00  0.00    -0.465 F  
HETATM    2  C   UNL     1      -9.614  19.615  68.473  1.00  0.00    -0.382 C  
HETATM    3  C   UNL     1      -9.764  18.154  68.122  1.00  0.00    -0.331 A  
HETATM    4  F   UNL     1     -10.280  20.432  67.614  1.00  0.00    -0.526 F  
HETATM    5  F   UNL     1      -8.311  20.016  68.440  1.00  0.00    -0.341 F  
HETATM    6  C   UNL     1     -10.341  17.253  69.025  1.00  0.00    -0.330 A  
HETATM    7  C   UNL     1     -10.372  15.889  68.734  1.00  0.00    -0.228 A  
HETATM    8  C   UNL     1      -9.826  15.395  67.539  1.00  0.00    -0.217 A  
HETATM    9  C   UNL     1      -9.320  16.300  66.599  1.00  0.00    -0.272 A  
HETATM   10  C   UNL     1      -9.287  17.669  66.893  1.00  0.00    -0.268 A  
ENDROOT
BRANCH   8  11
HETATM   11  C   UNL     1      -9.769  13.910  67.382  1.00  0.00    -0.234 C  
HETATM   12  O   UNL     1      -9.969  13.198  68.366  1.00  0.00    -0.235 OA 
HETATM   13  N   UNL     1      -9.459  13.406  66.137  1.00  0.00    -0.458 N  
HETATM   14  H   UNL     1      -9.305  14.028  65.344  1.00  0.00     0.000 HD 
BRANCH  13  15
HETATM   15  N   UNL     1      -9.361  12.025  65.989  1.00  0.00    -0.221 N  
HETATM   16  C   UNL     1     -10.502  11.256  65.979  1.00  0.00    -0.257 C  
HETATM   17  C   UNL     1     -10.088   9.808  66.084  1.00  0.00    -0.315 C  
HETATM   18  O   UNL     1     -11.655  11.665  65.961  1.00  0.00    -0.362 OA 
HETATM   19  C   UNL     1      -8.547   9.874  66.328  1.00  0.00    -0.137 C  
HETATM   20  C   UNL     1      -8.193   9.173  67.669  1.00  0.00    -0.108 C  
HETATM   21  C   UNL     1      -8.235  11.343  66.400  1.00  0.00    -0.124 C  
HETATM   22  O   UNL     1      -7.192  11.799  66.846  1.00  0.00    -0.144 OA 
HETATM   23  C   UNL     1      -9.030   9.866  68.750  1.00  0.00    -0.140 C  
HETATM   24  C   UNL     1     -10.359   9.806  68.544  1.00  0.00    -0.228 C  
HETATM   25  C   UNL     1     -10.760   9.057  67.276  1.00  0.00    -0.222 C  
HETATM   26  C   UNL     1     -10.140   7.642  67.260  1.00  0.00    -0.306 C  
HETATM   27  C   UNL     1      -9.509   6.961  68.457  1.00  0.00    -0.133 C  
HETATM   28  C   UNL     1      -8.638   7.717  67.483  1.00  0.00    -0.119 C  
ENDBRANCH  13  15
ENDBRANCH   8  11
TORSDOF 2
ENDMDL
MODEL       47
REMARK 921   NORMALIZED FREE ENERGY PREDICTED BY IDOCK:   -6.06 KCAL/MOL
REMARK 922        TOTAL FREE ENERGY PREDICTED BY IDOCK:   -7.22 KCAL/MOL
REMARK 923 INTER-LIGAND FREE ENERGY PREDICTED BY IDOCK:   -7.06 KCAL/MOL
REMARK 924 INTRA-LIGAND FREE ENERGY PREDICTED BY IDOCK:   -0.16 KCAL/MOL
REMARK 927      BINDING AFFINITY PREDICTED BY RF-SCORE:    0.00 PKD
ROOT
HETATM    1  F   UNL     1     -12.259  15.027  65.260  1.00  0.00    -0.259 F  
HETATM    2  C   UNL     1     -11.633  13.953  64.705  1.00  0.00    -0.385 C  
HETATM    3  C   UNL     1     -11.513  12.773  65.639  1.00  0.00    -0.379 A  
HETATM    4  F   UNL     1     -12.324  13.657  63.572  1.00  0.00    -0.524 F  
HETATM    5  F   UNL     1     -10.414  14.405  64.295  1.00  0.00    -0.339 F  
HETATM    6  C   UNL     1     -12.034  12.828  66.937  1.00  0.00    -0.380 A  
HETATM    7  C   UNL     1     -11.818  11.775  67.827  1.00  0.00    -0.266 A  
HETATM    8  C   UNL     1     -11.076  10.647  67.441  1.00  0.00    -0.341 A  
HETATM    9  C   UNL     1     -10.622  10.553  66.121  1.00  0.00    -0.182 A  
HETATM   10  C   UNL     1     -10.837  11.612  65.229  1.00  0.00    -0.340 A  
ENDROOT
BRANCH   8  11
HETATM   11  C   UNL     1     -10.770   9.641  68.502  1.00  0.00    -0.200 C  
HETATM   12  O   UNL     1     -11.187   9.833  69.644  1.00  0.00    -0.234 OA 
HETATM   13  N   UNL     1      -9.998   8.553  68.155  1.00  0.00    -0.174 N  
HETATM   14  H   UNL     1      -9.675   8.426  67.196  1.00  0.00     0.000 HD 
BRANCH  13  15
HETATM   15  N   UNL     1      -9.670   7.632  69.146  1.00  0.00    -0.162 N  
HETATM   16  C   UNL     1     -10.596   6.695  69.541  1.00  0.00    -0.241 C  
HETATM   17  C   UNL     1     -10.078   6.027  70.792  1.00  0.00    -0.248 C  
HETATM   18  O   UNL     1     -11.683   6.481  69.021  1.00  0.00    -0.133 OA 
HETATM   19  C   UNL     1      -8.795   6.842  71.149  1.00  0.00    -0.137 C  
HETATM   20  C   UNL     1      -8.935   7.451  72.572  1.00  0.00    -0.165 C  
HETATM   21  C   UNL     1      -8.733   7.930  70.113  1.00  0.00    -0.136 C  
HETATM   22  O   UNL     1      -8.034   8.927  70.210  1.00  0.00    -0.092 OA 
HETATM   23  C   UNL     1     -10.223   8.281  72.561  1.00  0.00    -0.386 C  
HETATM   24  C   UNL     1     -11.330   7.579  72.258  1.00  0.00    -0.338 C  
HETATM   25  C   UNL     1     -11.076   6.098  71.990  1.00  0.00    -0.322 C  
HETATM   26  C   UNL     1     -10.326   5.451  73.176  1.00  0.00    -0.231 C  
HETATM   27  C   UNL     1     -10.159   6.084  74.542  1.00  0.00    -0.328 C  
HETATM   28  C   UNL     1      -9.071   6.242  73.508  1.00  0.00    -0.132 C  
ENDBRANCH  13  15
ENDBRANCH   8  11
TORSDOF 2
ENDMDL
MODEL       48
REMARK 921   NORMALIZED FREE ENERGY PREDICTED BY IDOCK:   -6.00 KCAL/MOL
REMARK 922        TOTAL FREE ENERGY PREDICTED BY IDOCK:   -7.15 KCAL/MOL
REMARK 923 INTER-LIGAND FREE ENERGY PREDICTED BY IDOCK:   -6.64 KCAL/MOL
REMARK 924 INTRA-LIGAND FREE ENERGY PREDICTED BY IDOCK:   -0.51 KCAL/MOL
REMARK 927      BINDING AFFINITY PREDICTED BY RF-SCORE:    0.00 PKD
ROOT
HETATM    1  F   UNL     1      -9.732   2.469  69.593  1.00  0.00    -0.197 F  
HETATM    2  C   UNL     1      -9.532   3.083  70.792  1.00  0.00    -0.158 C  
HETATM    3  C   UNL     1      -9.754   4.576  70.752  1.00  0.00    -0.267 A  
HETATM    4  F   UNL     1     -10.349   2.454  71.679  1.00  0.00    -0.215 F  
HETATM    5  F   UNL     1      -8.259   2.766  71.163  1.00  0.00    -0.054 F  
HETATM    6  C   UNL     1     -10.149   5.212  69.570  1.00  0.00    -0.316 A  
HETATM    7  C   UNL     1     -10.241   6.604  69.518  1.00  0.00    -0.208 A  
HETATM    8  C   UNL     1      -9.940   7.388  70.643  1.00  0.00    -0.186 A  
HETATM    9  C   UNL     1      -9.623   6.752  71.848  1.00  0.00    -0.150 A  
HETATM   10  C   UNL     1      -9.527   5.355  71.898  1.00  0.00    -0.176 A  
ENDROOT
BRANCH   8  11
HETATM   11  C   UNL     1      -9.922   8.869  70.451  1.00  0.00    -0.194 C  
HETATM   12  O   UNL     1      -9.591   9.589  71.393  1.00  0.00    -0.217 OA 
HETATM   13  N   UNL     1     -10.315   9.365  69.226  1.00  0.00    -0.201 N  
HETATM   14  H   UNL     1     -10.578   8.737  68.467  1.00  0.00     0.000 HD 
BRANCH  13  15
HETATM   15  N   UNL     1     -10.343  10.746  69.050  1.00  0.00    -0.207 N  
HETATM   16  C   UNL     1     -11.549  11.395  68.923  1.00  0.00    -0.323 C  
HETATM   17  C   UNL     1     -11.271  12.810  68.476  1.00  0.00    -0.314 C  
HETATM   18  O   UNL     1     -12.659  10.904  69.073  1.00  0.00    -0.350 OA 
HETATM   19  C   UNL     1      -9.734  12.823  68.202  1.00  0.00    -0.223 C  
HETATM   20  C   UNL     1      -9.463  13.223  66.724  1.00  0.00    -0.257 C  
HETATM   21  C   UNL     1      -9.289  11.409  68.456  1.00  0.00    -0.180 C  
HETATM   22  O   UNL     1      -8.215  10.954  68.091  1.00  0.00    -0.113 OA 
HETATM   23  C   UNL     1     -10.247  12.230  65.859  1.00  0.00    -0.274 C  
HETATM   24  C   UNL     1     -11.573  12.221  66.091  1.00  0.00    -0.450 C  
HETATM   25  C   UNL     1     -12.024  13.205  67.167  1.00  0.00    -0.397 C  
HETATM   26  C   UNL     1     -11.537  14.633  66.838  1.00  0.00    -0.374 C  
HETATM   27  C   UNL     1     -10.986  15.072  65.496  1.00  0.00    -0.364 C  
HETATM   28  C   UNL     1     -10.037  14.639  66.587  1.00  0.00    -0.277 C  
ENDBRANCH  13  15
ENDBRANCH   8  11
TORSDOF 2
ENDMDL
MODEL       49
REMARK 921   NORMALIZED FREE ENERGY PREDICTED BY IDOCK:   -5.99 KCAL/MOL
REMARK 922        TOTAL FREE ENERGY PREDICTED BY IDOCK:   -7.14 KCAL/MOL
REMARK 923 INTER-LIGAND FREE ENERGY PREDICTED BY IDOCK:   -6.66 KCAL/MOL
REMARK 924 INTRA-LIGAND FREE ENERGY PREDICTED BY IDOCK:   -0.49 KCAL/MOL
REMARK 927      BINDING AFFINITY PREDICTED BY RF-SCORE:    0.00 PKD
ROOT
HETATM    1  F   UNL     1      -9.881   2.768  68.075  1.00  0.00    -0.235 F  
HETATM    2  C   UNL     1      -9.277   3.388  69.127  1.00  0.00    -0.160 C  
HETATM    3  C   UNL     1      -9.446   4.888  69.122  1.00  0.00    -0.205 A  
HETATM    4  F   UNL     1      -9.781   2.806  70.248  1.00  0.00    -0.224 F  
HETATM    5  F   UNL     1      -7.965   3.021  69.069  1.00  0.00    -0.055 F  
HETATM    6  C   UNL     1     -10.182   5.526  68.117  1.00  0.00    -0.232 A  
HETATM    7  C   UNL     1     -10.237   6.919  68.061  1.00  0.00    -0.209 A  
HETATM    8  C   UNL     1      -9.556   7.704  69.004  1.00  0.00    -0.151 A  
HETATM    9  C   UNL     1      -8.884   7.071  70.056  1.00  0.00    -0.142 A  
HETATM   10  C   UNL     1      -8.828   5.672  70.110  1.00  0.00    -0.144 A  
ENDROOT
BRANCH   8  11
HETATM   11  C   UNL     1      -9.547   9.181  68.778  1.00  0.00    -0.159 C  
HETATM   12  O   UNL     1      -9.061   9.914  69.639  1.00  0.00    -0.201 OA 
HETATM   13  N   UNL     1     -10.123   9.658  67.619  1.00  0.00    -0.181 N  
HETATM   14  H   UNL     1     -10.512   9.019  66.927  1.00  0.00     0.000 HD 
BRANCH  13  15
HETATM   15  N   UNL     1     -10.159  11.035  67.418  1.00  0.00    -0.182 N  
HETATM   16  C   UNL     1     -11.283  11.748  67.768  1.00  0.00    -0.266 C  
HETATM   17  C   UNL     1     -11.149  13.138  67.194  1.00  0.00    -0.305 C  
HETATM   18  O   UNL     1     -12.256  11.321  68.374  1.00  0.00    -0.604 OA 
HETATM   19  C   UNL     1      -9.858  13.061  66.318  1.00  0.00    -0.278 C  
HETATM   20  C   UNL     1     -10.196  13.421  64.845  1.00  0.00    -0.339 C  
HETATM   21  C   UNL     1      -9.411  11.629  66.424  1.00  0.00    -0.217 C  
HETATM   22  O   UNL     1      -8.600  11.110  65.671  1.00  0.00    -0.167 OA 
HETATM   23  C   UNL     1     -11.307  12.459  64.410  1.00  0.00    -0.396 C  
HETATM   24  C   UNL     1     -12.422  12.527  65.161  1.00  0.00    -0.451 C  
HETATM   25  C   UNL     1     -12.353  13.552  66.290  1.00  0.00    -0.440 C  
HETATM   26  C   UNL     1     -11.979  14.946  65.737  1.00  0.00    -0.052 C  
HETATM   27  C   UNL     1     -12.005  15.331  64.272  1.00  0.00    -0.236 C  
HETATM   28  C   UNL     1     -10.713  14.864  64.899  1.00  0.00    -0.426 C  
ENDBRANCH  13  15
ENDBRANCH   8  11
TORSDOF 2
ENDMDL
MODEL       50
REMARK 921   NORMALIZED FREE ENERGY PREDICTED BY IDOCK:   -5.98 KCAL/MOL
REMARK 922        TOTAL FREE ENERGY PREDICTED BY IDOCK:   -7.13 KCAL/MOL
REMARK 923 INTER-LIGAND FREE ENERGY PREDICTED BY IDOCK:   -6.96 KCAL/MOL
REMARK 924 INTRA-LIGAND FREE ENERGY PREDICTED BY IDOCK:   -0.16 KCAL/MOL
REMARK 927      BINDING AFFINITY PREDICTED BY RF-SCORE:    0.00 PKD
ROOT
HETATM    1  F   UNL     1     -11.858   8.836  70.372  1.00  0.00    -0.234 F  
HETATM    2  C   UNL     1     -12.414   9.946  70.934  1.00  0.00    -0.307 C  
HETATM    3  C   UNL     1     -11.949  11.238  70.307  1.00  0.00    -0.466 A  
HETATM    4  F   UNL     1     -13.761   9.777  70.851  1.00  0.00    -0.418 F  
HETATM    5  F   UNL     1     -12.108   9.883  72.261  1.00  0.00    -0.353 F  
HETATM    6  C   UNL     1     -11.046  11.234  69.237  1.00  0.00    -0.314 A  
HETATM    7  C   UNL     1     -10.538  12.436  68.741  1.00  0.00    -0.213 A  
HETATM    8  C   UNL     1     -10.919  13.665  69.303  1.00  0.00    -0.189 A  
HETATM    9  C   UNL     1     -11.881  13.677  70.319  1.00  0.00    -0.336 A  
HETATM   10  C   UNL     1     -12.388  12.470  70.818  1.00  0.00    -0.376 A  
ENDROOT
BRANCH   8  11
HETATM   11  C   UNL     1     -10.212  14.884  68.808  1.00  0.00    -0.243 C  
HETATM   12  O   UNL     1      -9.779  14.897  67.657  1.00  0.00    -0.210 OA 
HETATM   13  N   UNL     1     -10.048  15.934  69.687  1.00  0.00    -0.275 N  
HETATM   14  H   UNL     1     -10.426  15.889  70.633  1.00  0.00     0.000 HD 
BRANCH  13  15
HETATM   15  N   UNL     1      -9.354  17.059  69.249  1.00  0.00    -0.071 N  
HETATM   16  C   UNL     1      -9.972  17.964  68.418  1.00  0.00    -0.367 C  
HETATM   17  C   UNL     1      -8.918  18.910  67.895  1.00  0.00    -0.328 C  
HETATM   18  O   UNL     1     -11.152  17.968  68.096  1.00  0.00    -0.118 OA 
HETATM   19  C   UNL     1      -7.577  18.306  68.418  1.00  0.00    -0.302 C  
HETATM   20  C   UNL     1      -6.642  17.977  67.220  1.00  0.00    -0.190 C  
HETATM   21  C   UNL     1      -7.980  17.046  69.134  1.00  0.00    -0.066 C  
HETATM   22  O   UNL     1      -7.200  16.158  69.445  1.00  0.00    -0.219 OA 
HETATM   23  C   UNL     1      -7.435  17.044  66.299  1.00  0.00    -0.318 C  
HETATM   24  C   UNL     1      -8.589  17.565  65.843  1.00  0.00     0.046 C  
HETATM   25  C   UNL     1      -8.871  18.982  66.336  1.00  0.00    -0.326 C  
HETATM   26  C   UNL     1      -7.684  19.917  66.013  1.00  0.00    -0.337 C  
HETATM   27  C   UNL     1      -6.554  19.583  65.061  1.00  0.00    -0.235 C  
HETATM   28  C   UNL     1      -6.384  19.328  66.539  1.00  0.00    -0.197 C  
ENDBRANCH  13  15
ENDBRANCH   8  11
TORSDOF 2
ENDMDL
MODEL       51
REMARK 921   NORMALIZED FREE ENERGY PREDICTED BY IDOCK:   -5.95 KCAL/MOL
REMARK 922        TOTAL FREE ENERGY PREDICTED BY IDOCK:   -7.09 KCAL/MOL
REMARK 923 INTER-LIGAND FREE ENERGY PREDICTED BY IDOCK:   -6.60 KCAL/MOL
REMARK 924 INTRA-LIGAND FREE ENERGY PREDICTED BY IDOCK:   -0.50 KCAL/MOL
REMARK 927      BINDING AFFINITY PREDICTED BY RF-SCORE:    0.00 PKD
ROOT
HETATM    1  F   UNL     1      -5.717  16.402  66.734  1.00  0.00    -0.168 F  
HETATM    2  C   UNL     1      -7.036  16.629  66.984  1.00  0.00    -0.206 C  
HETATM    3  C   UNL     1      -7.786  15.400  67.438  1.00  0.00    -0.224 A  
HETATM    4  F   UNL     1      -7.079  17.637  67.896  1.00  0.00    -0.174 F  
HETATM    5  F   UNL     1      -7.549  17.144  65.831  1.00  0.00    -0.324 F  
HETATM    6  C   UNL     1      -7.130  14.173  67.589  1.00  0.00    -0.199 A  
HETATM    7  C   UNL     1      -7.855  13.021  67.900  1.00  0.00    -0.149 A  
HETATM    8  C   UNL     1      -9.248  13.070  68.063  1.00  0.00    -0.212 A  
HETATM    9  C   UNL     1      -9.897  14.308  67.991  1.00  0.00    -0.224 A  
HETATM   10  C   UNL     1      -9.169  15.463  67.676  1.00  0.00    -0.187 A  
ENDROOT
BRANCH   8  11
HETATM   11  C   UNL     1      -9.956  11.767  68.245  1.00  0.00    -0.200 C  
HETATM   12  O   UNL     1     -10.766  11.403  67.393  1.00  0.00    -0.207 OA 
HETATM   13  N   UNL     1      -9.690  11.045  69.389  1.00  0.00    -0.427 N  
HETATM   14  H   UNL     1      -9.008  11.376  70.071  1.00  0.00     0.000 HD 
BRANCH  13  15
HETATM   15  N   UNL     1     -10.376   9.849  69.590  1.00  0.00    -0.224 N  
HETATM   16  C   UNL     1     -11.396   9.793  70.510  1.00  0.00    -0.314 C  
HETATM   17  C   UNL     1     -11.761   8.342  70.711  1.00  0.00    -0.213 C  
HETATM   18  O   UNL     1     -11.880  10.737  71.119  1.00  0.00    -0.306 OA 
HETATM   19  C   UNL     1     -10.681   7.565  69.894  1.00  0.00    -0.254 C  
HETATM   20  C   UNL     1      -9.900   6.602  70.831  1.00  0.00    -0.197 C  
HETATM   21  C   UNL     1      -9.769   8.633  69.356  1.00  0.00    -0.176 C  
HETATM   22  O   UNL     1      -8.657   8.415  68.897  1.00  0.00    -0.132 OA 
HETATM   23  C   UNL     1      -9.331   7.467  71.961  1.00  0.00    -0.157 C  
HETATM   24  C   UNL     1     -10.261   8.133  72.669  1.00  0.00    -0.388 C  
HETATM   25  C   UNL     1     -11.694   7.888  72.203  1.00  0.00    -0.385 C  
HETATM   26  C   UNL     1     -12.006   6.375  72.178  1.00  0.00    -0.346 C  
HETATM   27  C   UNL     1     -11.155   5.304  72.829  1.00  0.00    -0.346 C  
HETATM   28  C   UNL     1     -10.958   5.629  71.368  1.00  0.00    -0.260 C  
ENDBRANCH  13  15
ENDBRANCH   8  11
TORSDOF 2
ENDMDL
MODEL       52
REMARK 921   NORMALIZED FREE ENERGY PREDICTED BY IDOCK:   -5.90 KCAL/MOL
REMARK 922        TOTAL FREE ENERGY PREDICTED BY IDOCK:   -7.04 KCAL/MOL
REMARK 923 INTER-LIGAND FREE ENERGY PREDICTED BY IDOCK:   -6.56 KCAL/MOL
REMARK 924 INTRA-LIGAND FREE ENERGY PREDICTED BY IDOCK:   -0.48 KCAL/MOL
REMARK 927      BINDING AFFINITY PREDICTED BY RF-SCORE:    0.00 PKD
ROOT
HETATM    1  F   UNL     1      -9.090  16.506  66.044  1.00  0.00    -0.302 F  
HETATM    2  C   UNL     1     -10.383  16.099  66.171  1.00  0.00    -0.339 C  
HETATM    3  C   UNL     1     -10.535  14.786  66.901  1.00  0.00    -0.277 A  
HETATM    4  F   UNL     1     -11.042  17.119  66.783  1.00  0.00    -0.115 F  
HETATM    5  F   UNL     1     -10.879  16.038  64.903  1.00  0.00    -0.403 F  
HETATM    6  C   UNL     1      -9.417  14.106  67.397  1.00  0.00    -0.220 A  
HETATM    7  C   UNL     1      -9.559  12.841  67.970  1.00  0.00    -0.217 A  
HETATM    8  C   UNL     1     -10.819  12.229  68.057  1.00  0.00    -0.253 A  
HETATM    9  C   UNL     1     -11.949  12.938  67.635  1.00  0.00    -0.344 A  
HETATM   10  C   UNL     1     -11.804  14.206  67.057  1.00  0.00    -0.458 A  
ENDROOT
BRANCH   8  11
HETATM   11  C   UNL     1     -10.855  10.818  68.547  1.00  0.00    -0.228 C  
HETATM   12  O   UNL     1     -11.451   9.970  67.883  1.00  0.00    -0.210 OA 
HETATM   13  N   UNL     1     -10.241  10.538  69.749  1.00  0.00    -0.409 N  
HETATM   14  H   UNL     1      -9.752  11.266  70.269  1.00  0.00     0.000 HD 
BRANCH  13  15
HETATM   15  N   UNL     1     -10.305   9.235  70.236  1.00  0.00    -0.211 N  
HETATM   16  C   UNL     1     -11.045   8.961  71.363  1.00  0.00    -0.306 C  
HETATM   17  C   UNL     1     -10.714   7.557  71.807  1.00  0.00    -0.243 C  
HETATM   18  O   UNL     1     -11.788   9.735  71.951  1.00  0.00    -0.342 OA 
HETATM   19  C   UNL     1      -9.545   7.129  70.864  1.00  0.00    -0.167 C  
HETATM   20  C   UNL     1      -8.291   6.766  71.707  1.00  0.00    -0.110 C  
HETATM   21  C   UNL     1      -9.277   8.342  70.015  1.00  0.00    -0.151 C  
HETATM   22  O   UNL     1      -8.266   8.498  69.347  1.00  0.00    -0.110 OA 
HETATM   23  C   UNL     1      -7.983   7.993  72.572  1.00  0.00    -0.174 C  
HETATM   24  C   UNL     1      -8.987   8.360  73.389  1.00  0.00    -0.166 C  
HETATM   25  C   UNL     1     -10.228   7.476  73.289  1.00  0.00    -0.398 C  
HETATM   26  C   UNL     1      -9.858   5.992  73.509  1.00  0.00    -0.171 C  
HETATM   27  C   UNL     1      -8.539   5.504  74.072  1.00  0.00    -0.114 C  
HETATM   28  C   UNL     1      -8.730   5.580  72.577  1.00  0.00    -0.124 C  
ENDBRANCH  13  15
ENDBRANCH   8  11
TORSDOF 2
ENDMDL
MODEL       53
REMARK 921   NORMALIZED FREE ENERGY PREDICTED BY IDOCK:   -5.79 KCAL/MOL
REMARK 922        TOTAL FREE ENERGY PREDICTED BY IDOCK:   -6.92 KCAL/MOL
REMARK 923 INTER-LIGAND FREE ENERGY PREDICTED BY IDOCK:   -6.42 KCAL/MOL
REMARK 924 INTRA-LIGAND FREE ENERGY PREDICTED BY IDOCK:   -0.50 KCAL/MOL
REMARK 927      BINDING AFFINITY PREDICTED BY RF-SCORE:    0.00 PKD
ROOT
HETATM    1  F   UNL     1      -8.240   4.583  66.758  1.00  0.00    -0.101 F  
HETATM    2  C   UNL     1      -9.324   5.216  67.287  1.00  0.00    -0.122 C  
HETATM    3  C   UNL     1      -9.480   6.642  66.818  1.00  0.00    -0.194 A  
HETATM    4  F   UNL     1     -10.400   4.441  66.981  1.00  0.00    -0.219 F  
HETATM    5  F   UNL     1      -9.176   5.136  68.640  1.00  0.00    -0.113 F  
HETATM    6  C   UNL     1      -8.577   7.203  65.908  1.00  0.00    -0.157 A  
HETATM    7  C   UNL     1      -8.667   8.554  65.569  1.00  0.00    -0.208 A  
HETATM    8  C   UNL     1      -9.657   9.373  66.133  1.00  0.00    -0.311 A  
HETATM    9  C   UNL     1     -10.610   8.799  66.982  1.00  0.00    -0.283 A  
HETATM   10  C   UNL     1     -10.517   7.443  67.324  1.00  0.00    -0.385 A  
ENDROOT
BRANCH   8  11
HETATM   11  C   UNL     1      -9.583  10.833  65.829  1.00  0.00    -0.208 C  
HETATM   12  O   UNL     1      -9.291  11.191  64.688  1.00  0.00    -0.214 OA 
HETATM   13  N   UNL     1      -9.815  11.719  66.860  1.00  0.00    -0.201 N  
HETATM   14  H   UNL     1     -10.060  11.384  67.792  1.00  0.00     0.000 HD 
BRANCH  13  15
HETATM   15  N   UNL     1      -9.707  13.082  66.597  1.00  0.00    -0.250 N  
HETATM   16  C   UNL     1      -8.577  13.765  66.984  1.00  0.00    -0.166 C  
HETATM   17  C   UNL     1      -8.850  15.242  66.825  1.00  0.00    -0.302 C  
HETATM   18  O   UNL     1      -7.554  13.278  67.446  1.00  0.00    -0.159 OA 
HETATM   19  C   UNL     1     -10.364  15.307  66.450  1.00  0.00    -0.296 C  
HETATM   20  C   UNL     1     -11.132  16.160  67.498  1.00  0.00    -0.175 C  
HETATM   21  C   UNL     1     -10.828  13.877  66.490  1.00  0.00    -0.295 C  
HETATM   22  O   UNL     1     -12.003  13.541  66.520  1.00  0.00    -0.378 OA 
HETATM   23  C   UNL     1     -10.850  15.522  68.862  1.00  0.00    -0.254 C  
HETATM   24  C   UNL     1      -9.546  15.469  69.189  1.00  0.00    -0.253 C  
HETATM   25  C   UNL     1      -8.614  16.059  68.134  1.00  0.00    -0.171 C  
HETATM   26  C   UNL     1      -9.032  17.505  67.785  1.00  0.00    -0.245 C  
HETATM   27  C   UNL     1     -10.002  18.344  68.593  1.00  0.00    -0.415 C  
HETATM   28  C   UNL     1     -10.504  17.557  67.407  1.00  0.00    -0.342 C  
ENDBRANCH  13  15
ENDBRANCH   8  11
TORSDOF 2
ENDMDL
MODEL       54
REMARK 921   NORMALIZED FREE ENERGY PREDICTED BY IDOCK:   -5.78 KCAL/MOL
REMARK 922        TOTAL FREE ENERGY PREDICTED BY IDOCK:   -6.90 KCAL/MOL
REMARK 923 INTER-LIGAND FREE ENERGY PREDICTED BY IDOCK:   -6.75 KCAL/MOL
REMARK 924 INTRA-LIGAND FREE ENERGY PREDICTED BY IDOCK:   -0.15 KCAL/MOL
REMARK 927      BINDING AFFINITY PREDICTED BY RF-SCORE:    0.00 PKD
ROOT
HETATM    1  F   UNL     1     -10.271   6.313  70.895  1.00  0.00    -0.200 F  
HETATM    2  C   UNL     1     -10.573   6.550  69.588  1.00  0.00    -0.243 C  
HETATM    3  C   UNL     1     -10.230   7.947  69.132  1.00  0.00    -0.219 A  
HETATM    4  F   UNL     1      -9.929   5.589  68.872  1.00  0.00    -0.165 F  
HETATM    5  F   UNL     1     -11.905   6.284  69.462  1.00  0.00    -0.486 F  
HETATM    6  C   UNL     1      -9.638   8.865  70.007  1.00  0.00    -0.190 A  
HETATM    7  C   UNL     1      -9.429  10.185  69.606  1.00  0.00    -0.226 A  
HETATM    8  C   UNL     1      -9.808  10.617  68.326  1.00  0.00    -0.174 A  
HETATM    9  C   UNL     1     -10.326   9.684  67.421  1.00  0.00    -0.306 A  
HETATM   10  C   UNL     1     -10.539   8.360  67.825  1.00  0.00    -0.238 A  
ENDROOT
BRANCH   8  11
HETATM   11  C   UNL     1      -9.683  12.078  68.039  1.00  0.00    -0.198 C  
HETATM   12  O   UNL     1     -10.502  12.854  68.530  1.00  0.00    -0.247 OA 
HETATM   13  N   UNL     1      -8.666  12.485  67.201  1.00  0.00    -0.194 N  
HETATM   14  H   UNL     1      -8.004  11.812  66.817  1.00  0.00     0.000 HD 
BRANCH  13  15
HETATM   15  N   UNL     1      -8.567  13.839  66.892  1.00  0.00    -0.162 N  
HETATM   16  C   UNL     1      -8.012  14.709  67.802  1.00  0.00    -0.156 C  
HETATM   17  C   UNL     1      -8.284  16.116  67.326  1.00  0.00    -0.203 C  
HETATM   18  O   UNL     1      -7.458  14.409  68.851  1.00  0.00    -0.124 OA 
HETATM   19  C   UNL     1      -9.226  15.922  66.096  1.00  0.00    -0.384 C  
HETATM   20  C   UNL     1     -10.568  16.668  66.335  1.00  0.00    -0.200 C  
HETATM   21  C   UNL     1      -9.453  14.437  66.020  1.00  0.00    -0.207 C  
HETATM   22  O   UNL     1     -10.342  13.914  65.365  1.00  0.00    -0.315 OA 
HETATM   23  C   UNL     1     -11.134  16.125  67.651  1.00  0.00    -0.212 C  
HETATM   24  C   UNL     1     -10.326  16.295  68.713  1.00  0.00    -0.261 C  
HETATM   25  C   UNL     1      -9.010  16.998  68.389  1.00  0.00    -0.247 C  
HETATM   26  C   UNL     1      -9.273  18.346  67.680  1.00  0.00    -0.274 C  
HETATM   27  C   UNL     1     -10.619  19.038  67.610  1.00  0.00    -0.526 C  
HETATM   28  C   UNL     1     -10.179  18.145  66.475  1.00  0.00    -0.398 C  
ENDBRANCH  13  15
ENDBRANCH   8  11
TORSDOF 2
ENDMDL
MODEL       55
REMARK 921   NORMALIZED FREE ENERGY PREDICTED BY IDOCK:   -5.77 KCAL/MOL
REMARK 922        TOTAL FREE ENERGY PREDICTED BY IDOCK:   -6.89 KCAL/MOL
REMARK 923 INTER-LIGAND FREE ENERGY PREDICTED BY IDOCK:   -6.39 KCAL/MOL
REMARK 924 INTRA-LIGAND FREE ENERGY PREDICTED BY IDOCK:   -0.50 KCAL/MOL
REMARK 927      BINDING AFFINITY PREDICTED BY RF-SCORE:    0.00 PKD
ROOT
HETATM    1  F   UNL     1     -12.515  14.557  64.541  1.00  0.00    -0.450 F  
HETATM    2  C   UNL     1     -11.821  13.391  64.418  1.00  0.00    -0.408 C  
HETATM    3  C   UNL     1     -11.744  12.596  65.700  1.00  0.00    -0.458 A  
HETATM    4  F   UNL     1     -12.415  12.702  63.408  1.00  0.00    -0.539 F  
HETATM    5  F   UNL     1     -10.586  13.741  63.959  1.00  0.00    -0.345 F  
HETATM    6  C   UNL     1     -12.364  13.053  66.868  1.00  0.00    -0.068 A  
HETATM    7  C   UNL     1     -12.191  12.367  68.071  1.00  0.00     0.143 A  
HETATM    8  C   UNL     1     -11.394  11.214  68.133  1.00  0.00    -0.377 A  
HETATM    9  C   UNL     1     -10.837  10.709  66.953  1.00  0.00    -0.267 A  
HETATM   10  C   UNL     1     -11.009  11.400  65.746  1.00  0.00    -0.256 A  
ENDROOT
BRANCH   8  11
HETATM   11  C   UNL     1     -11.145  10.634  69.487  1.00  0.00    -0.274 C  
HETATM   12  O   UNL     1     -11.581  11.221  70.477  1.00  0.00    -0.298 OA 
HETATM   13  N   UNL     1     -10.401   9.475  69.565  1.00  0.00    -0.205 N  
HETATM   14  H   UNL     1     -10.061   9.015  68.721  1.00  0.00     0.000 HD 
BRANCH  13  15
HETATM   15  N   UNL     1     -10.127   8.950  70.825  1.00  0.00    -0.209 N  
HETATM   16  C   UNL     1      -8.857   9.046  71.344  1.00  0.00    -0.150 C  
HETATM   17  C   UNL     1      -8.788   8.166  72.570  1.00  0.00    -0.272 C  
HETATM   18  O   UNL     1      -7.921   9.672  70.867  1.00  0.00    -0.307 OA 
HETATM   19  C   UNL     1     -10.159   7.420  72.575  1.00  0.00    -0.237 C  
HETATM   20  C   UNL     1      -9.926   5.884  72.522  1.00  0.00    -0.198 C  
HETATM   21  C   UNL     1     -10.856   7.892  71.328  1.00  0.00    -0.235 C  
HETATM   22  O   UNL     1     -11.829   7.340  70.839  1.00  0.00    -0.308 OA 
HETATM   23  C   UNL     1      -9.073   5.622  71.276  1.00  0.00    -0.156 C  
HETATM   24  C   UNL     1      -7.889   6.260  71.272  1.00  0.00    -0.108 C  
HETATM   25  C   UNL     1      -7.636   7.114  72.512  1.00  0.00    -0.089 C  
HETATM   26  C   UNL     1      -7.798   6.271  73.796  1.00  0.00    -0.092 C  
HETATM   27  C   UNL     1      -7.863   4.757  73.834  1.00  0.00    -0.101 C  
HETATM   28  C   UNL     1      -9.142   5.560  73.800  1.00  0.00    -0.123 C  
ENDBRANCH  13  15
ENDBRANCH   8  11
TORSDOF 2
ENDMDL
MODEL       56
REMARK 921   NORMALIZED FREE ENERGY PREDICTED BY IDOCK:   -5.76 KCAL/MOL
REMARK 922        TOTAL FREE ENERGY PREDICTED BY IDOCK:   -6.89 KCAL/MOL
REMARK 923 INTER-LIGAND FREE ENERGY PREDICTED BY IDOCK:   -6.74 KCAL/MOL
REMARK 924 INTRA-LIGAND FREE ENERGY PREDICTED BY IDOCK:   -0.15 KCAL/MOL
REMARK 927      BINDING AFFINITY PREDICTED BY RF-SCORE:    0.00 PKD
ROOT
HETATM    1  F   UNL     1      -7.048   5.396  64.558  1.00  0.00    -0.046 F  
HETATM    2  C   UNL     1      -8.060   5.499  65.464  1.00  0.00    -0.120 C  
HETATM    3  C   UNL     1      -8.629   6.893  65.580  1.00  0.00    -0.087 A  
HETATM    4  F   UNL     1      -8.993   4.580  65.093  1.00  0.00    -0.126 F  
HETATM    5  F   UNL     1      -7.546   5.057  66.646  1.00  0.00    -0.083 F  
HETATM    6  C   UNL     1      -8.136   7.938  64.791  1.00  0.00    -0.141 A  
HETATM    7  C   UNL     1      -8.592   9.243  64.987  1.00  0.00    -0.200 A  
HETATM    8  C   UNL     1      -9.545   9.531  65.976  1.00  0.00    -0.316 A  
HETATM    9  C   UNL     1     -10.098   8.477  66.713  1.00  0.00    -0.369 A  
HETATM   10  C   UNL     1      -9.638   7.169  66.517  1.00  0.00    -0.203 A  
ENDROOT
BRANCH   8  11
HETATM   11  C   UNL     1      -9.861  10.971  66.214  1.00  0.00    -0.215 C  
HETATM   12  O   UNL     1      -8.984  11.707  66.667  1.00  0.00    -0.179 OA 
HETATM   13  N   UNL     1     -11.143  11.403  65.945  1.00  0.00    -0.217 N  
HETATM   14  H   UNL     1     -11.841  10.763  65.566  1.00  0.00     0.000 HD 
BRANCH  13  15
HETATM   15  N   UNL     1     -11.460  12.734  66.204  1.00  0.00    -0.331 N  
HETATM   16  C   UNL     1     -11.041  13.717  65.339  1.00  0.00    -0.298 C  
HETATM   17  C   UNL     1     -11.281  15.053  66.001  1.00  0.00    -0.310 C  
HETATM   18  O   UNL     1     -10.501  13.550  64.254  1.00  0.00    -0.414 OA 
HETATM   19  C   UNL     1     -11.743  14.679  67.445  1.00  0.00    -0.413 C  
HETATM   20  C   UNL     1     -10.779  15.309  68.488  1.00  0.00    -0.247 C  
HETATM   21  C   UNL     1     -11.666  13.178  67.493  1.00  0.00    -0.366 C  
HETATM   22  O   UNL     1     -11.686  12.526  68.527  1.00  0.00    -0.290 OA 
HETATM   23  C   UNL     1      -9.374  14.814  68.131  1.00  0.00    -0.197 C  
HETATM   24  C   UNL     1      -8.972  15.139  66.888  1.00  0.00    -0.277 C  
HETATM   25  C   UNL     1      -9.999  15.938  66.090  1.00  0.00    -0.337 C  
HETATM   26  C   UNL     1     -10.435  17.198  66.871  1.00  0.00    -0.274 C  
HETATM   27  C   UNL     1      -9.721  17.752  68.087  1.00  0.00    -0.313 C  
HETATM   28  C   UNL     1     -10.897  16.824  68.270  1.00  0.00    -0.366 C  
ENDBRANCH  13  15
ENDBRANCH   8  11
TORSDOF 2
ENDMDL
MODEL       57
REMARK 921   NORMALIZED FREE ENERGY PREDICTED BY IDOCK:   -5.73 KCAL/MOL
REMARK 922        TOTAL FREE ENERGY PREDICTED BY IDOCK:   -6.85 KCAL/MOL
REMARK 923 INTER-LIGAND FREE ENERGY PREDICTED BY IDOCK:   -6.37 KCAL/MOL
REMARK 924 INTRA-LIGAND FREE ENERGY PREDICTED BY IDOCK:   -0.48 KCAL/MOL
REMARK 927      BINDING AFFINITY PREDICTED BY RF-SCORE:    0.00 PKD
ROOT
HETATM    1  F   UNL     1      -8.100   3.509  65.619  1.00  0.00    -0.090 F  
HETATM    2  C   UNL     1      -9.364   3.904  65.938  1.00  0.00    -0.165 C  
HETATM    3  C   UNL     1      -9.459   5.354  66.344  1.00  0.00    -0.164 A  
HETATM    4  F   UNL     1     -10.135   3.609  64.857  1.00  0.00    -0.171 F  
HETATM    5  F   UNL     1      -9.773   3.066  66.932  1.00  0.00    -0.171 F  
HETATM    6  C   UNL     1      -8.326   6.175  66.354  1.00  0.00    -0.120 A  
HETATM    7  C   UNL     1      -8.407   7.481  66.838  1.00  0.00    -0.125 A  
HETATM    8  C   UNL     1      -9.619   7.994  67.325  1.00  0.00    -0.210 A  
HETATM    9  C   UNL     1     -10.772   7.204  67.244  1.00  0.00    -0.399 A  
HETATM   10  C   UNL     1     -10.689   5.892  66.760  1.00  0.00    -0.371 A  
ENDROOT
BRANCH   8  11
HETATM   11  C   UNL     1      -9.578   9.346  67.960  1.00  0.00    -0.138 C  
HETATM   12  O   UNL     1      -9.279   9.437  69.150  1.00  0.00    -0.147 OA 
HETATM   13  N   UNL     1      -9.913  10.434  67.181  1.00  0.00    -0.187 N  
HETATM   14  H   UNL     1     -10.151  10.319  66.196  1.00  0.00     0.000 HD 
BRANCH  13  15
HETATM   15  N   UNL     1      -9.919  11.694  67.774  1.00  0.00    -0.178 N  
HETATM   16  C   UNL     1     -11.115  12.319  68.039  1.00  0.00    -0.239 C  
HETATM   17  C   UNL     1     -10.818  13.751  68.415  1.00  0.00    -0.268 C  
HETATM   18  O   UNL     1     -12.232  11.832  67.924  1.00  0.00    -0.538 OA 
HETATM   19  C   UNL     1      -9.285  13.896  68.160  1.00  0.00    -0.202 C  
HETATM   20  C   UNL     1      -9.026  15.024  67.122  1.00  0.00    -0.235 C  
HETATM   21  C   UNL     1      -8.862  12.563  67.608  1.00  0.00    -0.179 C  
HETATM   22  O   UNL     1      -7.800  12.367  67.034  1.00  0.00    -0.157 OA 
HETATM   23  C   UNL     1      -9.838  14.656  65.875  1.00  0.00    -0.358 C  
HETATM   24  C   UNL     1     -11.161  14.535  66.093  1.00  0.00    -0.339 C  
HETATM   25  C   UNL     1     -11.582  14.791  67.538  1.00  0.00    -0.379 C  
HETATM   26  C   UNL     1     -11.073  16.170  68.016  1.00  0.00    -0.317 C  
HETATM   27  C   UNL     1     -10.533  17.255  67.108  1.00  0.00    -0.297 C  
HETATM   28  C   UNL     1      -9.577  16.297  67.777  1.00  0.00    -0.223 C  
ENDBRANCH  13  15
ENDBRANCH   8  11
TORSDOF 2
ENDMDL
MODEL       58
REMARK 921   NORMALIZED FREE ENERGY PREDICTED BY IDOCK:   -5.69 KCAL/MOL
REMARK 922        TOTAL FREE ENERGY PREDICTED BY IDOCK:   -6.80 KCAL/MOL
REMARK 923 INTER-LIGAND FREE ENERGY PREDICTED BY IDOCK:   -6.66 KCAL/MOL
REMARK 924 INTRA-LIGAND FREE ENERGY PREDICTED BY IDOCK:   -0.15 KCAL/MOL
REMARK 927      BINDING AFFINITY PREDICTED BY RF-SCORE:    0.00 PKD
ROOT
HETATM    1  F   UNL     1      -9.633   4.352  67.855  1.00  0.00    -0.163 F  
HETATM    2  C   UNL     1      -9.661   5.103  68.991  1.00  0.00    -0.145 C  
HETATM    3  C   UNL     1     -10.048   6.543  68.755  1.00  0.00    -0.178 A  
HETATM    4  F   UNL     1     -10.506   4.464  69.845  1.00  0.00    -0.234 F  
HETATM    5  F   UNL     1      -8.418   4.992  69.540  1.00  0.00    -0.085 F  
HETATM    6  C   UNL     1     -10.359   7.002  67.471  1.00  0.00    -0.288 A  
HETATM    7  C   UNL     1     -10.605   8.358  67.249  1.00  0.00    -0.328 A  
HETATM    8  C   UNL     1     -10.544   9.282  68.303  1.00  0.00    -0.237 A  
HETATM    9  C   UNL     1     -10.312   8.816  69.602  1.00  0.00    -0.213 A  
HETATM   10  C   UNL     1     -10.062   7.455  69.823  1.00  0.00    -0.193 A  
ENDROOT
BRANCH   8  11
HETATM   11  C   UNL     1     -10.674  10.727  67.947  1.00  0.00    -0.239 C  
HETATM   12  O   UNL     1      -9.703  11.314  67.469  1.00  0.00    -0.175 OA 
HETATM   13  N   UNL     1     -11.877  11.349  68.206  1.00  0.00    -0.288 N  
HETATM   14  H   UNL     1     -12.661  10.828  68.599  1.00  0.00     0.000 HD 
BRANCH  13  15
HETATM   15  N   UNL     1     -11.995  12.706  67.917  1.00  0.00    -0.324 N  
HETATM   16  C   UNL     1     -12.130  13.118  66.612  1.00  0.00    -0.346 C  
HETATM   17  C   UNL     1     -11.960  14.618  66.577  1.00  0.00    -0.284 C  
HETATM   18  O   UNL     1     -12.288  12.399  65.634  1.00  0.00    -0.639 OA 
HETATM   19  C   UNL     1     -11.538  14.982  68.036  1.00  0.00    -0.356 C  
HETATM   20  C   UNL     1     -10.155  15.692  68.025  1.00  0.00    -0.224 C  
HETATM   21  C   UNL     1     -11.447  13.660  68.748  1.00  0.00    -0.309 C  
HETATM   22  O   UNL     1     -10.887  13.500  69.823  1.00  0.00     0.083 OA 
HETATM   23  C   UNL     1      -9.188  14.742  67.310  1.00  0.00    -0.211 C  
HETATM   24  C   UNL     1      -9.548  14.430  66.051  1.00  0.00    -0.292 C  
HETATM   25  C   UNL     1     -10.845  15.091  65.592  1.00  0.00    -0.356 C  
HETATM   26  C   UNL     1     -10.771  16.623  65.776  1.00  0.00    -0.210 C  
HETATM   27  C   UNL     1      -9.499  17.401  66.050  1.00  0.00    -0.122 C  
HETATM   28  C   UNL     1     -10.374  16.969  67.203  1.00  0.00    -0.305 C  
ENDBRANCH  13  15
ENDBRANCH   8  11
TORSDOF 2
ENDMDL
MODEL       59
REMARK 921   NORMALIZED FREE ENERGY PREDICTED BY IDOCK:   -5.67 KCAL/MOL
REMARK 922        TOTAL FREE ENERGY PREDICTED BY IDOCK:   -6.79 KCAL/MOL
REMARK 923 INTER-LIGAND FREE ENERGY PREDICTED BY IDOCK:   -6.62 KCAL/MOL
REMARK 924 INTRA-LIGAND FREE ENERGY PREDICTED BY IDOCK:   -0.17 KCAL/MOL
REMARK 927      BINDING AFFINITY PREDICTED BY RF-SCORE:    0.00 PKD
ROOT
HETATM    1  F   UNL     1     -11.122  17.336  67.800  1.00  0.00    -0.349 F  
HETATM    2  C   UNL     1     -10.379  16.512  67.012  1.00  0.00    -0.301 C  
HETATM    3  C   UNL     1     -10.446  15.060  67.423  1.00  0.00    -0.257 A  
HETATM    4  F   UNL     1     -10.808  16.718  65.738  1.00  0.00    -0.306 F  
HETATM    5  F   UNL     1      -9.106  16.999  67.063  1.00  0.00    -0.205 F  
HETATM    6  C   UNL     1     -11.232  14.656  68.507  1.00  0.00    -0.288 A  
HETATM    7  C   UNL     1     -11.197  13.331  68.946  1.00  0.00    -0.322 A  
HETATM    8  C   UNL     1     -10.376  12.385  68.313  1.00  0.00    -0.232 A  
HETATM    9  C   UNL     1      -9.650  12.767  67.180  1.00  0.00    -0.219 A  
HETATM   10  C   UNL     1      -9.683  14.097  66.742  1.00  0.00    -0.283 A  
ENDROOT
BRANCH   8  11
HETATM   11  C   UNL     1     -10.291  11.033  68.942  1.00  0.00    -0.205 C  
HETATM   12  O   UNL     1     -11.068  10.748  69.853  1.00  0.00    -0.266 OA 
HETATM   13  N   UNL     1      -9.312  10.173  68.491  1.00  0.00    -0.147 N  
HETATM   14  H   UNL     1      -8.689  10.443  67.730  1.00  0.00     0.000 HD 
BRANCH  13  15
HETATM   15  N   UNL     1      -9.195   8.926  69.100  1.00  0.00    -0.144 N  
HETATM   16  C   UNL     1     -10.069   7.918  68.765  1.00  0.00    -0.193 C  
HETATM   17  C   UNL     1      -9.887   6.796  69.760  1.00  0.00    -0.175 C  
HETATM   18  O   UNL     1     -10.901   7.943  67.868  1.00  0.00    -0.129 OA 
HETATM   19  C   UNL     1      -8.898   7.385  70.815  1.00  0.00    -0.149 C  
HETATM   20  C   UNL     1      -9.555   7.367  72.223  1.00  0.00    -0.186 C  
HETATM   21  C   UNL     1      -8.656   8.799  70.362  1.00  0.00    -0.163 C  
HETATM   22  O   UNL     1      -8.157   9.665  71.066  1.00  0.00    -0.287 OA 
HETATM   23  C   UNL     1     -10.871   8.142  72.095  1.00  0.00    -0.370 C  
HETATM   24  C   UNL     1     -11.726   7.633  71.189  1.00  0.00    -0.311 C  
HETATM   25  C   UNL     1     -11.211   6.385  70.477  1.00  0.00    -0.414 C  
HETATM   26  C   UNL     1     -10.794   5.307  71.502  1.00  0.00    -0.164 C  
HETATM   27  C   UNL     1     -11.147   5.331  72.975  1.00  0.00    -0.377 C  
HETATM   28  C   UNL     1      -9.820   5.885  72.516  1.00  0.00    -0.179 C  
ENDBRANCH  13  15
ENDBRANCH   8  11
TORSDOF 2
ENDMDL
MODEL       60
REMARK 921   NORMALIZED FREE ENERGY PREDICTED BY IDOCK:   -5.65 KCAL/MOL
REMARK 922        TOTAL FREE ENERGY PREDICTED BY IDOCK:   -6.76 KCAL/MOL
REMARK 923 INTER-LIGAND FREE ENERGY PREDICTED BY IDOCK:   -6.66 KCAL/MOL
REMARK 924 INTRA-LIGAND FREE ENERGY PREDICTED BY IDOCK:   -0.10 KCAL/MOL
REMARK 927      BINDING AFFINITY PREDICTED BY RF-SCORE:    0.00 PKD
ROOT
HETATM    1  F   UNL     1     -12.786  10.949  69.416  1.00  0.00    -0.337 F  
HETATM    2  C   UNL     1     -11.559  10.811  68.841  1.00  0.00    -0.291 C  
HETATM    3  C   UNL     1     -10.798  12.110  68.720  1.00  0.00    -0.265 A  
HETATM    4  F   UNL     1     -10.897   9.881  69.580  1.00  0.00    -0.209 F  
HETATM    5  F   UNL     1     -11.783  10.236  67.625  1.00  0.00    -0.270 F  
HETATM    6  C   UNL     1     -11.343  13.309  69.193  1.00  0.00    -0.336 A  
HETATM    7  C   UNL     1     -10.680  14.517  68.975  1.00  0.00    -0.258 A  
HETATM    8  C   UNL     1      -9.461  14.554  68.280  1.00  0.00    -0.207 A  
HETATM    9  C   UNL     1      -8.874  13.350  67.875  1.00  0.00    -0.194 A  
HETATM   10  C   UNL     1      -9.543  12.138  68.092  1.00  0.00    -0.208 A  
ENDROOT
BRANCH   8  11
HETATM   11  C   UNL     1      -8.901  15.902  67.964  1.00  0.00    -0.178 C  
HETATM   12  O   UNL     1      -8.203  16.039  66.960  1.00  0.00    -0.179 OA 
HETATM   13  N   UNL     1      -9.168  16.932  68.842  1.00  0.00    -0.255 N  
HETATM   14  H   UNL     1      -9.755  16.781  69.662  1.00  0.00     0.000 HD 
BRANCH  13  15
HETATM   15  N   UNL     1      -8.615  18.183  68.581  1.00  0.00    -0.296 N  
HETATM   16  C   UNL     1      -9.081  18.928  67.522  1.00  0.00    -0.280 C  
HETATM   17  C   UNL     1      -8.133  20.085  67.316  1.00  0.00    -0.357 C  
HETATM   18  O   UNL     1     -10.049  18.670  66.820  1.00  0.00    -0.335 OA 
HETATM   19  C   UNL     1      -6.962  19.793  68.306  1.00  0.00    -0.333 C  
HETATM   20  C   UNL     1      -5.623  19.681  67.525  1.00  0.00    -0.179 C  
HETATM   21  C   UNL     1      -7.316  18.475  68.939  1.00  0.00    -0.266 C  
HETATM   22  O   UNL     1      -6.526  17.782  69.562  1.00  0.00    -0.245 OA 
HETATM   23  C   UNL     1      -5.833  18.595  66.464  1.00  0.00    -0.176 C  
HETATM   24  C   UNL     1      -6.839  18.847  65.606  1.00  0.00    -0.292 C  
HETATM   25  C   UNL     1      -7.563  20.166  65.864  1.00  0.00    -0.272 C  
HETATM   26  C   UNL     1      -6.560  21.341  65.891  1.00  0.00     0.030 C  
HETATM   27  C   UNL     1      -5.127  21.266  65.406  1.00  0.00    -0.198 C  
HETATM   28  C   UNL     1      -5.432  21.055  66.869  1.00  0.00    -0.269 C  
ENDBRANCH  13  15
ENDBRANCH   8  11
TORSDOF 2
ENDMDL
MODEL       61
REMARK 921   NORMALIZED FREE ENERGY PREDICTED BY IDOCK:   -5.57 KCAL/MOL
REMARK 922        TOTAL FREE ENERGY PREDICTED BY IDOCK:   -6.67 KCAL/MOL
REMARK 923 INTER-LIGAND FREE ENERGY PREDICTED BY IDOCK:   -6.26 KCAL/MOL
REMARK 924 INTRA-LIGAND FREE ENERGY PREDICTED BY IDOCK:   -0.41 KCAL/MOL
REMARK 927      BINDING AFFINITY PREDICTED BY RF-SCORE:    0.00 PKD
ROOT
HETATM    1  F   UNL     1     -13.481  14.391  73.124  1.00  0.00    -0.556 F  
HETATM    2  C   UNL     1     -12.904  14.858  71.982  1.00  0.00    -0.325 C  
HETATM    3  C   UNL     1     -12.508  13.768  71.015  1.00  0.00    -0.458 A  
HETATM    4  F   UNL     1     -13.789  15.740  71.445  1.00  0.00    -0.535 F  
HETATM    5  F   UNL     1     -11.832  15.598  72.384  1.00  0.00    -0.406 F  
HETATM    6  C   UNL     1     -12.754  12.422  71.309  1.00  0.00    -0.347 A  
HETATM    7  C   UNL     1     -12.283  11.419  70.461  1.00  0.00    -0.478 A  
HETATM    8  C   UNL     1     -11.555  11.738  69.304  1.00  0.00    -0.378 A  
HETATM    9  C   UNL     1     -11.375  13.084  68.965  1.00  0.00    -0.340 A  
HETATM   10  C   UNL     1     -11.846  14.090  69.819  1.00  0.00    -0.385 A  
ENDROOT
BRANCH   8  11
HETATM   11  C   UNL     1     -10.964  10.599  68.540  1.00  0.00    -0.248 C  
HETATM   12  O   UNL     1     -11.237   9.447  68.878  1.00  0.00    -0.035 OA 
HETATM   13  N   UNL     1     -10.105  10.896  67.503  1.00  0.00    -0.180 N  
HETATM   14  H   UNL     1      -9.907  11.864  67.249  1.00  0.00     0.000 HD 
BRANCH  13  15
HETATM   15  N   UNL     1      -9.515   9.842  66.811  1.00  0.00    -0.157 N  
HETATM   16  C   UNL     1      -8.312   9.330  67.240  1.00  0.00    -0.125 C  
HETATM   17  C   UNL     1      -7.789   8.408  66.165  1.00  0.00    -0.101 C  
HETATM   18  O   UNL     1      -7.726   9.620  68.273  1.00  0.00    -0.082 OA 
HETATM   19  C   UNL     1      -8.791   8.601  64.983  1.00  0.00    -0.114 C  
HETATM   20  C   UNL     1      -8.031   9.093  63.720  1.00  0.00    -0.146 C  
HETATM   21  C   UNL     1      -9.752   9.653  65.465  1.00  0.00    -0.301 C  
HETATM   22  O   UNL     1     -10.513  10.270  64.734  1.00  0.00    -0.200 OA 
HETATM   23  C   UNL     1      -7.293  10.371  64.132  1.00  0.00     0.013 C  
HETATM   24  C   UNL     1      -6.426  10.206  65.148  1.00  0.00    -0.121 C  
HETATM   25  C   UNL     1      -6.352   8.776  65.679  1.00  0.00    -0.056 C  
HETATM   26  C   UNL     1      -6.049   7.785  64.534  1.00  0.00    -0.045 C  
HETATM   27  C   UNL     1      -5.563   8.179  63.154  1.00  0.00    -0.067 C  
HETATM   28  C   UNL     1      -7.039   7.969  63.394  1.00  0.00    -0.087 C  
ENDBRANCH  13  15
ENDBRANCH   8  11
TORSDOF 2
ENDMDL
MODEL       62
REMARK 921   NORMALIZED FREE ENERGY PREDICTED BY IDOCK:   -5.54 KCAL/MOL
REMARK 922        TOTAL FREE ENERGY PREDICTED BY IDOCK:   -6.63 KCAL/MOL
REMARK 923 INTER-LIGAND FREE ENERGY PREDICTED BY IDOCK:   -6.51 KCAL/MOL
REMARK 924 INTRA-LIGAND FREE ENERGY PREDICTED BY IDOCK:   -0.12 KCAL/MOL
REMARK 927      BINDING AFFINITY PREDICTED BY RF-SCORE:    0.00 PKD
ROOT
HETATM    1  F   UNL     1      -8.922   8.332  67.076  1.00  0.00    -0.129 F  
HETATM    2  C   UNL     1      -9.996   9.057  67.494  1.00  0.00    -0.207 C  
HETATM    3  C   UNL     1      -9.794  10.550  67.393  1.00  0.00    -0.204 A  
HETATM    4  F   UNL     1     -11.055   8.620  66.762  1.00  0.00    -0.194 F  
HETATM    5  F   UNL     1     -10.235   8.660  68.776  1.00  0.00    -0.188 F  
HETATM    6  C   UNL     1      -8.601  11.082  66.890  1.00  0.00    -0.143 A  
HETATM    7  C   UNL     1      -8.383  12.460  66.906  1.00  0.00    -0.117 A  
HETATM    8  C   UNL     1      -9.349  13.336  67.428  1.00  0.00    -0.217 A  
HETATM    9  C   UNL     1     -10.574  12.815  67.859  1.00  0.00    -0.232 A  
HETATM   10  C   UNL     1     -10.791  11.431  67.844  1.00  0.00    -0.274 A  
ENDROOT
BRANCH   8  11
HETATM   11  C   UNL     1      -8.968  14.775  67.542  1.00  0.00    -0.187 C  
HETATM   12  O   UNL     1      -8.503  15.349  66.558  1.00  0.00    -0.274 OA 
HETATM   13  N   UNL     1      -9.126  15.388  68.767  1.00  0.00    -0.194 N  
HETATM   14  H   UNL     1      -9.520  14.880  69.559  1.00  0.00     0.000 HD 
BRANCH  13  15
HETATM   15  N   UNL     1      -8.734  16.718  68.896  1.00  0.00    -0.249 N  
HETATM   16  C   UNL     1      -9.487  17.712  68.316  1.00  0.00    -0.295 C  
HETATM   17  C   UNL     1      -8.693  18.995  68.380  1.00  0.00    -0.381 C  
HETATM   18  O   UNL     1     -10.577  17.578  67.777  1.00  0.00    -0.370 OA 
HETATM   19  C   UNL     1      -7.301  18.549  68.930  1.00  0.00    -0.289 C  
HETATM   20  C   UNL     1      -6.186  18.923  67.913  1.00  0.00    -0.207 C  
HETATM   21  C   UNL     1      -7.408  17.055  69.071  1.00  0.00    -0.225 C  
HETATM   22  O   UNL     1      -6.448  16.312  69.213  1.00  0.00    -0.162 OA 
HETATM   23  C   UNL     1      -6.576  18.266  66.585  1.00  0.00    -0.224 C  
HETATM   24  C   UNL     1      -7.774  18.652  66.107  1.00  0.00    -0.262 C  
HETATM   25  C   UNL     1      -8.497  19.670  66.986  1.00  0.00    -0.349 C  
HETATM   26  C   UNL     1      -7.594  20.894  67.257  1.00  0.00    -0.312 C  
HETATM   27  C   UNL     1      -6.318  21.212  66.504  1.00  0.00    -0.340 C  
HETATM   28  C   UNL     1      -6.247  20.452  67.806  1.00  0.00    -0.285 C  
ENDBRANCH  13  15
ENDBRANCH   8  11
TORSDOF 2
ENDMDL
MODEL       63
REMARK 921   NORMALIZED FREE ENERGY PREDICTED BY IDOCK:   -5.53 KCAL/MOL
REMARK 922        TOTAL FREE ENERGY PREDICTED BY IDOCK:   -6.62 KCAL/MOL
REMARK 923 INTER-LIGAND FREE ENERGY PREDICTED BY IDOCK:   -6.48 KCAL/MOL
REMARK 924 INTRA-LIGAND FREE ENERGY PREDICTED BY IDOCK:   -0.15 KCAL/MOL
REMARK 927      BINDING AFFINITY PREDICTED BY RF-SCORE:    0.00 PKD
ROOT
HETATM    1  F   UNL     1     -13.044  13.017  62.614  1.00  0.00     0.279 F  
HETATM    2  C   UNL     1     -12.498  12.407  63.702  1.00  0.00    -0.508 C  
HETATM    3  C   UNL     1     -11.664  13.330  64.558  1.00  0.00    -0.420 A  
HETATM    4  F   UNL     1     -13.535  11.852  64.384  1.00  0.00    -0.303 F  
HETATM    5  F   UNL     1     -11.768  11.364  63.214  1.00  0.00    -0.468 F  
HETATM    6  C   UNL     1     -11.519  14.682  64.227  1.00  0.00    -0.174 A  
HETATM    7  C   UNL     1     -10.656  15.497  64.961  1.00  0.00    -0.435 A  
HETATM    8  C   UNL     1      -9.920  14.980  66.038  1.00  0.00    -0.334 A  
HETATM    9  C   UNL     1     -10.122  13.649  66.422  1.00  0.00    -0.295 A  
HETATM   10  C   UNL     1     -10.986  12.831  65.682  1.00  0.00    -0.302 A  
ENDROOT
BRANCH   8  11
HETATM   11  C   UNL     1      -8.913  15.886  66.669  1.00  0.00    -0.268 C  
HETATM   12  O   UNL     1      -9.306  16.861  67.309  1.00  0.00    -0.231 OA 
HETATM   13  N   UNL     1      -7.578  15.602  66.471  1.00  0.00    -0.175 N  
HETATM   14  H   UNL     1      -7.291  14.781  65.938  1.00  0.00     0.000 HD 
BRANCH  13  15
HETATM   15  N   UNL     1      -6.632  16.464  67.018  1.00  0.00    -0.198 N  
HETATM   16  C   UNL     1      -6.329  16.386  68.357  1.00  0.00    -0.127 C  
HETATM   17  C   UNL     1      -5.499  17.595  68.718  1.00  0.00    -0.160 C  
HETATM   18  O   UNL     1      -6.718  15.533  69.143  1.00  0.00    -0.126 OA 
HETATM   19  C   UNL     1      -5.516  18.463  67.421  1.00  0.00    -0.145 C  
HETATM   20  C   UNL     1      -6.119  19.862  67.728  1.00  0.00    -0.232 C  
HETATM   21  C   UNL     1      -6.398  17.706  66.466  1.00  0.00    -0.217 C  
HETATM   22  O   UNL     1      -6.875  18.187  65.449  1.00  0.00    -0.482 OA 
HETATM   23  C   UNL     1      -7.504  19.611  68.333  1.00  0.00    -0.359 C  
HETATM   24  C   UNL     1      -7.491  18.866  69.454  1.00  0.00    -0.043 C  
HETATM   25  C   UNL     1      -6.097  18.427  69.895  1.00  0.00    -0.176 C  
HETATM   26  C   UNL     1      -5.162  19.648  70.039  1.00  0.00    -0.218 C  
HETATM   27  C   UNL     1      -5.622  21.092  70.071  1.00  0.00    -0.065 C  
HETATM   28  C   UNL     1      -5.173  20.480  68.767  1.00  0.00    -0.294 C  
ENDBRANCH  13  15
ENDBRANCH   8  11
TORSDOF 2
ENDMDL
MODEL       64
REMARK 921   NORMALIZED FREE ENERGY PREDICTED BY IDOCK:   -5.47 KCAL/MOL
REMARK 922        TOTAL FREE ENERGY PREDICTED BY IDOCK:   -6.56 KCAL/MOL
REMARK 923 INTER-LIGAND FREE ENERGY PREDICTED BY IDOCK:   -6.12 KCAL/MOL
REMARK 924 INTRA-LIGAND FREE ENERGY PREDICTED BY IDOCK:   -0.44 KCAL/MOL
REMARK 927      BINDING AFFINITY PREDICTED BY RF-SCORE:    0.00 PKD
ROOT
HETATM    1  F   UNL     1     -14.060  13.537  72.701  1.00  0.00    -0.599 F  
HETATM    2  C   UNL     1     -13.253  13.697  71.616  1.00  0.00    -0.367 C  
HETATM    3  C   UNL     1     -12.577  12.423  71.172  1.00  0.00    -0.349 A  
HETATM    4  F   UNL     1     -14.030  14.246  70.644  1.00  0.00    -0.156 F  
HETATM    5  F   UNL     1     -12.351  14.659  71.964  1.00  0.00    -0.352 F  
HETATM    6  C   UNL     1     -12.812  11.214  71.837  1.00  0.00    -0.400 A  
HETATM    7  C   UNL     1     -12.097  10.068  71.488  1.00  0.00    -0.475 A  
HETATM    8  C   UNL     1     -11.131  10.105  70.470  1.00  0.00    -0.400 A  
HETATM    9  C   UNL     1     -10.949  11.291  69.750  1.00  0.00    -0.170 A  
HETATM   10  C   UNL     1     -11.666  12.441  70.103  1.00  0.00    -0.266 A  
ENDROOT
BRANCH   8  11
HETATM   11  C   UNL     1     -10.312   8.872  70.268  1.00  0.00    -0.206 C  
HETATM   12  O   UNL     1      -9.690   8.405  71.222  1.00  0.00    -0.166 OA 
HETATM   13  N   UNL     1     -10.263   8.332  69.000  1.00  0.00    -0.214 N  
HETATM   14  H   UNL     1     -10.796   8.745  68.235  1.00  0.00     0.000 HD 
BRANCH  13  15
HETATM   15  N   UNL     1      -9.469   7.207  68.791  1.00  0.00    -0.142 N  
HETATM   16  C   UNL     1      -8.410   7.272  67.915  1.00  0.00    -0.119 C  
HETATM   17  C   UNL     1      -7.912   5.865  67.683  1.00  0.00    -0.102 C  
HETATM   18  O   UNL     1      -7.985   8.276  67.360  1.00  0.00    -0.104 OA 
HETATM   19  C   UNL     1      -8.954   4.970  68.426  1.00  0.00    -0.123 C  
HETATM   20  C   UNL     1      -9.609   3.979  67.424  1.00  0.00    -0.222 C  
HETATM   21  C   UNL     1      -9.977   5.937  68.957  1.00  0.00    -0.165 C  
HETATM   22  O   UNL     1     -11.083   5.608  69.359  1.00  0.00    -0.294 OA 
HETATM   23  C   UNL     1     -10.204   4.833  66.299  1.00  0.00    -0.315 C  
HETATM   24  C   UNL     1      -9.306   5.602  65.655  1.00  0.00    -0.027 C  
HETATM   25  C   UNL     1      -7.878   5.462  66.175  1.00  0.00    -0.103 C  
HETATM   26  C   UNL     1      -7.437   3.982  66.165  1.00  0.00    -0.088 C  
HETATM   27  C   UNL     1      -8.165   2.867  65.442  1.00  0.00    -0.091 C  
HETATM   28  C   UNL     1      -8.449   3.120  66.903  1.00  0.00    -0.105 C  
ENDBRANCH  13  15
ENDBRANCH   8  11
TORSDOF 2
ENDMDL
MODEL       65
REMARK 921   NORMALIZED FREE ENERGY PREDICTED BY IDOCK:   -5.40 KCAL/MOL
REMARK 922        TOTAL FREE ENERGY PREDICTED BY IDOCK:   -6.48 KCAL/MOL
REMARK 923 INTER-LIGAND FREE ENERGY PREDICTED BY IDOCK:   -6.36 KCAL/MOL
REMARK 924 INTRA-LIGAND FREE ENERGY PREDICTED BY IDOCK:   -0.12 KCAL/MOL
REMARK 927      BINDING AFFINITY PREDICTED BY RF-SCORE:    0.00 PKD
ROOT
HETATM    1  F   UNL     1     -10.866  18.077  67.408  1.00  0.00    -0.390 F  
HETATM    2  C   UNL     1     -10.295  17.318  66.432  1.00  0.00    -0.316 C  
HETATM    3  C   UNL     1     -10.333  15.836  66.718  1.00  0.00    -0.293 A  
HETATM    4  F   UNL     1     -10.932  17.647  65.276  1.00  0.00    -0.394 F  
HETATM    5  F   UNL     1      -9.018  17.780  66.303  1.00  0.00    -0.268 F  
HETATM    6  C   UNL     1     -10.932  15.344  67.883  1.00  0.00    -0.310 A  
HETATM    7  C   UNL     1     -10.863  13.984  68.190  1.00  0.00    -0.260 A  
HETATM    8  C   UNL     1     -10.192  13.089  67.342  1.00  0.00    -0.231 A  
HETATM    9  C   UNL     1      -9.661  13.564  66.137  1.00  0.00    -0.264 A  
HETATM   10  C   UNL     1      -9.729  14.929  65.832  1.00  0.00    -0.366 A  
ENDROOT
BRANCH   8  11
HETATM   11  C   UNL     1     -10.040  11.683  67.824  1.00  0.00    -0.187 C  
HETATM   12  O   UNL     1     -10.486  10.765  67.137  1.00  0.00    -0.212 OA 
HETATM   13  N   UNL     1      -9.432  11.484  69.046  1.00  0.00    -0.412 N  
HETATM   14  H   UNL     1      -9.071  12.271  69.585  1.00  0.00     0.000 HD 
BRANCH  13  15
HETATM   15  N   UNL     1      -9.324  10.181  69.525  1.00  0.00    -0.219 N  
HETATM   16  C   UNL     1      -8.293   9.379  69.096  1.00  0.00    -0.125 C  
HETATM   17  C   UNL     1      -8.580   7.968  69.553  1.00  0.00    -0.136 C  
HETATM   18  O   UNL     1      -7.343   9.721  68.404  1.00  0.00    -0.077 OA 
HETATM   19  C   UNL     1     -10.015   8.055  70.161  1.00  0.00    -0.191 C  
HETATM   20  C   UNL     1     -10.967   7.082  69.410  1.00  0.00    -0.232 C  
HETATM   21  C   UNL     1     -10.437   9.482  69.942  1.00  0.00    -0.240 C  
HETATM   22  O   UNL     1     -11.591   9.875  70.033  1.00  0.00    -0.238 OA 
HETATM   23  C   UNL     1     -10.890   7.463  67.928  1.00  0.00    -0.151 C  
HETATM   24  C   UNL     1      -9.654   7.385  67.400  1.00  0.00    -0.184 C  
HETATM   25  C   UNL     1      -8.582   6.929  68.388  1.00  0.00    -0.125 C  
HETATM   26  C   UNL     1      -8.982   5.590  69.045  1.00  0.00    -0.118 C  
HETATM   27  C   UNL     1     -10.093   4.683  68.556  1.00  0.00    -0.077 C  
HETATM   28  C   UNL     1     -10.375   5.687  69.648  1.00  0.00    -0.346 C  
ENDBRANCH  13  15
ENDBRANCH   8  11
TORSDOF 2
ENDMDL
MODEL       66
REMARK 921   NORMALIZED FREE ENERGY PREDICTED BY IDOCK:   -5.36 KCAL/MOL
REMARK 922        TOTAL FREE ENERGY PREDICTED BY IDOCK:   -6.43 KCAL/MOL
REMARK 923 INTER-LIGAND FREE ENERGY PREDICTED BY IDOCK:   -5.94 KCAL/MOL
REMARK 924 INTRA-LIGAND FREE ENERGY PREDICTED BY IDOCK:   -0.49 KCAL/MOL
REMARK 927      BINDING AFFINITY PREDICTED BY RF-SCORE:    0.00 PKD
ROOT
HETATM    1  F   UNL     1      -8.952  20.295  65.782  1.00  0.00    -0.328 F  
HETATM    2  C   UNL     1      -7.693  19.819  65.991  1.00  0.00    -0.332 C  
HETATM    3  C   UNL     1      -7.654  18.350  66.340  1.00  0.00    -0.282 A  
HETATM    4  F   UNL     1      -6.986  20.112  64.867  1.00  0.00    -0.314 F  
HETATM    5  F   UNL     1      -7.164  20.592  66.981  1.00  0.00    -0.296 F  
HETATM    6  C   UNL     1      -8.830  17.594  66.405  1.00  0.00    -0.263 A  
HETATM    7  C   UNL     1      -8.790  16.268  66.837  1.00  0.00    -0.242 A  
HETATM    8  C   UNL     1      -7.578  15.669  67.214  1.00  0.00    -0.247 A  
HETATM    9  C   UNL     1      -6.390  16.396  67.074  1.00  0.00    -0.176 A  
HETATM   10  C   UNL     1      -6.431  17.729  66.644  1.00  0.00    -0.230 A  
ENDROOT
BRANCH   8  11
HETATM   11  C   UNL     1      -7.653  14.299  67.803  1.00  0.00    -0.165 C  
HETATM   12  O   UNL     1      -7.048  14.065  68.849  1.00  0.00    -0.104 OA 
HETATM   13  N   UNL     1      -8.375  13.343  67.120  1.00  0.00    -0.317 N  
HETATM   14  H   UNL     1      -8.868  13.576  66.258  1.00  0.00     0.000 HD 
BRANCH  13  15
HETATM   15  N   UNL     1      -8.416  12.051  67.638  1.00  0.00    -0.151 N  
HETATM   16  C   UNL     1      -7.739  11.037  67.001  1.00  0.00    -0.134 C  
HETATM   17  C   UNL     1      -8.179   9.728  67.611  1.00  0.00    -0.114 C  
HETATM   18  O   UNL     1      -6.968  11.157  66.058  1.00  0.00    -0.068 OA 
HETATM   19  C   UNL     1      -9.337  10.134  68.577  1.00  0.00    -0.151 C  
HETATM   20  C   UNL     1     -10.644   9.393  68.176  1.00  0.00    -0.261 C  
HETATM   21  C   UNL     1      -9.492  11.618  68.385  1.00  0.00    -0.193 C  
HETATM   22  O   UNL     1     -10.465  12.257  68.757  1.00  0.00    -0.220 OA 
HETATM   23  C   UNL     1     -10.902   9.739  66.706  1.00  0.00    -0.071 C  
HETATM   24  C   UNL     1      -9.906   9.386  65.872  1.00  0.00    -0.362 C  
HETATM   25  C   UNL     1      -8.724   8.709  66.562  1.00  0.00    -0.143 C  
HETATM   26  C   UNL     1      -9.200   7.495  67.391  1.00  0.00    -0.149 C  
HETATM   27  C   UNL     1     -10.569   6.855  67.281  1.00  0.00    -0.393 C  
HETATM   28  C   UNL     1     -10.317   7.902  68.339  1.00  0.00    -0.235 C  
ENDBRANCH  13  15
ENDBRANCH   8  11
TORSDOF 2
ENDMDL
MODEL       67
REMARK 921   NORMALIZED FREE ENERGY PREDICTED BY IDOCK:   -5.36 KCAL/MOL
REMARK 922        TOTAL FREE ENERGY PREDICTED BY IDOCK:   -6.43 KCAL/MOL
REMARK 923 INTER-LIGAND FREE ENERGY PREDICTED BY IDOCK:   -5.98 KCAL/MOL
REMARK 924 INTRA-LIGAND FREE ENERGY PREDICTED BY IDOCK:   -0.45 KCAL/MOL
REMARK 927      BINDING AFFINITY PREDICTED BY RF-SCORE:    0.00 PKD
ROOT
HETATM    1  F   UNL     1     -11.166   5.528  69.622  1.00  0.00    -0.403 F  
HETATM    2  C   UNL     1     -10.346   5.541  68.535  1.00  0.00    -0.178 C  
HETATM    3  C   UNL     1      -9.952   6.929  68.091  1.00  0.00    -0.170 A  
HETATM    4  F   UNL     1      -9.275   4.769  68.861  1.00  0.00    -0.122 F  
HETATM    5  F   UNL     1     -11.014   4.863  67.558  1.00  0.00    -0.039 F  
HETATM    6  C   UNL     1     -10.400   8.060  68.784  1.00  0.00    -0.223 A  
HETATM    7  C   UNL     1     -10.121   9.338  68.299  1.00  0.00    -0.214 A  
HETATM    8  C   UNL     1      -9.392   9.515  67.112  1.00  0.00    -0.174 A  
HETATM    9  C   UNL     1      -8.875   8.390  66.460  1.00  0.00    -0.172 A  
HETATM   10  C   UNL     1      -9.158   7.107  66.946  1.00  0.00    -0.159 A  
ENDROOT
BRANCH   8  11
HETATM   11  C   UNL     1      -9.271  10.909  66.592  1.00  0.00    -0.168 C  
HETATM   12  O   UNL     1      -9.080  11.083  65.388  1.00  0.00    -0.198 OA 
HETATM   13  N   UNL     1      -9.347  11.945  67.500  1.00  0.00    -0.173 N  
HETATM   14  H   UNL     1      -9.511  11.761  68.490  1.00  0.00     0.000 HD 
BRANCH  13  15
HETATM   15  N   UNL     1      -9.193  13.247  67.032  1.00  0.00    -0.231 N  
HETATM   16  C   UNL     1      -8.150  14.019  67.489  1.00  0.00    -0.186 C  
HETATM   17  C   UNL     1      -8.389  15.439  67.035  1.00  0.00    -0.268 C  
HETATM   18  O   UNL     1      -7.226  13.647  68.200  1.00  0.00    -0.090 OA 
HETATM   19  C   UNL     1      -9.812  15.395  66.394  1.00  0.00    -0.301 C  
HETATM   20  C   UNL     1     -10.755  16.388  67.129  1.00  0.00    -0.233 C  
HETATM   21  C   UNL     1     -10.277  13.978  66.594  1.00  0.00    -0.275 C  
HETATM   22  O   UNL     1     -11.438  13.617  66.475  1.00  0.00    -0.314 OA 
HETATM   23  C   UNL     1     -10.721  15.997  68.610  1.00  0.00    -0.281 C  
HETATM   24  C   UNL     1      -9.496  16.039  69.166  1.00  0.00    -0.253 C  
HETATM   25  C   UNL     1      -8.391  16.471  68.206  1.00  0.00    -0.190 C  
HETATM   26  C   UNL     1      -8.740  17.825  67.548  1.00  0.00    -0.239 C  
HETATM   27  C   UNL     1      -9.837  18.758  68.017  1.00  0.00    -0.386 C  
HETATM   28  C   UNL     1     -10.120  17.768  66.913  1.00  0.00    -0.342 C  
ENDBRANCH  13  15
ENDBRANCH   8  11
TORSDOF 2
ENDMDL
MODEL       68
REMARK 921   NORMALIZED FREE ENERGY PREDICTED BY IDOCK:   -5.34 KCAL/MOL
REMARK 922        TOTAL FREE ENERGY PREDICTED BY IDOCK:   -6.42 KCAL/MOL
REMARK 923 INTER-LIGAND FREE ENERGY PREDICTED BY IDOCK:   -5.92 KCAL/MOL
REMARK 924 INTRA-LIGAND FREE ENERGY PREDICTED BY IDOCK:   -0.50 KCAL/MOL
REMARK 927      BINDING AFFINITY PREDICTED BY RF-SCORE:    0.00 PKD
ROOT
HETATM    1  F   UNL     1      -5.675  18.350  66.857  1.00  0.00    -0.146 F  
HETATM    2  C   UNL     1      -6.918  18.312  66.301  1.00  0.00    -0.249 C  
HETATM    3  C   UNL     1      -7.646  17.010  66.537  1.00  0.00    -0.326 A  
HETATM    4  F   UNL     1      -7.587  19.386  66.799  1.00  0.00    -0.228 F  
HETATM    5  F   UNL     1      -6.738  18.563  64.974  1.00  0.00    -0.279 F  
HETATM    6  C   UNL     1      -7.057  15.982  67.282  1.00  0.00    -0.238 A  
HETATM    7  C   UNL     1      -7.693  14.745  67.397  1.00  0.00    -0.230 A  
HETATM    8  C   UNL     1      -8.926  14.508  66.770  1.00  0.00    -0.270 A  
HETATM    9  C   UNL     1      -9.554  15.557  66.091  1.00  0.00    -0.362 A  
HETATM   10  C   UNL     1      -8.914  16.798  65.973  1.00  0.00    -0.220 A  
ENDROOT
BRANCH   8  11
HETATM   11  C   UNL     1      -9.456  13.112  66.824  1.00  0.00    -0.252 C  
HETATM   12  O   UNL     1     -10.156  12.704  65.897  1.00  0.00    -0.257 OA 
HETATM   13  N   UNL     1      -9.162  12.354  67.937  1.00  0.00    -0.185 N  
HETATM   14  H   UNL     1      -8.574  12.726  68.683  1.00  0.00     0.000 HD 
BRANCH  13  15
HETATM   15  N   UNL     1      -9.687  11.067  68.017  1.00  0.00    -0.168 N  
HETATM   16  C   UNL     1     -10.705  10.797  68.902  1.00  0.00    -0.222 C  
HETATM   17  C   UNL     1     -10.879   9.299  68.970  1.00  0.00    -0.136 C  
HETATM   18  O   UNL     1     -11.319  11.614  69.576  1.00  0.00    -0.258 OA 
HETATM   19  C   UNL     1      -9.693   8.744  68.118  1.00  0.00    -0.177 C  
HETATM   20  C   UNL     1      -8.806   7.812  68.991  1.00  0.00    -0.138 C  
HETATM   21  C   UNL     1      -8.922   9.965  67.698  1.00  0.00    -0.128 C  
HETATM   22  O   UNL     1      -7.784   9.934  67.251  1.00  0.00    -0.095 OA 
HETATM   23  C   UNL     1      -8.374   8.642  70.204  1.00  0.00    -0.126 C  
HETATM   24  C   UNL     1      -9.394   9.117  70.942  1.00  0.00    -0.335 C  
HETATM   25  C   UNL     1     -10.775   8.729  70.419  1.00  0.00    -0.254 C  
HETATM   26  C   UNL     1     -10.885   7.196  70.257  1.00  0.00    -0.271 C  
HETATM   27  C   UNL     1      -9.909   6.193  70.837  1.00  0.00    -0.215 C  
HETATM   28  C   UNL     1      -9.735   6.667  69.414  1.00  0.00    -0.153 C  
ENDBRANCH  13  15
ENDBRANCH   8  11
TORSDOF 2
ENDMDL
MODEL       69
REMARK 921   NORMALIZED FREE ENERGY PREDICTED BY IDOCK:   -5.28 KCAL/MOL
REMARK 922        TOTAL FREE ENERGY PREDICTED BY IDOCK:   -6.35 KCAL/MOL
REMARK 923 INTER-LIGAND FREE ENERGY PREDICTED BY IDOCK:   -6.19 KCAL/MOL
REMARK 924 INTRA-LIGAND FREE ENERGY PREDICTED BY IDOCK:   -0.15 KCAL/MOL
REMARK 927      BINDING AFFINITY PREDICTED BY RF-SCORE:    0.00 PKD
ROOT
HETATM    1  F   UNL     1      -7.761  19.066  67.927  1.00  0.00    -0.262 F  
HETATM    2  C   UNL     1      -8.761  18.578  67.141  1.00  0.00    -0.270 C  
HETATM    3  C   UNL     1      -9.032  17.108  67.351  1.00  0.00    -0.223 A  
HETATM    4  F   UNL     1      -9.850  19.354  67.390  1.00  0.00    -0.353 F  
HETATM    5  F   UNL     1      -8.391  18.851  65.858  1.00  0.00    -0.287 F  
HETATM    6  C   UNL     1      -8.307  16.371  68.294  1.00  0.00    -0.189 A  
HETATM    7  C   UNL     1      -8.489  14.991  68.399  1.00  0.00    -0.153 A  
HETATM    8  C   UNL     1      -9.396  14.319  67.565  1.00  0.00    -0.199 A  
HETATM    9  C   UNL     1     -10.180  15.063  66.676  1.00  0.00    -0.271 A  
HETATM   10  C   UNL     1      -9.995  16.448  66.569  1.00  0.00    -0.294 A  
ENDROOT
BRANCH   8  11
HETATM   11  C   UNL     1      -9.415  12.828  67.646  1.00  0.00    -0.190 C  
HETATM   12  O   UNL     1      -9.261  12.172  66.616  1.00  0.00    -0.198 OA 
HETATM   13  N   UNL     1      -9.642  12.252  68.878  1.00  0.00    -0.406 N  
HETATM   14  H   UNL     1      -9.760  12.829  69.711  1.00  0.00     0.000 HD 
BRANCH  13  15
HETATM   15  N   UNL     1      -9.704  10.863  68.958  1.00  0.00    -0.194 N  
HETATM   16  C   UNL     1      -8.542  10.127  68.973  1.00  0.00    -0.156 C  
HETATM   17  C   UNL     1      -8.910   8.674  68.786  1.00  0.00    -0.139 C  
HETATM   18  O   UNL     1      -7.403  10.566  69.050  1.00  0.00    -0.084 OA 
HETATM   19  C   UNL     1     -10.443   8.709  68.491  1.00  0.00    -0.209 C  
HETATM   20  C   UNL     1     -10.730   8.064  67.107  1.00  0.00    -0.285 C  
HETATM   21  C   UNL     1     -10.795  10.172  68.476  1.00  0.00    -0.237 C  
HETATM   22  O   UNL     1     -11.835  10.619  68.015  1.00  0.00    -0.494 OA 
HETATM   23  C   UNL     1      -9.878   8.830  66.090  1.00  0.00    -0.297 C  
HETATM   24  C   UNL     1      -8.556   8.797  66.340  1.00  0.00    -0.138 C  
HETATM   25  C   UNL     1      -8.176   8.000  67.585  1.00  0.00    -0.124 C  
HETATM   26  C   UNL     1      -8.755   6.570  67.512  1.00  0.00    -0.114 C  
HETATM   27  C   UNL     1      -9.325   5.929  66.263  1.00  0.00    -0.168 C  
HETATM   28  C   UNL     1     -10.250   6.613  67.240  1.00  0.00    -0.256 C  
ENDBRANCH  13  15
ENDBRANCH   8  11
TORSDOF 2
ENDMDL
MODEL       70
REMARK 921   NORMALIZED FREE ENERGY PREDICTED BY IDOCK:   -5.28 KCAL/MOL
REMARK 922        TOTAL FREE ENERGY PREDICTED BY IDOCK:   -6.35 KCAL/MOL
REMARK 923 INTER-LIGAND FREE ENERGY PREDICTED BY IDOCK:   -6.20 KCAL/MOL
REMARK 924 INTRA-LIGAND FREE ENERGY PREDICTED BY IDOCK:   -0.14 KCAL/MOL
REMARK 927      BINDING AFFINITY PREDICTED BY RF-SCORE:    0.00 PKD
ROOT
HETATM    1  F   UNL     1      -7.484   2.723  67.800  1.00  0.00    -0.055 F  
HETATM    2  C   UNL     1      -8.797   2.985  67.551  1.00  0.00    -0.139 C  
HETATM    3  C   UNL     1      -9.081   4.443  67.281  1.00  0.00    -0.145 A  
HETATM    4  F   UNL     1      -9.153   2.179  66.515  1.00  0.00    -0.128 F  
HETATM    5  F   UNL     1      -9.480   2.524  68.637  1.00  0.00    -0.212 F  
HETATM    6  C   UNL     1      -8.049   5.388  67.279  1.00  0.00    -0.101 A  
HETATM    7  C   UNL     1      -8.340   6.746  67.139  1.00  0.00    -0.121 A  
HETATM    8  C   UNL     1      -9.665   7.188  67.002  1.00  0.00    -0.222 A  
HETATM    9  C   UNL     1     -10.692   6.241  66.924  1.00  0.00    -0.411 A  
HETATM   10  C   UNL     1     -10.399   4.878  67.067  1.00  0.00    -0.209 A  
ENDROOT
BRANCH   8  11
HETATM   11  C   UNL     1      -9.891   8.665  67.010  1.00  0.00    -0.220 C  
HETATM   12  O   UNL     1     -10.204   9.226  65.960  1.00  0.00    -0.269 OA 
HETATM   13  N   UNL     1      -9.702   9.339  68.198  1.00  0.00    -0.147 N  
HETATM   14  H   UNL     1      -9.447   8.838  69.049  1.00  0.00     0.000 HD 
BRANCH  13  15
HETATM   15  N   UNL     1      -9.868  10.722  68.206  1.00  0.00    -0.161 N  
HETATM   16  C   UNL     1     -11.133  11.257  68.278  1.00  0.00    -0.240 C  
HETATM   17  C   UNL     1     -11.028  12.737  67.994  1.00  0.00    -0.266 C  
HETATM   18  O   UNL     1     -12.174  10.643  68.465  1.00  0.00    -0.382 OA 
HETATM   19  C   UNL     1      -9.535  12.936  67.582  1.00  0.00    -0.197 C  
HETATM   20  C   UNL     1      -9.458  13.536  66.150  1.00  0.00    -0.159 C  
HETATM   21  C   UNL     1      -8.945  11.553  67.608  1.00  0.00    -0.160 C  
HETATM   22  O   UNL     1      -7.880  11.255  67.089  1.00  0.00    -0.136 OA 
HETATM   23  C   UNL     1     -10.239  12.581  65.241  1.00  0.00    -0.302 C  
HETATM   24  C   UNL     1     -11.527  12.412  65.592  1.00  0.00    -0.412 C  
HETATM   25  C   UNL     1     -11.947  13.209  66.824  1.00  0.00    -0.434 C  
HETATM   26  C   UNL     1     -11.623  14.708  66.639  1.00  0.00    -0.359 C  
HETATM   27  C   UNL     1     -11.257  15.358  65.320  1.00  0.00    -0.313 C  
HETATM   28  C   UNL     1     -10.164  14.894  66.252  1.00  0.00    -0.306 C  
ENDBRANCH  13  15
ENDBRANCH   8  11
TORSDOF 2
ENDMDL
MODEL       71
REMARK 921   NORMALIZED FREE ENERGY PREDICTED BY IDOCK:   -5.28 KCAL/MOL
REMARK 922        TOTAL FREE ENERGY PREDICTED BY IDOCK:   -6.34 KCAL/MOL
REMARK 923 INTER-LIGAND FREE ENERGY PREDICTED BY IDOCK:   -6.18 KCAL/MOL
REMARK 924 INTRA-LIGAND FREE ENERGY PREDICTED BY IDOCK:   -0.17 KCAL/MOL
REMARK 927      BINDING AFFINITY PREDICTED BY RF-SCORE:    0.00 PKD
ROOT
HETATM    1  F   UNL     1     -12.396  17.166  73.541  1.00  0.00    -0.231 F  
HETATM    2  C   UNL     1     -12.998  15.959  73.353  1.00  0.00    -0.583 C  
HETATM    3  C   UNL     1     -12.398  15.155  72.224  1.00  0.00    -0.443 A  
HETATM    4  F   UNL     1     -12.935  15.315  74.549  1.00  0.00    -0.420 F  
HETATM    5  F   UNL     1     -14.317  16.231  73.141  1.00  0.00    -0.627 F  
HETATM    6  C   UNL     1     -11.313  15.645  71.489  1.00  0.00    -0.454 A  
HETATM    7  C   UNL     1     -10.842  14.943  70.378  1.00  0.00    -0.111 A  
HETATM    8  C   UNL     1     -11.444  13.741  69.978  1.00  0.00    -0.188 A  
HETATM    9  C   UNL     1     -12.477  13.207  70.757  1.00  0.00    -0.389 A  
HETATM   10  C   UNL     1     -12.952  13.913  71.869  1.00  0.00    -0.440 A  
ENDROOT
BRANCH   8  11
HETATM   11  C   UNL     1     -10.970  13.139  68.695  1.00  0.00    -0.265 C  
HETATM   12  O   UNL     1     -10.760  11.928  68.645  1.00  0.00    -0.220 OA 
HETATM   13  N   UNL     1     -10.755  13.986  67.628  1.00  0.00    -0.255 N  
HETATM   14  H   UNL     1     -10.945  14.985  67.706  1.00  0.00     0.000 HD 
BRANCH  13  15
HETATM   15  N   UNL     1     -10.273  13.442  66.440  1.00  0.00    -0.287 N  
HETATM   16  C   UNL     1     -11.119  12.733  65.620  1.00  0.00    -0.279 C  
HETATM   17  C   UNL     1     -10.279  12.043  64.572  1.00  0.00    -0.318 C  
HETATM   18  O   UNL     1     -12.329  12.616  65.749  1.00  0.00    -0.594 OA 
HETATM   19  C   UNL     1      -8.810  12.327  65.019  1.00  0.00     0.961 C  
HETATM   20  C   UNL     1      -8.062  10.986  65.260  1.00  0.00     0.158 C  
HETATM   21  C   UNL     1      -8.945  13.095  66.305  1.00  0.00     0.116 C  
HETATM   22  O   UNL     1      -8.031  13.264  67.099  1.00  0.00    -0.154 OA 
HETATM   23  C   UNL     1      -8.892  10.208  66.287  1.00  0.00    -0.163 C  
HETATM   24  C   UNL     1     -10.157   9.959  65.901  1.00  0.00    -0.316 C  
HETATM   25  C   UNL     1     -10.505  10.499  64.517  1.00  0.00    -0.151 C  
HETATM   26  C   UNL     1      -9.500   9.984  63.463  1.00  0.00    -0.241 C  
HETATM   27  C   UNL     1      -8.518   8.851  63.684  1.00  0.00    -0.145 C  
HETATM   28  C   UNL     1      -8.073  10.277  63.899  1.00  0.00    -0.138 C  
ENDBRANCH  13  15
ENDBRANCH   8  11
TORSDOF 2
ENDMDL
MODEL       72
REMARK 921   NORMALIZED FREE ENERGY PREDICTED BY IDOCK:   -5.26 KCAL/MOL
REMARK 922        TOTAL FREE ENERGY PREDICTED BY IDOCK:   -6.32 KCAL/MOL
REMARK 923 INTER-LIGAND FREE ENERGY PREDICTED BY IDOCK:   -6.16 KCAL/MOL
REMARK 924 INTRA-LIGAND FREE ENERGY PREDICTED BY IDOCK:   -0.16 KCAL/MOL
REMARK 927      BINDING AFFINITY PREDICTED BY RF-SCORE:    0.00 PKD
ROOT
HETATM    1  F   UNL     1     -13.877  13.957  72.780  1.00  0.00    -0.562 F  
HETATM    2  C   UNL     1     -13.362  14.689  71.753  1.00  0.00    -0.360 C  
HETATM    3  C   UNL     1     -12.652  13.855  70.713  1.00  0.00    -0.424 A  
HETATM    4  F   UNL     1     -14.401  15.399  71.237  1.00  0.00    -0.546 F  
HETATM    5  F   UNL     1     -12.531  15.603  72.329  1.00  0.00    -0.363 F  
HETATM    6  C   UNL     1     -12.580  12.463  70.835  1.00  0.00    -0.337 A  
HETATM    7  C   UNL     1     -11.826  11.716  69.929  1.00  0.00    -0.434 A  
HETATM    8  C   UNL     1     -11.127  12.342  68.885  1.00  0.00    -0.307 A  
HETATM    9  C   UNL     1     -11.261  13.724  68.713  1.00  0.00    -0.303 A  
HETATM   10  C   UNL     1     -12.016  14.474  69.625  1.00  0.00    -0.375 A  
ENDROOT
BRANCH   8  11
HETATM   11  C   UNL     1     -10.229  11.482  68.058  1.00  0.00    -0.191 C  
HETATM   12  O   UNL     1     -10.385  10.261  68.081  1.00  0.00    -0.160 OA 
HETATM   13  N   UNL     1      -9.237  12.101  67.328  1.00  0.00    -0.180 N  
HETATM   14  H   UNL     1      -9.142  13.117  67.331  1.00  0.00     0.000 HD 
BRANCH  13  15
HETATM   15  N   UNL     1      -8.367  11.305  66.587  1.00  0.00    -0.160 N  
HETATM   16  C   UNL     1      -8.793  10.743  65.407  1.00  0.00    -0.189 C  
HETATM   17  C   UNL     1      -7.759   9.731  64.974  1.00  0.00    -0.126 C  
HETATM   18  O   UNL     1      -9.853  10.962  64.837  1.00  0.00    -0.239 OA 
HETATM   19  C   UNL     1      -6.760   9.677  66.173  1.00  0.00    -0.083 C  
HETATM   20  C   UNL     1      -6.684   8.229  66.733  1.00  0.00    -0.064 C  
HETATM   21  C   UNL     1      -7.345  10.610  67.198  1.00  0.00    -0.098 C  
HETATM   22  O   UNL     1      -7.005  10.634  68.371  1.00  0.00    -0.063 OA 
HETATM   23  C   UNL     1      -8.119   7.830  67.093  1.00  0.00    -0.118 C  
HETATM   24  C   UNL     1      -8.981   7.872  66.059  1.00  0.00    -0.195 C  
HETATM   25  C   UNL     1      -8.350   8.305  64.738  1.00  0.00    -0.129 C  
HETATM   26  C   UNL     1      -7.132   7.417  64.400  1.00  0.00    -0.062 C  
HETATM   27  C   UNL     1      -6.801   6.105  65.082  1.00  0.00    -0.051 C  
HETATM   28  C   UNL     1      -6.157   7.382  65.567  1.00  0.00    -0.038 C  
ENDBRANCH  13  15
ENDBRANCH   8  11
TORSDOF 2
ENDMDL
MODEL       73
REMARK 921   NORMALIZED FREE ENERGY PREDICTED BY IDOCK:   -5.23 KCAL/MOL
REMARK 922        TOTAL FREE ENERGY PREDICTED BY IDOCK:   -6.28 KCAL/MOL
REMARK 923 INTER-LIGAND FREE ENERGY PREDICTED BY IDOCK:   -5.79 KCAL/MOL
REMARK 924 INTRA-LIGAND FREE ENERGY PREDICTED BY IDOCK:   -0.49 KCAL/MOL
REMARK 927      BINDING AFFINITY PREDICTED BY RF-SCORE:    0.00 PKD
ROOT
HETATM    1  F   UNL     1      -8.604  19.699  68.975  1.00  0.00    -0.389 F  
HETATM    2  C   UNL     1      -7.317  19.277  68.839  1.00  0.00    -0.356 C  
HETATM    3  C   UNL     1      -7.196  17.845  68.374  1.00  0.00    -0.256 A  
HETATM    4  F   UNL     1      -6.718  20.157  67.992  1.00  0.00    -0.277 F  
HETATM    5  F   UNL     1      -6.733  19.469  70.056  1.00  0.00    -0.330 F  
HETATM    6  C   UNL     1      -8.335  17.079  68.102  1.00  0.00    -0.222 A  
HETATM    7  C   UNL     1      -8.214  15.726  67.782  1.00  0.00    -0.154 A  
HETATM    8  C   UNL     1      -6.953  15.110  67.729  1.00  0.00    -0.190 A  
HETATM    9  C   UNL     1      -5.808  15.891  67.922  1.00  0.00    -0.155 A  
HETATM   10  C   UNL     1      -5.932  17.248  68.246  1.00  0.00    -0.148 A  
ENDROOT
BRANCH   8  11
HETATM   11  C   UNL     1      -6.930  13.630  67.527  1.00  0.00    -0.143 C  
HETATM   12  O   UNL     1      -5.888  13.095  67.151  1.00  0.00    -0.332 OA 
HETATM   13  N   UNL     1      -8.101  12.933  67.739  1.00  0.00    -0.152 N  
HETATM   14  H   UNL     1      -8.945  13.411  68.056  1.00  0.00     0.000 HD 
BRANCH  13  15
HETATM   15  N   UNL     1      -8.102  11.559  67.512  1.00  0.00    -0.131 N  
HETATM   16  C   UNL     1      -8.845  11.038  66.479  1.00  0.00    -0.169 C  
HETATM   17  C   UNL     1      -8.878   9.537  66.641  1.00  0.00    -0.150 C  
HETATM   18  O   UNL     1      -9.439  11.672  65.617  1.00  0.00    -0.226 OA 
HETATM   19  C   UNL     1      -8.184   9.292  68.018  1.00  0.00    -0.115 C  
HETATM   20  C   UNL     1      -9.158   8.549  68.976  1.00  0.00    -0.146 C  
HETATM   21  C   UNL     1      -7.877  10.668  68.540  1.00  0.00    -0.115 C  
HETATM   22  O   UNL     1      -7.583  10.908  69.702  1.00  0.00    -0.100 OA 
HETATM   23  C   UNL     1     -10.424   9.409  69.054  1.00  0.00    -0.233 C  
HETATM   24  C   UNL     1     -11.025   9.618  67.869  1.00  0.00    -0.205 C  
HETATM   25  C   UNL     1     -10.324   8.951  66.688  1.00  0.00    -0.294 C  
HETATM   26  C   UNL     1     -10.137   7.440  66.948  1.00  0.00    -0.327 C  
HETATM   27  C   UNL     1     -10.832   6.658  68.044  1.00  0.00    -0.345 C  
HETATM   28  C   UNL     1      -9.448   7.211  68.284  1.00  0.00    -0.133 C  
ENDBRANCH  13  15
ENDBRANCH   8  11
TORSDOF 2
ENDMDL
MODEL       74
REMARK 921   NORMALIZED FREE ENERGY PREDICTED BY IDOCK:   -5.20 KCAL/MOL
REMARK 922        TOTAL FREE ENERGY PREDICTED BY IDOCK:   -6.25 KCAL/MOL
REMARK 923 INTER-LIGAND FREE ENERGY PREDICTED BY IDOCK:   -5.84 KCAL/MOL
REMARK 924 INTRA-LIGAND FREE ENERGY PREDICTED BY IDOCK:   -0.41 KCAL/MOL
REMARK 927      BINDING AFFINITY PREDICTED BY RF-SCORE:    0.00 PKD
ROOT
HETATM    1  F   UNL     1     -10.456  15.656  67.744  1.00  0.00    -0.250 F  
HETATM    2  C   UNL     1     -11.290  15.355  68.777  1.00  0.00    -0.320 C  
HETATM    3  C   UNL     1     -11.251  13.901  69.182  1.00  0.00    -0.311 A  
HETATM    4  F   UNL     1     -10.952  16.193  69.793  1.00  0.00    -0.255 F  
HETATM    5  F   UNL     1     -12.534  15.738  68.372  1.00  0.00    -0.056 F  
HETATM    6  C   UNL     1     -10.400  12.997  68.536  1.00  0.00    -0.247 A  
HETATM    7  C   UNL     1     -10.455  11.637  68.843  1.00  0.00    -0.201 A  
HETATM    8  C   UNL     1     -11.359  11.151  69.799  1.00  0.00    -0.354 A  
HETATM    9  C   UNL     1     -12.155  12.061  70.505  1.00  0.00    -0.402 A  
HETATM   10  C   UNL     1     -12.102  13.426  70.193  1.00  0.00    -0.415 A  
ENDROOT
BRANCH   8  11
HETATM   11  C   UNL     1     -11.451   9.668  69.954  1.00  0.00    -0.100 C  
HETATM   12  O   UNL     1     -12.296   9.198  70.715  1.00  0.00    -0.199 OA 
HETATM   13  N   UNL     1     -10.551   8.891  69.256  1.00  0.00    -0.271 N  
HETATM   14  H   UNL     1      -9.867   9.317  68.630  1.00  0.00     0.000 HD 
BRANCH  13  15
HETATM   15  N   UNL     1     -10.599   7.510  69.425  1.00  0.00    -0.229 N  
HETATM   16  C   UNL     1      -9.887   6.921  70.444  1.00  0.00    -0.179 C  
HETATM   17  C   UNL     1      -9.904   5.428  70.221  1.00  0.00    -0.272 C  
HETATM   18  O   UNL     1      -9.283   7.498  71.338  1.00  0.00    -0.141 OA 
HETATM   19  C   UNL     1     -10.588   5.263  68.827  1.00  0.00    -0.115 C  
HETATM   20  C   UNL     1      -9.629   4.528  67.850  1.00  0.00    -0.208 C  
HETATM   21  C   UNL     1     -10.842   6.670  68.359  1.00  0.00    -0.255 C  
HETATM   22  O   UNL     1     -11.114   6.967  67.205  1.00  0.00    -0.350 OA 
HETATM   23  C   UNL     1      -8.334   5.346  67.821  1.00  0.00    -0.099 C  
HETATM   24  C   UNL     1      -7.740   5.485  69.020  1.00  0.00    -0.087 C  
HETATM   25  C   UNL     1      -8.478   4.795  70.165  1.00  0.00    -0.094 C  
HETATM   26  C   UNL     1      -8.713   3.303  69.840  1.00  0.00    -0.134 C  
HETATM   27  C   UNL     1      -8.032   2.543  68.720  1.00  0.00    -0.062 C  
HETATM   28  C   UNL     1      -9.393   3.153  68.489  1.00  0.00    -0.240 C  
ENDBRANCH  13  15
ENDBRANCH   8  11
TORSDOF 2
ENDMDL
MODEL       75
REMARK 921   NORMALIZED FREE ENERGY PREDICTED BY IDOCK:   -5.18 KCAL/MOL
REMARK 922        TOTAL FREE ENERGY PREDICTED BY IDOCK:   -6.23 KCAL/MOL
REMARK 923 INTER-LIGAND FREE ENERGY PREDICTED BY IDOCK:   -6.08 KCAL/MOL
REMARK 924 INTRA-LIGAND FREE ENERGY PREDICTED BY IDOCK:   -0.15 KCAL/MOL
REMARK 927      BINDING AFFINITY PREDICTED BY RF-SCORE:    0.00 PKD
ROOT
HETATM    1  F   UNL     1     -10.549   5.243  66.282  1.00  0.00    -0.259 F  
HETATM    2  C   UNL     1      -9.334   5.841  66.137  1.00  0.00    -0.144 C  
HETATM    3  C   UNL     1      -9.319   7.290  66.561  1.00  0.00    -0.216 A  
HETATM    4  F   UNL     1      -8.452   5.080  66.838  1.00  0.00    -0.107 F  
HETATM    5  F   UNL     1      -9.001   5.690  64.824  1.00  0.00    -0.122 F  
HETATM    6  C   UNL     1     -10.471   7.902  67.069  1.00  0.00    -0.419 A  
HETATM    7  C   UNL     1     -10.475   9.269  67.351  1.00  0.00    -0.340 A  
HETATM    8  C   UNL     1      -9.331  10.053  67.131  1.00  0.00    -0.173 A  
HETATM    9  C   UNL     1      -8.155   9.430  66.699  1.00  0.00    -0.108 A  
HETATM   10  C   UNL     1      -8.153   8.058  66.413  1.00  0.00    -0.107 A  
ENDROOT
BRANCH   8  11
HETATM   11  C   UNL     1      -9.474  11.527  67.319  1.00  0.00    -0.169 C  
HETATM   12  O   UNL     1      -9.596  12.247  66.328  1.00  0.00    -0.235 OA 
HETATM   13  N   UNL     1      -9.425  12.020  68.606  1.00  0.00    -0.378 N  
HETATM   14  H   UNL     1      -9.327  11.392  69.403  1.00  0.00     0.000 HD 
BRANCH  13  15
HETATM   15  N   UNL     1      -9.514  13.398  68.790  1.00  0.00    -0.018 N  
HETATM   16  C   UNL     1     -10.738  14.020  68.717  1.00  0.00    -0.259 C  
HETATM   17  C   UNL     1     -10.501  15.510  68.679  1.00  0.00    -0.237 C  
HETATM   18  O   UNL     1     -11.828  13.472  68.626  1.00  0.00    -0.333 OA 
HETATM   19  C   UNL     1      -8.949  15.642  68.569  1.00  0.00    -0.192 C  
HETATM   20  C   UNL     1      -8.575  16.422  67.277  1.00  0.00    -0.200 C  
HETATM   21  C   UNL     1      -8.451  14.224  68.493  1.00  0.00    -0.164 C  
HETATM   22  O   UNL     1      -7.326  13.914  68.130  1.00  0.00    -0.096 OA 
HETATM   23  C   UNL     1      -9.225  15.666  66.114  1.00  0.00    -0.378 C  
HETATM   24  C   UNL     1     -10.563  15.556  66.205  1.00  0.00    -0.321 C  
HETATM   25  C   UNL     1     -11.160  16.210  67.448  1.00  0.00    -0.134 C  
HETATM   26  C   UNL     1     -10.725  17.689  67.547  1.00  0.00    -0.294 C  
HETATM   27  C   UNL     1     -10.085  18.480  66.424  1.00  0.00    -0.430 C  
HETATM   28  C   UNL     1      -9.212  17.806  67.454  1.00  0.00    -0.248 C  
ENDBRANCH  13  15
ENDBRANCH   8  11
TORSDOF 2
ENDMDL
MODEL       76
REMARK 921   NORMALIZED FREE ENERGY PREDICTED BY IDOCK:   -5.11 KCAL/MOL
REMARK 922        TOTAL FREE ENERGY PREDICTED BY IDOCK:   -6.15 KCAL/MOL
REMARK 923 INTER-LIGAND FREE ENERGY PREDICTED BY IDOCK:   -5.99 KCAL/MOL
REMARK 924 INTRA-LIGAND FREE ENERGY PREDICTED BY IDOCK:   -0.16 KCAL/MOL
REMARK 927      BINDING AFFINITY PREDICTED BY RF-SCORE:    0.00 PKD
ROOT
HETATM    1  F   UNL     1      -7.778   2.879  67.809  1.00  0.00    -0.059 F  
HETATM    2  C   UNL     1      -9.047   3.244  67.477  1.00  0.00    -0.173 C  
HETATM    3  C   UNL     1      -9.209   4.728  67.247  1.00  0.00    -0.139 A  
HETATM    4  F   UNL     1      -9.380   2.504  66.385  1.00  0.00    -0.146 F  
HETATM    5  F   UNL     1      -9.840   2.795  68.491  1.00  0.00    -0.218 F  
HETATM    6  C   UNL     1      -8.117   5.596  67.358  1.00  0.00    -0.102 A  
HETATM    7  C   UNL     1      -8.301   6.975  67.254  1.00  0.00    -0.122 A  
HETATM    8  C   UNL     1      -9.578   7.516  67.040  1.00  0.00    -0.221 A  
HETATM    9  C   UNL     1     -10.660   6.649  66.849  1.00  0.00    -0.376 A  
HETATM   10  C   UNL     1     -10.474   5.264  66.957  1.00  0.00    -0.290 A  
ENDROOT
BRANCH   8  11
HETATM   11  C   UNL     1      -9.701   9.004  67.092  1.00  0.00    -0.181 C  
HETATM   12  O   UNL     1     -10.530   9.509  67.849  1.00  0.00    -0.214 OA 
HETATM   13  N   UNL     1      -8.896   9.747  66.254  1.00  0.00    -0.144 N  
HETATM   14  H   UNL     1      -8.218   9.293  65.643  1.00  0.00     0.000 HD 
BRANCH  13  15
HETATM   15  N   UNL     1      -9.033  11.132  66.263  1.00  0.00    -0.187 N  
HETATM   16  C   UNL     1      -8.473  11.868  67.281  1.00  0.00    -0.172 C  
HETATM   17  C   UNL     1      -9.006  13.277  67.184  1.00  0.00    -0.229 C  
HETATM   18  O   UNL     1      -7.731  11.449  68.159  1.00  0.00    -0.105 OA 
HETATM   19  C   UNL     1     -10.086  13.195  66.060  1.00  0.00    -0.286 C  
HETATM   20  C   UNL     1     -11.467  13.635  66.620  1.00  0.00    -0.365 C  
HETATM   21  C   UNL     1     -10.114  11.744  65.664  1.00  0.00    -0.243 C  
HETATM   22  O   UNL     1     -11.011  11.232  65.011  1.00  0.00    -0.248 OA 
HETATM   23  C   UNL     1     -11.748  12.735  67.828  1.00  0.00    -0.412 C  
HETATM   24  C   UNL     1     -10.821  12.808  68.800  1.00  0.00    -0.270 C  
HETATM   25  C   UNL     1      -9.679  13.776  68.501  1.00  0.00    -0.193 C  
HETATM   26  C   UNL     1     -10.230  15.180  68.164  1.00  0.00    -0.227 C  
HETATM   27  C   UNL     1     -11.653  15.634  68.414  1.00  0.00    -0.358 C  
HETATM   28  C   UNL     1     -11.270  15.092  67.058  1.00  0.00    -0.308 C  
ENDBRANCH  13  15
ENDBRANCH   8  11
TORSDOF 2
ENDMDL
MODEL       77
REMARK 921   NORMALIZED FREE ENERGY PREDICTED BY IDOCK:   -5.07 KCAL/MOL
REMARK 922        TOTAL FREE ENERGY PREDICTED BY IDOCK:   -6.11 KCAL/MOL
REMARK 923 INTER-LIGAND FREE ENERGY PREDICTED BY IDOCK:   -5.61 KCAL/MOL
REMARK 924 INTRA-LIGAND FREE ENERGY PREDICTED BY IDOCK:   -0.50 KCAL/MOL
REMARK 927      BINDING AFFINITY PREDICTED BY RF-SCORE:    0.00 PKD
ROOT
HETATM    1  F   UNL     1      -8.684  20.508  67.779  1.00  0.00    -0.347 F  
HETATM    2  C   UNL     1      -9.099  19.775  66.709  1.00  0.00    -0.361 C  
HETATM    3  C   UNL     1      -9.158  18.291  66.978  1.00  0.00    -0.271 A  
HETATM    4  F   UNL     1     -10.303  20.291  66.342  1.00  0.00    -0.529 F  
HETATM    5  F   UNL     1      -8.237  20.077  65.697  1.00  0.00    -0.346 F  
HETATM    6  C   UNL     1      -8.827  17.774  68.236  1.00  0.00    -0.277 A  
HETATM    7  C   UNL     1      -8.777  16.395  68.439  1.00  0.00    -0.213 A  
HETATM    8  C   UNL     1      -9.055  15.503  67.391  1.00  0.00    -0.207 A  
HETATM    9  C   UNL     1      -9.464  16.014  66.155  1.00  0.00    -0.371 A  
HETATM   10  C   UNL     1      -9.510  17.400  65.951  1.00  0.00    -0.022 A  
ENDROOT
BRANCH   8  11
HETATM   11  C   UNL     1      -8.831  14.050  67.660  1.00  0.00    -0.190 C  
HETATM   12  O   UNL     1      -8.842  13.650  68.824  1.00  0.00    -0.072 OA 
HETATM   13  N   UNL     1      -8.586  13.226  66.582  1.00  0.00    -0.431 N  
HETATM   14  H   UNL     1      -8.589  13.594  65.631  1.00  0.00     0.000 HD 
BRANCH  13  15
HETATM   15  N   UNL     1      -8.333  11.878  66.825  1.00  0.00    -0.175 N  
HETATM   16  C   UNL     1      -7.053  11.391  66.708  1.00  0.00    -0.132 C  
HETATM   17  C   UNL     1      -7.123   9.883  66.754  1.00  0.00    -0.090 C  
HETATM   18  O   UNL     1      -6.037  12.048  66.526  1.00  0.00    -0.158 OA 
HETATM   19  C   UNL     1      -8.654   9.577  66.744  1.00  0.00    -0.133 C  
HETATM   20  C   UNL     1      -9.009   8.693  65.516  1.00  0.00    -0.209 C  
HETATM   21  C   UNL     1      -9.311  10.926  66.632  1.00  0.00    -0.171 C  
HETATM   22  O   UNL     1     -10.482  11.091  66.323  1.00  0.00    -0.248 OA 
HETATM   23  C   UNL     1      -8.512   9.452  64.281  1.00  0.00    -0.198 C  
HETATM   24  C   UNL     1      -7.191   9.713  64.286  1.00  0.00    -0.122 C  
HETATM   25  C   UNL     1      -6.458   9.195  65.521  1.00  0.00    -0.068 C  
HETATM   26  C   UNL     1      -6.719   7.685  65.715  1.00  0.00    -0.046 C  
HETATM   27  C   UNL     1      -7.325   6.770  64.671  1.00  0.00    -0.089 C  
HETATM   28  C   UNL     1      -8.212   7.398  65.719  1.00  0.00    -0.135 C  
ENDBRANCH  13  15
ENDBRANCH   8  11
TORSDOF 2
ENDMDL
MODEL       78
REMARK 921   NORMALIZED FREE ENERGY PREDICTED BY IDOCK:   -5.07 KCAL/MOL
REMARK 922        TOTAL FREE ENERGY PREDICTED BY IDOCK:   -6.11 KCAL/MOL
REMARK 923 INTER-LIGAND FREE ENERGY PREDICTED BY IDOCK:   -5.62 KCAL/MOL
REMARK 924 INTRA-LIGAND FREE ENERGY PREDICTED BY IDOCK:   -0.48 KCAL/MOL
REMARK 927      BINDING AFFINITY PREDICTED BY RF-SCORE:    0.00 PKD
ROOT
HETATM    1  F   UNL     1     -11.000  13.087  63.521  1.00  0.00    -0.411 F  
HETATM    2  C   UNL     1     -11.353  13.098  64.836  1.00  0.00    -0.309 C  
HETATM    3  C   UNL     1     -10.943  11.851  65.582  1.00  0.00    -0.353 A  
HETATM    4  F   UNL     1     -10.810  14.228  65.364  1.00  0.00    -0.294 F  
HETATM    5  F   UNL     1     -12.703  13.285  64.856  1.00  0.00    -0.442 F  
HETATM    6  C   UNL     1     -10.249  10.822  64.936  1.00  0.00    -0.388 A  
HETATM    7  C   UNL     1      -9.976   9.628  65.606  1.00  0.00    -0.321 A  
HETATM    8  C   UNL     1     -10.392   9.437  66.933  1.00  0.00    -0.308 A  
HETATM    9  C   UNL     1     -11.016  10.492  67.608  1.00  0.00    -0.375 A  
HETATM   10  C   UNL     1     -11.292  11.689  66.933  1.00  0.00    -0.364 A  
ENDROOT
BRANCH   8  11
HETATM   11  C   UNL     1     -10.188   8.077  67.518  1.00  0.00    -0.245 C  
HETATM   12  O   UNL     1     -10.827   7.129  67.061  1.00  0.00    -0.351 OA 
HETATM   13  N   UNL     1      -9.311   7.956  68.575  1.00  0.00    -0.141 N  
HETATM   14  H   UNL     1      -8.796   8.764  68.923  1.00  0.00     0.000 HD 
BRANCH  13  15
HETATM   15  N   UNL     1      -9.146   6.701  69.155  1.00  0.00    -0.138 N  
HETATM   16  C   UNL     1      -9.629   6.465  70.421  1.00  0.00    -0.165 C  
HETATM   17  C   UNL     1      -9.075   5.140  70.891  1.00  0.00    -0.175 C  
HETATM   18  O   UNL     1     -10.324   7.219  71.088  1.00  0.00    -0.199 OA 
HETATM   19  C   UNL     1      -8.066   4.736  69.769  1.00  0.00    -0.069 C  
HETATM   20  C   UNL     1      -6.645   4.562  70.374  1.00  0.00    -0.035 C  
HETATM   21  C   UNL     1      -8.091   5.887  68.801  1.00  0.00    -0.103 C  
HETATM   22  O   UNL     1      -7.245   6.072  67.938  1.00  0.00    -0.078 OA 
HETATM   23  C   UNL     1      -6.309   5.884  71.073  1.00  0.00    -0.040 C  
HETATM   24  C   UNL     1      -7.175   6.232  72.043  1.00  0.00    -0.091 C  
HETATM   25  C   UNL     1      -8.313   5.235  72.250  1.00  0.00    -0.122 C  
HETATM   26  C   UNL     1      -7.756   3.816  72.498  1.00  0.00    -0.068 C  
HETATM   27  C   UNL     1      -6.310   3.499  72.824  1.00  0.00    -0.009 C  
HETATM   28  C   UNL     1      -6.786   3.424  71.394  1.00  0.00    -0.031 C  
ENDBRANCH  13  15
ENDBRANCH   8  11
TORSDOF 2
ENDMDL
MODEL       79
REMARK 921   NORMALIZED FREE ENERGY PREDICTED BY IDOCK:   -5.06 KCAL/MOL
REMARK 922        TOTAL FREE ENERGY PREDICTED BY IDOCK:   -6.10 KCAL/MOL
REMARK 923 INTER-LIGAND FREE ENERGY PREDICTED BY IDOCK:   -5.60 KCAL/MOL
REMARK 924 INTRA-LIGAND FREE ENERGY PREDICTED BY IDOCK:   -0.49 KCAL/MOL
REMARK 927      BINDING AFFINITY PREDICTED BY RF-SCORE:    0.00 PKD
ROOT
HETATM    1  F   UNL     1     -10.904  17.471  69.798  1.00  0.00    -0.146 F  
HETATM    2  C   UNL     1     -10.170  17.485  68.650  1.00  0.00    -0.373 C  
HETATM    3  C   UNL     1     -10.301  16.222  67.833  1.00  0.00    -0.285 A  
HETATM    4  F   UNL     1     -10.557  18.595  67.968  1.00  0.00    -0.385 F  
HETATM    5  F   UNL     1      -8.882  17.711  69.037  1.00  0.00    -0.253 F  
HETATM    6  C   UNL     1     -11.131  15.177  68.254  1.00  0.00    -0.295 A  
HETATM    7  C   UNL     1     -11.157  13.972  67.550  1.00  0.00    -0.313 A  
HETATM    8  C   UNL     1     -10.355  13.786  66.413  1.00  0.00    -0.290 A  
HETATM    9  C   UNL     1      -9.584  14.855  65.944  1.00  0.00    -0.343 A  
HETATM   10  C   UNL     1      -9.556  16.063  66.654  1.00  0.00    -0.258 A  
ENDROOT
BRANCH   8  11
HETATM   11  C   UNL     1     -10.336  12.418  65.814  1.00  0.00    -0.263 C  
HETATM   12  O   UNL     1     -11.393  11.795  65.714  1.00  0.00    -0.318 OA 
HETATM   13  N   UNL     1      -9.117  11.899  65.430  1.00  0.00    -0.421 N  
HETATM   14  H   UNL     1      -8.263  12.448  65.524  1.00  0.00     0.000 HD 
BRANCH  13  15
HETATM   15  N   UNL     1      -9.083  10.608  64.909  1.00  0.00    -0.196 N  
HETATM   16  C   UNL     1      -8.719   9.555  65.716  1.00  0.00    -0.147 C  
HETATM   17  C   UNL     1      -8.506   8.347  64.836  1.00  0.00    -0.141 C  
HETATM   18  O   UNL     1      -8.529   9.596  66.924  1.00  0.00    -0.120 OA 
HETATM   19  C   UNL     1      -8.636   8.910  63.386  1.00  0.00    -0.104 C  
HETATM   20  C   UNL     1      -7.326   8.642  62.594  1.00  0.00    -0.099 C  
HETATM   21  C   UNL     1      -8.850  10.388  63.568  1.00  0.00    -0.212 C  
HETATM   22  O   UNL     1      -8.727  11.212  62.673  1.00  0.00    -0.264 OA 
HETATM   23  C   UNL     1      -6.192   9.270  63.412  1.00  0.00    -0.090 C  
HETATM   24  C   UNL     1      -6.075   8.782  64.661  1.00  0.00    -0.065 C  
HETATM   25  C   UNL     1      -7.095   7.700  65.006  1.00  0.00    -0.063 C  
HETATM   26  C   UNL     1      -7.050   6.558  63.966  1.00  0.00    -0.054 C  
HETATM   27  C   UNL     1      -5.945   6.358  62.949  1.00  0.00    -0.027 C  
HETATM   28  C   UNL     1      -7.193   7.114  62.558  1.00  0.00    -0.078 C  
ENDBRANCH  13  15
ENDBRANCH   8  11
TORSDOF 2
ENDMDL
MODEL       80
REMARK 921   NORMALIZED FREE ENERGY PREDICTED BY IDOCK:   -5.03 KCAL/MOL
REMARK 922        TOTAL FREE ENERGY PREDICTED BY IDOCK:   -6.07 KCAL/MOL
REMARK 923 INTER-LIGAND FREE ENERGY PREDICTED BY IDOCK:   -5.58 KCAL/MOL
REMARK 924 INTRA-LIGAND FREE ENERGY PREDICTED BY IDOCK:   -0.48 KCAL/MOL
REMARK 927      BINDING AFFINITY PREDICTED BY RF-SCORE:    0.00 PKD
ROOT
HETATM    1  F   UNL     1     -10.399   4.020  66.756  1.00  0.00    -0.172 F  
HETATM    2  C   UNL     1      -9.539   4.369  65.759  1.00  0.00    -0.188 C  
HETATM    3  C   UNL     1      -9.109   5.815  65.811  1.00  0.00    -0.122 A  
HETATM    4  F   UNL     1      -8.492   3.505  65.844  1.00  0.00    -0.104 F  
HETATM    5  F   UNL     1     -10.181   4.069  64.594  1.00  0.00    -0.188 F  
HETATM    6  C   UNL     1      -9.566   6.665  66.824  1.00  0.00    -0.207 A  
HETATM    7  C   UNL     1      -9.251   8.025  66.797  1.00  0.00    -0.206 A  
HETATM    8  C   UNL     1      -8.476   8.563  65.758  1.00  0.00    -0.167 A  
HETATM    9  C   UNL     1      -7.951   7.703  64.787  1.00  0.00    -0.137 A  
HETATM   10  C   UNL     1      -8.271   6.339  64.814  1.00  0.00    -0.100 A  
ENDROOT
BRANCH   8  11
HETATM   11  C   UNL     1      -8.316  10.048  65.732  1.00  0.00    -0.132 C  
HETATM   12  O   UNL     1      -7.333  10.533  65.172  1.00  0.00    -0.119 OA 
HETATM   13  N   UNL     1      -9.270  10.810  66.373  1.00  0.00    -0.166 N  
HETATM   14  H   UNL     1     -10.074  10.373  66.822  1.00  0.00     0.000 HD 
BRANCH  13  15
HETATM   15  N   UNL     1      -9.108  12.193  66.391  1.00  0.00    -0.204 N  
HETATM   16  C   UNL     1      -8.509  12.797  67.472  1.00  0.00    -0.181 C  
HETATM   17  C   UNL     1      -8.715  14.288  67.345  1.00  0.00    -0.217 C  
HETATM   18  O   UNL     1      -7.965  12.233  68.411  1.00  0.00    -0.151 OA 
HETATM   19  C   UNL     1      -9.670  14.432  66.119  1.00  0.00    -0.335 C  
HETATM   20  C   UNL     1     -10.975  15.161  66.547  1.00  0.00    -0.318 C  
HETATM   21  C   UNL     1      -9.968  13.019  65.698  1.00  0.00    -0.230 C  
HETATM   22  O   UNL     1     -10.884  12.707  64.952  1.00  0.00    -0.280 OA 
HETATM   23  C   UNL     1     -11.561  14.348  67.707  1.00  0.00    -0.384 C  
HETATM   24  C   UNL     1     -10.741  14.226  68.767  1.00  0.00    -0.262 C  
HETATM   25  C   UNL     1      -9.394  14.926  68.598  1.00  0.00    -0.194 C  
HETATM   26  C   UNL     1      -9.596  16.413  68.231  1.00  0.00    -0.221 C  
HETATM   27  C   UNL     1     -10.908  17.163  68.346  1.00  0.00    -0.309 C  
HETATM   28  C   UNL     1     -10.515  16.544  67.026  1.00  0.00    -0.289 C  
ENDBRANCH  13  15
ENDBRANCH   8  11
TORSDOF 2
ENDMDL
MODEL       81
REMARK 921   NORMALIZED FREE ENERGY PREDICTED BY IDOCK:   -5.02 KCAL/MOL
REMARK 922        TOTAL FREE ENERGY PREDICTED BY IDOCK:   -6.05 KCAL/MOL
REMARK 923 INTER-LIGAND FREE ENERGY PREDICTED BY IDOCK:   -6.16 KCAL/MOL
REMARK 924 INTRA-LIGAND FREE ENERGY PREDICTED BY IDOCK:    0.11 KCAL/MOL
REMARK 927      BINDING AFFINITY PREDICTED BY RF-SCORE:    0.00 PKD
ROOT
HETATM    1  F   UNL     1      -7.850  20.047  67.469  1.00  0.00    -0.297 F  
HETATM    2  C   UNL     1      -9.018  19.500  67.031  1.00  0.00    -0.308 C  
HETATM    3  C   UNL     1      -9.138  18.023  67.317  1.00  0.00    -0.255 A  
HETATM    4  F   UNL     1     -10.013  20.229  67.603  1.00  0.00    -0.494 F  
HETATM    5  F   UNL     1      -9.074  19.768  65.696  1.00  0.00    -0.309 F  
HETATM    6  C   UNL     1      -8.123  17.336  67.992  1.00  0.00    -0.221 A  
HETATM    7  C   UNL     1      -8.195  15.951  68.150  1.00  0.00    -0.149 A  
HETATM    8  C   UNL     1      -9.281  15.224  67.638  1.00  0.00    -0.187 A  
HETATM    9  C   UNL     1     -10.336  15.916  67.033  1.00  0.00    -0.297 A  
HETATM   10  C   UNL     1     -10.261  17.306  66.872  1.00  0.00    -0.322 A  
ENDROOT
BRANCH   8  11
HETATM   11  C   UNL     1      -9.201  13.735  67.723  1.00  0.00    -0.206 C  
HETATM   12  O   UNL     1      -9.750  13.160  68.663  1.00  0.00    -0.171 OA 
HETATM   13  N   UNL     1      -8.478  13.072  66.753  1.00  0.00    -0.419 N  
HETATM   14  H   UNL     1      -8.040  13.583  65.987  1.00  0.00     0.000 HD 
BRANCH  13  15
HETATM   15  N   UNL     1      -8.360  11.688  66.847  1.00  0.00    -0.165 N  
HETATM   16  C   UNL     1      -9.290  10.880  66.236  1.00  0.00    -0.179 C  
HETATM   17  C   UNL     1      -9.075   9.469  66.727  1.00  0.00    -0.173 C  
HETATM   18  O   UNL     1     -10.184  11.240  65.482  1.00  0.00    -0.239 OA 
HETATM   19  C   UNL     1      -7.992   9.619  67.842  1.00  0.00    -0.098 C  
HETATM   20  C   UNL     1      -8.544   9.083  69.192  1.00  0.00    -0.133 C  
HETATM   21  C   UNL     1      -7.735  11.099  67.926  1.00  0.00    -0.105 C  
HETATM   22  O   UNL     1      -7.156  11.640  68.857  1.00  0.00    -0.102 OA 
HETATM   23  C   UNL     1      -9.838   9.857  69.466  1.00  0.00    -0.241 C  
HETATM   24  C   UNL     1     -10.775   9.725  68.508  1.00  0.00    -0.252 C  
HETATM   25  C   UNL     1     -10.356   8.827  67.346  1.00  0.00    -0.349 C  
HETATM   26  C   UNL     1      -9.903   7.444  67.863  1.00  0.00    -0.177 C  
HETATM   27  C   UNL     1     -10.146   6.921  69.265  1.00  0.00    -0.178 C  
HETATM   28  C   UNL     1      -8.838   7.599  68.937  1.00  0.00    -0.135 C  
ENDBRANCH  13  15
ENDBRANCH   8  11
TORSDOF 2
ENDMDL
MODEL       82
REMARK 921   NORMALIZED FREE ENERGY PREDICTED BY IDOCK:   -4.86 KCAL/MOL
REMARK 922        TOTAL FREE ENERGY PREDICTED BY IDOCK:   -5.87 KCAL/MOL
REMARK 923 INTER-LIGAND FREE ENERGY PREDICTED BY IDOCK:   -5.40 KCAL/MOL
REMARK 924 INTRA-LIGAND FREE ENERGY PREDICTED BY IDOCK:   -0.47 KCAL/MOL
REMARK 927      BINDING AFFINITY PREDICTED BY RF-SCORE:    0.00 PKD
ROOT
HETATM    1  F   UNL     1      -7.571   1.520  67.574  1.00  0.00    -0.054 F  
HETATM    2  C   UNL     1      -6.849   2.674  67.572  1.00  0.00    -0.044 C  
HETATM    3  C   UNL     1      -7.700   3.920  67.629  1.00  0.00    -0.075 A  
HETATM    4  F   UNL     1      -5.984   2.580  68.618  1.00  0.00    -0.021 F  
HETATM    5  F   UNL     1      -6.082   2.630  66.446  1.00  0.00    -0.021 F  
HETATM    6  C   UNL     1      -9.095   3.835  67.697  1.00  0.00    -0.188 A  
HETATM    7  C   UNL     1      -9.874   4.992  67.636  1.00  0.00    -0.202 A  
HETATM    8  C   UNL     1      -9.277   6.255  67.503  1.00  0.00    -0.108 A  
HETATM    9  C   UNL     1      -7.881   6.351  67.514  1.00  0.00    -0.105 A  
HETATM   10  C   UNL     1      -7.100   5.189  67.573  1.00  0.00    -0.066 A  
ENDROOT
BRANCH   8  11
HETATM   11  C   UNL     1     -10.191   7.418  67.295  1.00  0.00    -0.260 C  
HETATM   12  O   UNL     1     -11.332   7.214  66.881  1.00  0.00    -0.105 OA 
HETATM   13  N   UNL     1      -9.695   8.680  67.547  1.00  0.00    -0.157 N  
HETATM   14  H   UNL     1      -8.745   8.809  67.894  1.00  0.00     0.000 HD 
BRANCH  13  15
HETATM   15  N   UNL     1     -10.525   9.774  67.315  1.00  0.00    -0.255 N  
HETATM   16  C   UNL     1     -10.442  10.454  66.123  1.00  0.00    -0.154 C  
HETATM   17  C   UNL     1     -11.240  11.729  66.259  1.00  0.00    -0.370 C  
HETATM   18  O   UNL     1      -9.784  10.131  65.144  1.00  0.00    -0.262 OA 
HETATM   19  C   UNL     1     -11.651  11.757  67.765  1.00  0.00    -0.374 C  
HETATM   20  C   UNL     1     -11.106  13.048  68.438  1.00  0.00    -0.292 C  
HETATM   21  C   UNL     1     -11.004  10.537  68.360  1.00  0.00    -0.261 C  
HETATM   22  O   UNL     1     -10.864  10.354  69.560  1.00  0.00    -0.221 OA 
HETATM   23  C   UNL     1      -9.592  13.051  68.200  1.00  0.00    -0.227 C  
HETATM   24  C   UNL     1      -9.236  13.031  66.902  1.00  0.00    -0.236 C  
HETATM   25  C   UNL     1     -10.415  13.013  65.932  1.00  0.00    -0.293 C  
HETATM   26  C   UNL     1     -11.373  14.190  66.219  1.00  0.00    -0.340 C  
HETATM   27  C   UNL     1     -11.044  15.381  67.096  1.00  0.00    -0.291 C  
HETATM   28  C   UNL     1     -11.780  14.201  67.684  1.00  0.00    -0.421 C  
ENDBRANCH  13  15
ENDBRANCH   8  11
TORSDOF 2
ENDMDL
MODEL       83
REMARK 921   NORMALIZED FREE ENERGY PREDICTED BY IDOCK:   -4.82 KCAL/MOL
REMARK 922        TOTAL FREE ENERGY PREDICTED BY IDOCK:   -5.83 KCAL/MOL
REMARK 923 INTER-LIGAND FREE ENERGY PREDICTED BY IDOCK:   -5.72 KCAL/MOL
REMARK 924 INTRA-LIGAND FREE ENERGY PREDICTED BY IDOCK:   -0.11 KCAL/MOL
REMARK 927      BINDING AFFINITY PREDICTED BY RF-SCORE:    0.00 PKD
ROOT
HETATM    1  F   UNL     1     -11.797  14.691  67.674  1.00  0.00    -0.351 F  
HETATM    2  C   UNL     1     -11.449  14.095  66.500  1.00  0.00    -0.358 C  
HETATM    3  C   UNL     1     -11.235  12.606  66.619  1.00  0.00    -0.346 A  
HETATM    4  F   UNL     1     -12.425  14.417  65.609  1.00  0.00    -0.407 F  
HETATM    5  F   UNL     1     -10.326  14.741  66.076  1.00  0.00    -0.264 F  
HETATM    6  C   UNL     1     -11.412  11.949  67.842  1.00  0.00    -0.385 A  
HETATM    7  C   UNL     1     -11.102  10.594  67.964  1.00  0.00    -0.361 A  
HETATM    8  C   UNL     1     -10.607   9.867  66.870  1.00  0.00    -0.248 A  
HETATM    9  C   UNL     1     -10.504  10.500  65.626  1.00  0.00    -0.213 A  
HETATM   10  C   UNL     1     -10.812  11.861  65.505  1.00  0.00    -0.343 A  
ENDROOT
BRANCH   8  11
HETATM   11  C   UNL     1     -10.164   8.465  67.132  1.00  0.00    -0.292 C  
HETATM   12  O   UNL     1     -10.464   7.934  68.200  1.00  0.00    -0.207 OA 
HETATM   13  N   UNL     1      -9.401   7.840  66.167  1.00  0.00    -0.350 N  
HETATM   14  H   UNL     1      -9.176   8.312  65.291  1.00  0.00     0.000 HD 
BRANCH  13  15
HETATM   15  N   UNL     1      -8.945   6.549  66.420  1.00  0.00    -0.144 N  
HETATM   16  C   UNL     1      -9.834   5.498  66.418  1.00  0.00    -0.167 C  
HETATM   17  C   UNL     1      -9.126   4.290  66.983  1.00  0.00    -0.147 C  
HETATM   18  O   UNL     1     -11.011   5.541  66.088  1.00  0.00    -0.135 OA 
HETATM   19  C   UNL     1      -7.751   4.851  67.466  1.00  0.00    -0.091 C  
HETATM   20  C   UNL     1      -7.578   4.587  68.988  1.00  0.00    -0.056 C  
HETATM   21  C   UNL     1      -7.824   6.328  67.191  1.00  0.00    -0.105 C  
HETATM   22  O   UNL     1      -7.060   7.151  67.673  1.00  0.00    -0.083 OA 
HETATM   23  C   UNL     1      -8.792   5.221  69.676  1.00  0.00    -0.126 C  
HETATM   24  C   UNL     1      -9.977   4.735  69.264  1.00  0.00    -0.254 C  
HETATM   25  C   UNL     1      -9.869   3.649  68.197  1.00  0.00     0.027 C  
HETATM   26  C   UNL     1      -8.946   2.506  68.675  1.00  0.00    -0.177 C  
HETATM   27  C   UNL     1      -8.481   2.309  70.103  1.00  0.00    -0.087 C  
HETATM   28  C   UNL     1      -7.605   3.060  69.130  1.00  0.00    -0.047 C  
ENDBRANCH  13  15
ENDBRANCH   8  11
TORSDOF 2
ENDMDL
MODEL       84
REMARK 921   NORMALIZED FREE ENERGY PREDICTED BY IDOCK:   -4.82 KCAL/MOL
REMARK 922        TOTAL FREE ENERGY PREDICTED BY IDOCK:   -5.83 KCAL/MOL
REMARK 923 INTER-LIGAND FREE ENERGY PREDICTED BY IDOCK:   -5.40 KCAL/MOL
REMARK 924 INTRA-LIGAND FREE ENERGY PREDICTED BY IDOCK:   -0.42 KCAL/MOL
REMARK 927      BINDING AFFINITY PREDICTED BY RF-SCORE:    0.00 PKD
ROOT
HETATM    1  F   UNL     1      -9.122   7.228  65.640  1.00  0.00    -0.151 F  
HETATM    2  C   UNL     1      -7.989   7.420  66.370  1.00  0.00    -0.108 C  
HETATM    3  C   UNL     1      -7.934   8.762  67.061  1.00  0.00    -0.095 A  
HETATM    4  F   UNL     1      -7.920   6.378  67.241  1.00  0.00    -0.105 F  
HETATM    5  F   UNL     1      -6.953   7.251  65.500  1.00  0.00    -0.055 F  
HETATM    6  C   UNL     1      -8.989   9.674  66.943  1.00  0.00    -0.151 A  
HETATM    7  C   UNL     1      -8.878  10.952  67.492  1.00  0.00    -0.133 A  
HETATM    8  C   UNL     1      -7.712  11.347  68.167  1.00  0.00    -0.118 A  
HETATM    9  C   UNL     1      -6.688  10.412  68.356  1.00  0.00    -0.060 A  
HETATM   10  C   UNL     1      -6.800   9.130  67.802  1.00  0.00    -0.076 A  
ENDROOT
BRANCH   8  11
HETATM   11  C   UNL     1      -7.624  12.777  68.589  1.00  0.00    -0.085 C  
HETATM   12  O   UNL     1      -6.808  13.095  69.454  1.00  0.00    -0.070 OA 
HETATM   13  N   UNL     1      -8.496  13.674  68.009  1.00  0.00    -0.164 N  
HETATM   14  H   UNL     1      -9.156  13.374  67.292  1.00  0.00     0.000 HD 
BRANCH  13  15
HETATM   15  N   UNL     1      -8.452  15.002  68.426  1.00  0.00    -0.147 N  
HETATM   16  C   UNL     1      -9.578  15.591  68.951  1.00  0.00    -0.220 C  
HETATM   17  C   UNL     1      -9.321  17.076  69.055  1.00  0.00    -0.167 C  
HETATM   18  O   UNL     1     -10.632  15.033  69.223  1.00  0.00    -0.232 OA 
HETATM   19  C   UNL     1      -7.941  17.269  68.350  1.00  0.00    -0.253 C  
HETATM   20  C   UNL     1      -8.089  18.254  67.157  1.00  0.00    -0.232 C  
HETATM   21  C   UNL     1      -7.568  15.896  67.859  1.00  0.00    -0.133 C  
HETATM   22  O   UNL     1      -6.697  15.681  67.030  1.00  0.00    -0.267 OA 
HETATM   23  C   UNL     1      -9.180  17.673  66.252  1.00  0.00    -0.212 C  
HETATM   24  C   UNL     1     -10.372  17.510  66.856  1.00  0.00    -0.315 C  
HETATM   25  C   UNL     1     -10.392  17.941  68.320  1.00  0.00    -0.389 C  
HETATM   26  C   UNL     1      -9.900  19.398  68.465  1.00  0.00    -0.509 C  
HETATM   27  C   UNL     1      -9.738  20.375  67.319  1.00  0.00    -0.602 C  
HETATM   28  C   UNL     1      -8.549  19.574  67.790  1.00  0.00    -0.356 C  
ENDBRANCH  13  15
ENDBRANCH   8  11
TORSDOF 2
ENDMDL
MODEL       85
REMARK 921   NORMALIZED FREE ENERGY PREDICTED BY IDOCK:   -4.81 KCAL/MOL
REMARK 922        TOTAL FREE ENERGY PREDICTED BY IDOCK:   -5.82 KCAL/MOL
REMARK 923 INTER-LIGAND FREE ENERGY PREDICTED BY IDOCK:   -5.33 KCAL/MOL
REMARK 924 INTRA-LIGAND FREE ENERGY PREDICTED BY IDOCK:   -0.49 KCAL/MOL
REMARK 927      BINDING AFFINITY PREDICTED BY RF-SCORE:    0.00 PKD
ROOT
HETATM    1  F   UNL     1      -9.147   7.033  68.879  1.00  0.00    -0.135 F  
HETATM    2  C   UNL     1      -9.941   7.981  69.449  1.00  0.00    -0.190 C  
HETATM    3  C   UNL     1      -9.869   9.323  68.760  1.00  0.00    -0.174 A  
HETATM    4  F   UNL     1     -11.199   7.464  69.462  1.00  0.00    -0.224 F  
HETATM    5  F   UNL     1      -9.551   8.055  70.753  1.00  0.00    -0.159 F  
HETATM    6  C   UNL     1      -9.062   9.510  67.633  1.00  0.00    -0.131 A  
HETATM    7  C   UNL     1      -8.917  10.781  67.074  1.00  0.00    -0.148 A  
HETATM    8  C   UNL     1      -9.573  11.890  67.630  1.00  0.00    -0.185 A  
HETATM    9  C   UNL     1     -10.443  11.694  68.708  1.00  0.00    -0.226 A  
HETATM   10  C   UNL     1     -10.585  10.419  69.270  1.00  0.00    -0.259 A  
ENDROOT
BRANCH   8  11
HETATM   11  C   UNL     1      -9.242  13.230  67.058  1.00  0.00    -0.237 C  
HETATM   12  O   UNL     1      -9.458  13.440  65.865  1.00  0.00    -0.166 OA 
HETATM   13  N   UNL     1      -8.672  14.165  67.897  1.00  0.00    -0.171 N  
HETATM   14  H   UNL     1      -8.513  13.956  68.882  1.00  0.00     0.000 HD 
BRANCH  13  15
HETATM   15  N   UNL     1      -8.320  15.403  67.365  1.00  0.00    -0.169 N  
HETATM   16  C   UNL     1      -6.993  15.714  67.178  1.00  0.00    -0.134 C  
HETATM   17  C   UNL     1      -6.902  17.187  66.858  1.00  0.00    -0.242 C  
HETATM   18  O   UNL     1      -6.042  14.957  67.316  1.00  0.00    -0.312 OA 
HETATM   19  C   UNL     1      -8.361  17.706  67.057  1.00  0.00    -0.239 C  
HETATM   20  C   UNL     1      -8.381  18.826  68.135  1.00  0.00    -0.334 C  
HETATM   21  C   UNL     1      -9.133  16.504  67.528  1.00  0.00    -0.197 C  
HETATM   22  O   UNL     1     -10.238  16.563  68.048  1.00  0.00    -0.253 OA 
HETATM   23  C   UNL     1      -7.753  18.221  69.395  1.00  0.00     0.224 C  
HETATM   24  C   UNL     1      -6.494  17.777  69.227  1.00  0.00    -0.244 C  
HETATM   25  C   UNL     1      -5.948  17.969  67.814  1.00  0.00    -0.157 C  
HETATM   26  C   UNL     1      -6.069  19.447  67.380  1.00  0.00    -0.199 C  
HETATM   27  C   UNL     1      -6.367  20.602  68.315  1.00  0.00    -0.352 C  
HETATM   28  C   UNL     1      -7.496  19.941  67.563  1.00  0.00    -0.314 C  
ENDBRANCH  13  15
ENDBRANCH   8  11
TORSDOF 2
ENDMDL
MODEL       86
REMARK 921   NORMALIZED FREE ENERGY PREDICTED BY IDOCK:   -4.72 KCAL/MOL
REMARK 922        TOTAL FREE ENERGY PREDICTED BY IDOCK:   -5.72 KCAL/MOL
REMARK 923 INTER-LIGAND FREE ENERGY PREDICTED BY IDOCK:   -5.56 KCAL/MOL
REMARK 924 INTRA-LIGAND FREE ENERGY PREDICTED BY IDOCK:   -0.17 KCAL/MOL
REMARK 927      BINDING AFFINITY PREDICTED BY RF-SCORE:    0.00 PKD
ROOT
HETATM    1  F   UNL     1     -13.008  12.774  62.611  1.00  0.00     0.074 F  
HETATM    2  C   UNL     1     -12.266  12.305  63.653  1.00  0.00    -0.567 C  
HETATM    3  C   UNL     1     -11.655  13.397  64.498  1.00  0.00    -0.405 A  
HETATM    4  F   UNL     1     -13.088  11.487  64.363  1.00  0.00    -0.038 F  
HETATM    5  F   UNL     1     -11.318  11.497  63.099  1.00  0.00    -0.420 F  
HETATM    6  C   UNL     1     -11.881  14.746  64.205  1.00  0.00    -0.235 A  
HETATM    7  C   UNL     1     -11.221  15.743  64.924  1.00  0.00    -0.358 A  
HETATM    8  C   UNL     1     -10.321  15.414  65.950  1.00  0.00    -0.359 A  
HETATM    9  C   UNL     1     -10.152  14.069  66.299  1.00  0.00    -0.307 A  
HETATM   10  C   UNL     1     -10.813  13.069  65.574  1.00  0.00    -0.298 A  
ENDROOT
BRANCH   8  11
HETATM   11  C   UNL     1      -9.551  16.538  66.562  1.00  0.00    -0.271 C  
HETATM   12  O   UNL     1      -8.575  16.279  67.266  1.00  0.00    -0.171 OA 
HETATM   13  N   UNL     1      -9.997  17.823  66.335  1.00  0.00    -0.334 N  
HETATM   14  H   UNL     1     -10.807  17.998  65.741  1.00  0.00     0.000 HD 
BRANCH  13  15
HETATM   15  N   UNL     1      -9.312  18.876  66.936  1.00  0.00    -0.300 N  
HETATM   16  C   UNL     1      -8.093  19.273  66.436  1.00  0.00    -0.316 C  
HETATM   17  C   UNL     1      -7.470  20.224  67.429  1.00  0.00    -0.343 C  
HETATM   18  O   UNL     1      -7.565  18.877  65.405  1.00  0.00    -0.410 OA 
HETATM   19  C   UNL     1      -8.440  20.178  68.652  1.00  0.00     0.114 C  
HETATM   20  C   UNL     1      -7.669  19.716  69.921  1.00  0.00     0.427 C  
HETATM   21  C   UNL     1      -9.486  19.167  68.272  1.00  0.00    -0.352 C  
HETATM   22  O   UNL     1     -10.260  18.654  69.066  1.00  0.00    -0.347 OA 
HETATM   23  C   UNL     1      -7.035  18.366  69.572  1.00  0.00    -0.023 C  
HETATM   24  C   UNL     1      -6.196  18.404  68.521  1.00  0.00    -0.203 C  
HETATM   25  C   UNL     1      -6.045  19.787  67.893  1.00  0.00    -0.240 C  
HETATM   26  C   UNL     1      -5.634  20.827  68.960  1.00  0.00    -0.405 C  
HETATM   27  C   UNL     1      -5.126  20.489  70.347  1.00  0.00    -0.315 C  
HETATM   28  C   UNL     1      -6.591  20.786  70.140  1.00  0.00     0.847 C  
ENDBRANCH  13  15
ENDBRANCH   8  11
TORSDOF 2
ENDMDL
MODEL       87
REMARK 921   NORMALIZED FREE ENERGY PREDICTED BY IDOCK:   -4.63 KCAL/MOL
REMARK 922        TOTAL FREE ENERGY PREDICTED BY IDOCK:   -5.62 KCAL/MOL
REMARK 923 INTER-LIGAND FREE ENERGY PREDICTED BY IDOCK:   -5.50 KCAL/MOL
REMARK 924 INTRA-LIGAND FREE ENERGY PREDICTED BY IDOCK:   -0.11 KCAL/MOL
REMARK 927      BINDING AFFINITY PREDICTED BY RF-SCORE:    0.00 PKD
ROOT
HETATM    1  F   UNL     1     -10.480  14.996  66.230  1.00  0.00    -0.274 F  
HETATM    2  C   UNL     1     -11.237  14.633  67.302  1.00  0.00    -0.337 C  
HETATM    3  C   UNL     1     -10.792  13.343  67.948  1.00  0.00    -0.263 A  
HETATM    4  F   UNL     1     -11.208  15.688  68.160  1.00  0.00    -0.291 F  
HETATM    5  F   UNL     1     -12.519  14.558  66.843  1.00  0.00    -0.417 F  
HETATM    6  C   UNL     1      -9.684  12.640  67.461  1.00  0.00    -0.196 A  
HETATM    7  C   UNL     1      -9.351  11.394  67.995  1.00  0.00    -0.171 A  
HETATM    8  C   UNL     1     -10.117  10.824  69.024  1.00  0.00    -0.225 A  
HETATM    9  C   UNL     1     -11.177  11.559  69.567  1.00  0.00    -0.305 A  
HETATM   10  C   UNL     1     -11.513  12.808  69.029  1.00  0.00    -0.360 A  
ENDROOT
BRANCH   8  11
HETATM   11  C   UNL     1      -9.777   9.427  69.428  1.00  0.00    -0.177 C  
HETATM   12  O   UNL     1      -9.775   8.542  68.573  1.00  0.00    -0.157 OA 
HETATM   13  N   UNL     1      -9.513   9.189  70.761  1.00  0.00    -0.251 N  
HETATM   14  H   UNL     1      -9.519   9.950  71.440  1.00  0.00     0.000 HD 
BRANCH  13  15
HETATM   15  N   UNL     1      -9.236   7.883  71.156  1.00  0.00    -0.145 N  
HETATM   16  C   UNL     1      -8.034   7.306  70.818  1.00  0.00    -0.099 C  
HETATM   17  C   UNL     1      -8.122   5.831  71.129  1.00  0.00    -0.117 C  
HETATM   18  O   UNL     1      -7.081   7.865  70.292  1.00  0.00    -0.048 OA 
HETATM   19  C   UNL     1      -9.614   5.621  71.536  1.00  0.00    -0.184 C  
HETATM   20  C   UNL     1     -10.278   4.579  70.592  1.00  0.00    -0.158 C  
HETATM   21  C   UNL     1     -10.251   6.972  71.362  1.00  0.00    -0.196 C  
HETATM   22  O   UNL     1     -11.458   7.158  71.320  1.00  0.00    -0.261 OA 
HETATM   23  C   UNL     1     -10.084   5.106  69.166  1.00  0.00    -0.274 C  
HETATM   24  C   UNL     1      -8.798   5.284  68.811  1.00  0.00    -0.104 C  
HETATM   25  C   UNL     1      -7.795   4.921  69.903  1.00  0.00    -0.066 C  
HETATM   26  C   UNL     1      -8.031   3.477  70.401  1.00  0.00    -0.051 C  
HETATM   27  C   UNL     1      -8.894   2.450  69.699  1.00  0.00    -0.140 C  
HETATM   28  C   UNL     1      -9.483   3.285  70.810  1.00  0.00    -0.237 C  
ENDBRANCH  13  15
ENDBRANCH   8  11
TORSDOF 2
ENDMDL
MODEL       88
REMARK 921   NORMALIZED FREE ENERGY PREDICTED BY IDOCK:   -4.61 KCAL/MOL
REMARK 922        TOTAL FREE ENERGY PREDICTED BY IDOCK:   -5.59 KCAL/MOL
REMARK 923 INTER-LIGAND FREE ENERGY PREDICTED BY IDOCK:   -5.07 KCAL/MOL
REMARK 924 INTRA-LIGAND FREE ENERGY PREDICTED BY IDOCK:   -0.52 KCAL/MOL
REMARK 927      BINDING AFFINITY PREDICTED BY RF-SCORE:    0.00 PKD
ROOT
HETATM    1  F   UNL     1     -10.674  14.496  68.332  1.00  0.00    -0.225 F  
HETATM    2  C   UNL     1     -11.464  13.891  69.262  1.00  0.00    -0.297 C  
HETATM    3  C   UNL     1     -11.188  12.415  69.420  1.00  0.00    -0.225 A  
HETATM    4  F   UNL     1     -11.288  14.585  70.418  1.00  0.00    -0.288 F  
HETATM    5  F   UNL     1     -12.748  14.131  68.871  1.00  0.00    -0.200 F  
HETATM    6  C   UNL     1     -10.188  11.786  68.671  1.00  0.00    -0.211 A  
HETATM    7  C   UNL     1     -10.019  10.402  68.744  1.00  0.00    -0.196 A  
HETATM    8  C   UNL     1     -10.845   9.619  69.564  1.00  0.00    -0.253 A  
HETATM    9  C   UNL     1     -11.794  10.253  70.375  1.00  0.00    -0.396 A  
HETATM   10  C   UNL     1     -11.965  11.641  70.298  1.00  0.00    -0.445 A  
ENDROOT
BRANCH   8  11
HETATM   11  C   UNL     1     -10.690   8.137  69.465  1.00  0.00    -0.175 C  
HETATM   12  O   UNL     1     -11.326   7.417  70.235  1.00  0.00    -0.274 OA 
HETATM   13  N   UNL     1      -9.805   7.643  68.529  1.00  0.00    -0.162 N  
HETATM   14  H   UNL     1      -9.299   8.271  67.905  1.00  0.00     0.000 HD 
BRANCH  13  15
HETATM   15  N   UNL     1      -9.621   6.265  68.457  1.00  0.00    -0.126 N  
HETATM   16  C   UNL     1      -8.471   5.702  68.961  1.00  0.00    -0.102 C  
HETATM   17  C   UNL     1      -8.419   4.263  68.505  1.00  0.00    -0.103 C  
HETATM   18  O   UNL     1      -7.601   6.274  69.603  1.00  0.00    -0.089 OA 
HETATM   19  C   UNL     1      -9.627   4.136  67.524  1.00  0.00    -0.219 C  
HETATM   20  C   UNL     1      -9.125   3.693  66.121  1.00  0.00    -0.155 C  
HETATM   21  C   UNL     1     -10.216   5.518  67.462  1.00  0.00    -0.199 C  
HETATM   22  O   UNL     1     -11.002   5.889  66.602  1.00  0.00    -0.287 OA 
HETATM   23  C   UNL     1      -8.076   4.725  65.695  1.00  0.00    -0.111 C  
HETATM   24  C   UNL     1      -7.032   4.833  66.537  1.00  0.00    -0.067 C  
HETATM   25  C   UNL     1      -7.105   3.902  67.744  1.00  0.00    -0.056 C  
HETATM   26  C   UNL     1      -7.293   2.437  67.291  1.00  0.00    -0.057 C  
HETATM   27  C   UNL     1      -7.099   1.938  65.874  1.00  0.00    -0.055 C  
HETATM   28  C   UNL     1      -8.480   2.319  66.348  1.00  0.00    -0.101 C  
ENDBRANCH  13  15
ENDBRANCH   8  11
TORSDOF 2
ENDMDL
MODEL       89
REMARK 921   NORMALIZED FREE ENERGY PREDICTED BY IDOCK:   -4.57 KCAL/MOL
REMARK 922        TOTAL FREE ENERGY PREDICTED BY IDOCK:   -5.55 KCAL/MOL
REMARK 923 INTER-LIGAND FREE ENERGY PREDICTED BY IDOCK:   -5.08 KCAL/MOL
REMARK 924 INTRA-LIGAND FREE ENERGY PREDICTED BY IDOCK:   -0.47 KCAL/MOL
REMARK 927      BINDING AFFINITY PREDICTED BY RF-SCORE:    0.00 PKD
ROOT
HETATM    1  F   UNL     1     -12.272  15.168  65.786  1.00  0.00    -0.094 F  
HETATM    2  C   UNL     1     -11.668  14.463  64.789  1.00  0.00    -0.416 C  
HETATM    3  C   UNL     1     -11.004  13.193  65.264  1.00  0.00    -0.304 A  
HETATM    4  F   UNL     1     -12.628  14.235  63.853  1.00  0.00    -0.435 F  
HETATM    5  F   UNL     1     -10.779  15.321  64.214  1.00  0.00    -0.255 F  
HETATM    6  C   UNL     1     -11.053  12.816  66.611  1.00  0.00    -0.313 A  
HETATM    7  C   UNL     1     -10.341  11.701  67.056  1.00  0.00    -0.248 A  
HETATM    8  C   UNL     1      -9.564  10.942  66.168  1.00  0.00    -0.239 A  
HETATM    9  C   UNL     1      -9.574  11.269  64.807  1.00  0.00    -0.269 A  
HETATM   10  C   UNL     1     -10.287  12.390  64.362  1.00  0.00    -0.370 A  
ENDROOT
BRANCH   8  11
HETATM   11  C   UNL     1      -8.720   9.861  66.759  1.00  0.00    -0.128 C  
HETATM   12  O   UNL     1      -7.570   9.707  66.347  1.00  0.00    -0.099 OA 
HETATM   13  N   UNL     1      -9.288   9.056  67.724  1.00  0.00    -0.139 N  
HETATM   14  H   UNL     1     -10.243   9.217  68.044  1.00  0.00     0.000 HD 
BRANCH  13  15
HETATM   15  N   UNL     1      -8.525   8.017  68.251  1.00  0.00    -0.123 N  
HETATM   16  C   UNL     1      -8.644   6.749  67.732  1.00  0.00    -0.121 C  
HETATM   17  C   UNL     1      -7.925   5.798  68.658  1.00  0.00    -0.101 C  
HETATM   18  O   UNL     1      -9.279   6.427  66.737  1.00  0.00    -0.133 OA 
HETATM   19  C   UNL     1      -7.522   6.690  69.874  1.00  0.00    -0.095 C  
HETATM   20  C   UNL     1      -8.146   6.119  71.178  1.00  0.00    -0.121 C  
HETATM   21  C   UNL     1      -8.097   8.044  69.562  1.00  0.00    -0.120 C  
HETATM   22  O   UNL     1      -8.230   8.936  70.386  1.00  0.00    -0.109 OA 
HETATM   23  C   UNL     1      -9.656   6.037  70.933  1.00  0.00    -0.196 C  
HETATM   24  C   UNL     1     -10.006   5.265  69.887  1.00  0.00    -0.309 C  
HETATM   25  C   UNL     1      -8.825   4.626  69.161  1.00  0.00    -0.126 C  
HETATM   26  C   UNL     1      -7.940   3.837  70.152  1.00  0.00    -0.050 C  
HETATM   27  C   UNL     1      -8.343   3.462  71.563  1.00  0.00    -0.080 C  
HETATM   28  C   UNL     1      -7.539   4.717  71.326  1.00  0.00    -0.081 C  
ENDBRANCH  13  15
ENDBRANCH   8  11
TORSDOF 2
ENDMDL
MODEL       90
REMARK 921   NORMALIZED FREE ENERGY PREDICTED BY IDOCK:   -4.56 KCAL/MOL
REMARK 922        TOTAL FREE ENERGY PREDICTED BY IDOCK:   -5.54 KCAL/MOL
REMARK 923 INTER-LIGAND FREE ENERGY PREDICTED BY IDOCK:   -5.50 KCAL/MOL
REMARK 924 INTRA-LIGAND FREE ENERGY PREDICTED BY IDOCK:   -0.04 KCAL/MOL
REMARK 927      BINDING AFFINITY PREDICTED BY RF-SCORE:    0.00 PKD
ROOT
HETATM    1  F   UNL     1     -12.664  14.323  67.397  1.00  0.00    -0.203 F  
HETATM    2  C   UNL     1     -12.025  13.386  66.643  1.00  0.00    -0.399 C  
HETATM    3  C   UNL     1     -11.562  12.186  67.434  1.00  0.00    -0.410 A  
HETATM    4  F   UNL     1     -12.884  13.056  65.642  1.00  0.00    -0.489 F  
HETATM    5  F   UNL     1     -10.985  14.036  66.047  1.00  0.00    -0.291 F  
HETATM    6  C   UNL     1     -11.814  12.091  68.808  1.00  0.00    -0.358 A  
HETATM    7  C   UNL     1     -11.284  11.032  69.548  1.00  0.00    -0.343 A  
HETATM    8  C   UNL     1     -10.491  10.050  68.933  1.00  0.00    -0.229 A  
HETATM    9  C   UNL     1     -10.303  10.099  67.547  1.00  0.00    -0.279 A  
HETATM   10  C   UNL     1     -10.833  11.163  66.806  1.00  0.00    -0.322 A  
ENDROOT
BRANCH   8  11
HETATM   11  C   UNL     1      -9.846   9.043  69.828  1.00  0.00    -0.180 C  
HETATM   12  O   UNL     1     -10.447   8.000  70.083  1.00  0.00    -0.215 OA 
HETATM   13  N   UNL     1      -8.610   9.350  70.357  1.00  0.00    -0.217 N  
HETATM   14  H   UNL     1      -8.141  10.223  70.119  1.00  0.00     0.000 HD 
BRANCH  13  15
HETATM   15  N   UNL     1      -8.019   8.437  71.226  1.00  0.00    -0.109 N  
HETATM   16  C   UNL     1      -7.270   7.399  70.722  1.00  0.00    -0.068 C  
HETATM   17  C   UNL     1      -6.992   6.434  71.850  1.00  0.00    -0.080 C  
HETATM   18  O   UNL     1      -6.942   7.239  69.554  1.00  0.00    -0.054 OA 
HETATM   19  C   UNL     1      -7.840   6.990  73.037  1.00  0.00    -0.102 C  
HETATM   20  C   UNL     1      -8.851   5.911  73.517  1.00  0.00    -0.125 C  
HETATM   21  C   UNL     1      -8.566   8.177  72.465  1.00  0.00    -0.194 C  
HETATM   22  O   UNL     1      -9.526   8.713  72.999  1.00  0.00    -0.159 OA 
HETATM   23  C   UNL     1      -9.676   5.518  72.287  1.00  0.00    -0.181 C  
HETATM   24  C   UNL     1      -8.948   5.034  71.264  1.00  0.00    -0.164 C  
HETATM   25  C   UNL     1      -7.447   4.974  71.540  1.00  0.00    -0.087 C  
HETATM   26  C   UNL     1      -7.164   4.181  72.836  1.00  0.00    -0.068 C  
HETATM   27  C   UNL     1      -8.172   3.307  73.553  1.00  0.00    -0.074 C  
HETATM   28  C   UNL     1      -7.982   4.739  73.990  1.00  0.00    -0.101 C  
ENDBRANCH  13  15
ENDBRANCH   8  11
TORSDOF 2
ENDMDL
MODEL       91
REMARK 921   NORMALIZED FREE ENERGY PREDICTED BY IDOCK:   -4.49 KCAL/MOL
REMARK 922        TOTAL FREE ENERGY PREDICTED BY IDOCK:   -5.47 KCAL/MOL
REMARK 923 INTER-LIGAND FREE ENERGY PREDICTED BY IDOCK:   -5.07 KCAL/MOL
REMARK 924 INTRA-LIGAND FREE ENERGY PREDICTED BY IDOCK:   -0.40 KCAL/MOL
REMARK 927      BINDING AFFINITY PREDICTED BY RF-SCORE:    0.00 PKD
ROOT
HETATM    1  F   UNL     1      -9.506   1.662  65.307  1.00  0.00    -0.125 F  
HETATM    2  C   UNL     1      -8.846   2.270  64.283  1.00  0.00    -0.102 C  
HETATM    3  C   UNL     1      -8.548   3.728  64.536  1.00  0.00    -0.105 A  
HETATM    4  F   UNL     1      -7.723   1.534  64.067  1.00  0.00    -0.054 F  
HETATM    5  F   UNL     1      -9.629   2.092  63.181  1.00  0.00    -0.090 F  
HETATM    6  C   UNL     1      -8.920   4.339  65.739  1.00  0.00    -0.129 A  
HETATM    7  C   UNL     1      -8.740   5.712  65.915  1.00  0.00    -0.147 A  
HETATM    8  C   UNL     1      -8.188   6.502  64.895  1.00  0.00    -0.097 A  
HETATM    9  C   UNL     1      -7.743   5.882  63.722  1.00  0.00    -0.099 A  
HETATM   10  C   UNL     1      -7.927   4.505  63.545  1.00  0.00    -0.088 A  
ENDROOT
BRANCH   8  11
HETATM   11  C   UNL     1      -8.173   7.980  65.116  1.00  0.00    -0.144 C  
HETATM   12  O   UNL     1      -7.102   8.535  65.359  1.00  0.00    -0.079 OA 
HETATM   13  N   UNL     1      -9.377   8.651  65.069  1.00  0.00    -0.371 N  
HETATM   14  H   UNL     1     -10.243   8.156  64.859  1.00  0.00     0.000 HD 
BRANCH  13  15
HETATM   15  N   UNL     1      -9.379  10.021  65.316  1.00  0.00    -0.216 N  
HETATM   16  C   UNL     1     -10.137  10.529  66.345  1.00  0.00    -0.228 C  
HETATM   17  C   UNL     1     -10.165  12.032  66.204  1.00  0.00    -0.255 C  
HETATM   18  O   UNL     1     -10.746   9.884  67.188  1.00  0.00    -0.253 OA 
HETATM   19  C   UNL     1      -9.449  12.296  64.842  1.00  0.00     0.164 C  
HETATM   20  C   UNL     1     -10.406  13.054  63.879  1.00  0.00    -0.153 C  
HETATM   21  C   UNL     1      -9.136  10.926  64.305  1.00  0.00    -0.152 C  
HETATM   22  O   UNL     1      -8.823  10.702  63.144  1.00  0.00    -0.184 OA 
HETATM   23  C   UNL     1     -11.672  12.198  63.768  1.00  0.00    -0.576 C  
HETATM   24  C   UNL     1     -12.293  11.973  64.941  1.00  0.00    -0.106 C  
HETATM   25  C   UNL     1     -11.609  12.621  66.142  1.00  0.00    -0.445 C  
HETATM   26  C   UNL     1     -11.415  14.136  65.907  1.00  0.00    -0.338 C  
HETATM   27  C   UNL     1     -12.091  14.935  64.811  1.00  0.00    -0.335 C  
HETATM   28  C   UNL     1     -10.704  14.383  64.586  1.00  0.00    -0.357 C  
ENDBRANCH  13  15
ENDBRANCH   8  11
TORSDOF 2
ENDMDL
MODEL       92
REMARK 921   NORMALIZED FREE ENERGY PREDICTED BY IDOCK:   -4.35 KCAL/MOL
REMARK 922        TOTAL FREE ENERGY PREDICTED BY IDOCK:   -5.31 KCAL/MOL
REMARK 923 INTER-LIGAND FREE ENERGY PREDICTED BY IDOCK:   -4.93 KCAL/MOL
REMARK 924 INTRA-LIGAND FREE ENERGY PREDICTED BY IDOCK:   -0.38 KCAL/MOL
REMARK 927      BINDING AFFINITY PREDICTED BY RF-SCORE:    0.00 PKD
ROOT
HETATM    1  F   UNL     1     -11.154  11.993  62.770  1.00  0.00    -0.207 F  
HETATM    2  C   UNL     1     -11.928  12.421  63.805  1.00  0.00    -0.514 C  
HETATM    3  C   UNL     1     -11.491  11.887  65.149  1.00  0.00    -0.304 A  
HETATM    4  F   UNL     1     -11.915  13.780  63.750  1.00  0.00    -0.457 F  
HETATM    5  F   UNL     1     -13.201  12.044  63.496  1.00  0.00    -0.551 F  
HETATM    6  C   UNL     1     -10.374  11.052  65.261  1.00  0.00    -0.338 A  
HETATM    7  C   UNL     1     -10.048  10.476  66.490  1.00  0.00    -0.280 A  
HETATM    8  C   UNL     1     -10.830  10.720  67.630  1.00  0.00    -0.332 A  
HETATM    9  C   UNL     1     -11.900  11.617  67.539  1.00  0.00    -0.196 A  
HETATM   10  C   UNL     1     -12.229  12.192  66.304  1.00  0.00     0.206 A  
ENDROOT
BRANCH   8  11
HETATM   11  C   UNL     1     -10.493   9.944  68.861  1.00  0.00    -0.211 C  
HETATM   12  O   UNL     1     -11.130  10.157  69.893  1.00  0.00    -0.254 OA 
HETATM   13  N   UNL     1      -9.451   9.044  68.791  1.00  0.00    -0.147 N  
HETATM   14  H   UNL     1      -8.950   8.891  67.916  1.00  0.00     0.000 HD 
BRANCH  13  15
HETATM   15  N   UNL     1      -9.101   8.347  69.944  1.00  0.00    -0.145 N  
HETATM   16  C   UNL     1      -8.228   8.911  70.845  1.00  0.00    -0.175 C  
HETATM   17  C   UNL     1      -7.824   7.843  71.833  1.00  0.00    -0.120 C  
HETATM   18  O   UNL     1      -7.793  10.054  70.819  1.00  0.00    -0.197 OA 
HETATM   19  C   UNL     1      -8.465   6.539  71.260  1.00  0.00    -0.126 C  
HETATM   20  C   UNL     1      -7.358   5.484  70.983  1.00  0.00    -0.084 C  
HETATM   21  C   UNL     1      -9.119   6.968  69.975  1.00  0.00    -0.145 C  
HETATM   22  O   UNL     1      -9.489   6.194  69.106  1.00  0.00    -0.131 OA 
HETATM   23  C   UNL     1      -6.350   6.153  70.044  1.00  0.00    -0.035 C  
HETATM   24  C   UNL     1      -5.793   7.275  70.538  1.00  0.00    -0.027 C  
HETATM   25  C   UNL     1      -6.279   7.648  71.936  1.00  0.00    -0.039 C  
HETATM   26  C   UNL     1      -6.087   6.467  72.912  1.00  0.00    -0.054 C  
HETATM   27  C   UNL     1      -5.244   5.240  72.632  1.00  0.00    -0.016 C  
HETATM   28  C   UNL     1      -6.727   5.205  72.354  1.00  0.00    -0.057 C  
ENDBRANCH  13  15
ENDBRANCH   8  11
TORSDOF 2
ENDMDL
MODEL       93
REMARK 921   NORMALIZED FREE ENERGY PREDICTED BY IDOCK:   -4.31 KCAL/MOL
REMARK 922        TOTAL FREE ENERGY PREDICTED BY IDOCK:   -5.27 KCAL/MOL
REMARK 923 INTER-LIGAND FREE ENERGY PREDICTED BY IDOCK:   -4.77 KCAL/MOL
REMARK 924 INTRA-LIGAND FREE ENERGY PREDICTED BY IDOCK:   -0.50 KCAL/MOL
REMARK 927      BINDING AFFINITY PREDICTED BY RF-SCORE:    0.00 PKD
ROOT
HETATM    1  F   UNL     1     -12.443  15.957  69.986  1.00  0.00    -0.381 F  
HETATM    2  C   UNL     1     -11.375  15.602  69.219  1.00  0.00    -0.345 C  
HETATM    3  C   UNL     1     -11.190  14.108  69.094  1.00  0.00    -0.307 A  
HETATM    4  F   UNL     1     -11.553  16.212  68.017  1.00  0.00    -0.321 F  
HETATM    5  F   UNL     1     -10.292  16.204  69.790  1.00  0.00    -0.241 F  
HETATM    6  C   UNL     1     -12.078  13.220  69.712  1.00  0.00    -0.355 A  
HETATM    7  C   UNL     1     -11.833  11.846  69.683  1.00  0.00    -0.406 A  
HETATM    8  C   UNL     1     -10.697  11.332  69.038  1.00  0.00    -0.257 A  
HETATM    9  C   UNL     1      -9.850  12.209  68.352  1.00  0.00    -0.200 A  
HETATM   10  C   UNL     1     -10.095  13.588  68.385  1.00  0.00    -0.240 A  
ENDROOT
BRANCH   8  11
HETATM   11  C   UNL     1     -10.439   9.868  69.186  1.00  0.00    -0.217 C  
HETATM   12  O   UNL     1     -11.233   9.184  69.831  1.00  0.00    -0.206 OA 
HETATM   13  N   UNL     1      -9.293   9.355  68.615  1.00  0.00    -0.141 N  
HETATM   14  H   UNL     1      -8.661   9.953  68.083  1.00  0.00     0.000 HD 
BRANCH  13  15
HETATM   15  N   UNL     1      -9.020   8.000  68.783  1.00  0.00    -0.141 N  
HETATM   16  C   UNL     1      -8.098   7.600  69.722  1.00  0.00    -0.125 C  
HETATM   17  C   UNL     1      -7.810   6.135  69.495  1.00  0.00    -0.100 C  
HETATM   18  O   UNL     1      -7.548   8.311  70.552  1.00  0.00    -0.071 OA 
HETATM   19  C   UNL     1      -8.578   5.800  68.178  1.00  0.00    -0.108 C  
HETATM   20  C   UNL     1      -7.584   5.274  67.105  1.00  0.00    -0.092 C  
HETATM   21  C   UNL     1      -9.179   7.109  67.744  1.00  0.00    -0.125 C  
HETATM   22  O   UNL     1      -9.624   7.318  66.625  1.00  0.00    -0.175 OA 
HETATM   23  C   UNL     1      -6.508   6.354  66.947  1.00  0.00    -0.046 C  
HETATM   24  C   UNL     1      -5.842   6.641  68.081  1.00  0.00    -0.020 C  
HETATM   25  C   UNL     1      -6.293   5.828  69.292  1.00  0.00    -0.040 C  
HETATM   26  C   UNL     1      -6.227   4.315  68.987  1.00  0.00    -0.031 C  
HETATM   27  C   UNL     1      -5.512   3.702  67.800  1.00  0.00    -0.020 C  
HETATM   28  C   UNL     1      -6.990   3.995  67.711  1.00  0.00    -0.055 C  
ENDBRANCH  13  15
ENDBRANCH   8  11
TORSDOF 2
ENDMDL
MODEL       94
REMARK 921   NORMALIZED FREE ENERGY PREDICTED BY IDOCK:   -4.31 KCAL/MOL
REMARK 922        TOTAL FREE ENERGY PREDICTED BY IDOCK:   -5.26 KCAL/MOL
REMARK 923 INTER-LIGAND FREE ENERGY PREDICTED BY IDOCK:   -5.10 KCAL/MOL
REMARK 924 INTRA-LIGAND FREE ENERGY PREDICTED BY IDOCK:   -0.16 KCAL/MOL
REMARK 927      BINDING AFFINITY PREDICTED BY RF-SCORE:    0.00 PKD
ROOT
HETATM    1  F   UNL     1      -6.337  19.286  68.271  1.00  0.00    -0.225 F  
HETATM    2  C   UNL     1      -7.667  18.997  68.224  1.00  0.00    -0.311 C  
HETATM    3  C   UNL     1      -7.962  17.518  68.164  1.00  0.00    -0.250 A  
HETATM    4  F   UNL     1      -8.224  19.601  69.308  1.00  0.00    -0.379 F  
HETATM    5  F   UNL     1      -8.152  19.659  67.135  1.00  0.00    -0.275 F  
HETATM    6  C   UNL     1      -6.926  16.577  68.180  1.00  0.00    -0.149 A  
HETATM    7  C   UNL     1      -7.206  15.220  68.011  1.00  0.00    -0.138 A  
HETATM    8  C   UNL     1      -8.523  14.775  67.820  1.00  0.00    -0.169 A  
HETATM    9  C   UNL     1      -9.569  15.703  67.883  1.00  0.00    -0.206 A  
HETATM   10  C   UNL     1      -9.287  17.065  68.049  1.00  0.00    -0.245 A  
ENDROOT
BRANCH   8  11
HETATM   11  C   UNL     1      -8.710  13.328  67.499  1.00  0.00    -0.202 C  
HETATM   12  O   UNL     1      -7.718  12.609  67.386  1.00  0.00    -0.151 OA 
HETATM   13  N   UNL     1      -9.998  12.872  67.309  1.00  0.00    -0.222 N  
HETATM   14  H   UNL     1     -10.796  13.497  67.417  1.00  0.00     0.000 HD 
BRANCH  13  15
HETATM   15  N   UNL     1     -10.181  11.534  66.967  1.00  0.00    -0.209 N  
HETATM   16  C   UNL     1     -10.022  10.557  67.922  1.00  0.00    -0.169 C  
HETATM   17  C   UNL     1     -10.008   9.220  67.220  1.00  0.00    -0.264 C  
HETATM   18  O   UNL     1      -9.850  10.731  69.120  1.00  0.00    -0.209 OA 
HETATM   19  C   UNL     1     -10.011   9.591  65.704  1.00  0.00    -0.269 C  
HETATM   20  C   UNL     1      -8.754   8.995  65.011  1.00  0.00    -0.217 C  
HETATM   21  C   UNL     1      -9.965  11.094  65.679  1.00  0.00    -0.249 C  
HETATM   22  O   UNL     1      -9.684  11.752  64.688  1.00  0.00    -0.227 OA 
HETATM   23  C   UNL     1      -7.543   9.526  65.784  1.00  0.00    -0.100 C  
HETATM   24  C   UNL     1      -7.536   9.204  67.091  1.00  0.00    -0.087 C  
HETATM   25  C   UNL     1      -8.736   8.371  67.534  1.00  0.00    -0.136 C  
HETATM   26  C   UNL     1      -8.872   7.105  66.659  1.00  0.00    -0.142 C  
HETATM   27  C   UNL     1      -7.802   6.580  65.724  1.00  0.00    -0.104 C  
HETATM   28  C   UNL     1      -8.890   7.476  65.184  1.00  0.00     0.202 C  
ENDBRANCH  13  15
ENDBRANCH   8  11
TORSDOF 2
ENDMDL
MODEL       95
REMARK 921   NORMALIZED FREE ENERGY PREDICTED BY IDOCK:   -4.30 KCAL/MOL
REMARK 922        TOTAL FREE ENERGY PREDICTED BY IDOCK:   -5.25 KCAL/MOL
REMARK 923 INTER-LIGAND FREE ENERGY PREDICTED BY IDOCK:   -5.11 KCAL/MOL
REMARK 924 INTRA-LIGAND FREE ENERGY PREDICTED BY IDOCK:   -0.14 KCAL/MOL
REMARK 927      BINDING AFFINITY PREDICTED BY RF-SCORE:    0.00 PKD
ROOT
HETATM    1  F   UNL     1     -10.443  15.508  66.521  1.00  0.00    -0.273 F  
HETATM    2  C   UNL     1     -10.788  14.643  65.528  1.00  0.00    -0.345 C  
HETATM    3  C   UNL     1     -10.651  13.191  65.916  1.00  0.00    -0.290 A  
HETATM    4  F   UNL     1     -12.057  14.973  65.164  1.00  0.00    -0.314 F  
HETATM    5  F   UNL     1      -9.997  14.965  64.465  1.00  0.00    -0.251 F  
HETATM    6  C   UNL     1     -10.226  12.826  67.198  1.00  0.00    -0.235 A  
HETATM    7  C   UNL     1      -9.996  11.485  67.508  1.00  0.00    -0.207 A  
HETATM    8  C   UNL     1     -10.184  10.481  66.545  1.00  0.00    -0.288 A  
HETATM    9  C   UNL     1     -10.685  10.833  65.287  1.00  0.00    -0.153 A  
HETATM   10  C   UNL     1     -10.913  12.180  64.976  1.00  0.00    -0.355 A  
ENDROOT
BRANCH   8  11
HETATM   11  C   UNL     1      -9.771   9.096  66.921  1.00  0.00    -0.194 C  
HETATM   12  O   UNL     1      -9.173   8.406  66.095  1.00  0.00    -0.189 OA 
HETATM   13  N   UNL     1     -10.114   8.640  68.176  1.00  0.00    -0.189 N  
HETATM   14  H   UNL     1     -10.605   9.242  68.836  1.00  0.00     0.000 HD 
BRANCH  13  15
HETATM   15  N   UNL     1      -9.771   7.335  68.521  1.00  0.00    -0.147 N  
HETATM   16  C   UNL     1      -8.494   7.053  68.946  1.00  0.00    -0.125 C  
HETATM   17  C   UNL     1      -8.336   5.551  68.982  1.00  0.00    -0.102 C  
HETATM   18  O   UNL     1      -7.610   7.865  69.185  1.00  0.00    -0.094 OA 
HETATM   19  C   UNL     1      -9.661   5.019  68.350  1.00  0.00    -0.209 C  
HETATM   20  C   UNL     1      -9.341   4.156  67.098  1.00  0.00    -0.198 C  
HETATM   21  C   UNL     1     -10.421   6.257  67.959  1.00  0.00    -0.224 C  
HETATM   22  O   UNL     1     -11.376   6.259  67.196  1.00  0.00    -0.261 OA 
HETATM   23  C   UNL     1      -8.513   5.044  66.163  1.00  0.00    -0.114 C  
HETATM   24  C   UNL     1      -7.368   5.500  66.704  1.00  0.00    -0.083 C  
HETATM   25  C   UNL     1      -7.128   5.036  68.139  1.00  0.00    -0.062 C  
HETATM   26  C   UNL     1      -7.201   3.496  68.232  1.00  0.00    -0.051 C  
HETATM   27  C   UNL     1      -7.178   2.555  67.044  1.00  0.00    -0.057 C  
HETATM   28  C   UNL     1      -8.501   2.987  67.629  1.00  0.00    -0.101 C  
ENDBRANCH  13  15
ENDBRANCH   8  11
TORSDOF 2
ENDMDL
MODEL       96
REMARK 921   NORMALIZED FREE ENERGY PREDICTED BY IDOCK:   -4.29 KCAL/MOL
REMARK 922        TOTAL FREE ENERGY PREDICTED BY IDOCK:   -5.24 KCAL/MOL
REMARK 923 INTER-LIGAND FREE ENERGY PREDICTED BY IDOCK:   -4.75 KCAL/MOL
REMARK 924 INTRA-LIGAND FREE ENERGY PREDICTED BY IDOCK:   -0.49 KCAL/MOL
REMARK 927      BINDING AFFINITY PREDICTED BY RF-SCORE:    0.00 PKD
ROOT
HETATM    1  F   UNL     1     -11.000  13.087  63.521  1.00  0.00    -0.411 F  
HETATM    2  C   UNL     1     -11.348  13.093  64.837  1.00  0.00    -0.309 C  
HETATM    3  C   UNL     1     -10.944  11.839  65.575  1.00  0.00    -0.344 A  
HETATM    4  F   UNL     1     -10.797  14.216  65.370  1.00  0.00    -0.294 F  
HETATM    5  F   UNL     1     -12.698  13.287  64.863  1.00  0.00    -0.442 F  
HETATM    6  C   UNL     1     -10.258  10.809  64.921  1.00  0.00    -0.388 A  
HETATM    7  C   UNL     1      -9.990   9.611  65.583  1.00  0.00    -0.321 A  
HETATM    8  C   UNL     1     -10.402   9.414  66.911  1.00  0.00    -0.308 A  
HETATM    9  C   UNL     1     -11.017  10.470  67.593  1.00  0.00    -0.375 A  
HETATM   10  C   UNL     1     -11.289  11.671  66.926  1.00  0.00    -0.364 A  
ENDROOT
BRANCH   8  11
HETATM   11  C   UNL     1     -10.204   8.051  67.487  1.00  0.00    -0.245 C  
HETATM   12  O   UNL     1     -11.181   7.435  67.913  1.00  0.00     0.057 OA 
HETATM   13  N   UNL     1      -8.918   7.557  67.546  1.00  0.00    -0.126 N  
HETATM   14  H   UNL     1      -8.134   8.095  67.178  1.00  0.00     0.000 HD 
BRANCH  13  15
HETATM   15  N   UNL     1      -8.717   6.304  68.121  1.00  0.00    -0.116 N  
HETATM   16  C   UNL     1      -8.078   6.204  69.334  1.00  0.00    -0.112 C  
HETATM   17  C   UNL     1      -7.759   4.747  69.573  1.00  0.00    -0.062 C  
HETATM   18  O   UNL     1      -7.754   7.129  70.066  1.00  0.00    -0.099 OA 
HETATM   19  C   UNL     1      -8.161   4.050  68.234  1.00  0.00    -0.095 C  
HETATM   20  C   UNL     1      -6.928   3.326  67.624  1.00  0.00    -0.050 C  
HETATM   21  C   UNL     1      -8.611   5.173  67.340  1.00  0.00    -0.104 C  
HETATM   22  O   UNL     1      -8.745   5.070  66.130  1.00  0.00    -0.116 OA 
HETATM   23  C   UNL     1      -5.835   4.389  67.475  1.00  0.00    -0.023 C  
HETATM   24  C   UNL     1      -5.484   4.988  68.628  1.00  0.00    -0.014 C  
HETATM   25  C   UNL     1      -6.246   4.482  69.850  1.00  0.00    -0.026 C  
HETATM   26  C   UNL     1      -6.123   2.946  69.971  1.00  0.00    -0.024 C  
HETATM   27  C   UNL     1      -5.131   2.095  69.206  1.00  0.00    -0.007 C  
HETATM   28  C   UNL     1      -6.531   2.275  68.669  1.00  0.00    -0.029 C  
ENDBRANCH  13  15
ENDBRANCH   8  11
TORSDOF 2
ENDMDL
MODEL       97
REMARK 921   NORMALIZED FREE ENERGY PREDICTED BY IDOCK:   -4.26 KCAL/MOL
REMARK 922        TOTAL FREE ENERGY PREDICTED BY IDOCK:   -5.21 KCAL/MOL
REMARK 923 INTER-LIGAND FREE ENERGY PREDICTED BY IDOCK:   -5.06 KCAL/MOL
REMARK 924 INTRA-LIGAND FREE ENERGY PREDICTED BY IDOCK:   -0.15 KCAL/MOL
REMARK 927      BINDING AFFINITY PREDICTED BY RF-SCORE:    0.00 PKD
ROOT
HETATM    1  F   UNL     1     -10.673  12.745  66.228  1.00  0.00    -0.268 F  
HETATM    2  C   UNL     1     -10.379  11.581  65.585  1.00  0.00    -0.261 C  
HETATM    3  C   UNL     1     -10.317  10.383  66.502  1.00  0.00    -0.287 A  
HETATM    4  F   UNL     1     -11.311  11.445  64.604  1.00  0.00    -0.353 F  
HETATM    5  F   UNL     1      -9.193  11.799  64.949  1.00  0.00    -0.157 F  
HETATM    6  C   UNL     1     -10.570  10.513  67.873  1.00  0.00    -0.271 A  
HETATM    7  C   UNL     1     -10.400   9.422  68.726  1.00  0.00    -0.230 A  
HETATM    8  C   UNL     1      -9.973   8.180  68.230  1.00  0.00    -0.212 A  
HETATM    9  C   UNL     1      -9.797   8.025  66.850  1.00  0.00    -0.318 A  
HETATM   10  C   UNL     1      -9.964   9.122  65.995  1.00  0.00    -0.293 A  
ENDROOT
BRANCH   8  11
HETATM   11  C   UNL     1      -9.676   7.115  69.234  1.00  0.00    -0.159 C  
HETATM   12  O   UNL     1      -8.570   7.095  69.773  1.00  0.00    -0.139 OA 
HETATM   13  N   UNL     1     -10.654   6.176  69.485  1.00  0.00    -0.253 N  
HETATM   14  H   UNL     1     -11.561   6.228  69.022  1.00  0.00     0.000 HD 
BRANCH  13  15
HETATM   15  N   UNL     1     -10.372   5.153  70.387  1.00  0.00    -0.271 N  
HETATM   16  C   UNL     1     -10.401   5.407  71.739  1.00  0.00    -0.212 C  
HETATM   17  C   UNL     1      -9.797   4.219  72.448  1.00  0.00    -0.217 C  
HETATM   18  O   UNL     1     -10.781   6.438  72.278  1.00  0.00    -0.209 OA 
HETATM   19  C   UNL     1      -9.262   3.321  71.289  1.00  0.00    -0.192 C  
HETATM   20  C   UNL     1      -7.732   3.102  71.453  1.00  0.00    -0.051 C  
HETATM   21  C   UNL     1      -9.552   4.101  70.036  1.00  0.00    -0.203 C  
HETATM   22  O   UNL     1      -9.046   3.862  68.950  1.00  0.00    -0.113 OA 
HETATM   23  C   UNL     1      -7.100   4.497  71.509  1.00  0.00    -0.050 C  
HETATM   24  C   UNL     1      -7.557   5.271  72.511  1.00  0.00    -0.097 C  
HETATM   25  C   UNL     1      -8.610   4.598  73.388  1.00  0.00    -0.101 C  
HETATM   26  C   UNL     1      -8.084   3.252  73.934  1.00  0.00    -0.070 C  
HETATM   27  C   UNL     1      -6.636   2.809  73.894  1.00  0.00    -0.029 C  
HETATM   28  C   UNL     1      -7.578   2.378  72.797  1.00  0.00    -0.045 C  
ENDBRANCH  13  15
ENDBRANCH   8  11
TORSDOF 2
ENDMDL
MODEL       98
REMARK 921   NORMALIZED FREE ENERGY PREDICTED BY IDOCK:   -4.20 KCAL/MOL
REMARK 922        TOTAL FREE ENERGY PREDICTED BY IDOCK:   -5.14 KCAL/MOL
REMARK 923 INTER-LIGAND FREE ENERGY PREDICTED BY IDOCK:   -5.23 KCAL/MOL
REMARK 924 INTRA-LIGAND FREE ENERGY PREDICTED BY IDOCK:    0.09 KCAL/MOL
REMARK 927      BINDING AFFINITY PREDICTED BY RF-SCORE:    0.00 PKD
ROOT
HETATM    1  F   UNL     1     -13.654  12.695  62.686  1.00  0.00     0.782 F  
HETATM    2  C   UNL     1     -12.754  12.083  63.504  1.00  0.00    -0.443 C  
HETATM    3  C   UNL     1     -11.989  13.041  64.385  1.00  0.00    -0.457 A  
HETATM    4  F   UNL     1     -13.457  11.161  64.216  1.00  0.00     0.781 F  
HETATM    5  F   UNL     1     -11.929  11.374  62.683  1.00  0.00    -0.001 F  
HETATM    6  C   UNL     1     -12.238  14.417  64.337  1.00  0.00    -0.481 A  
HETATM    7  C   UNL     1     -11.448  15.301  65.073  1.00  0.00    -0.300 A  
HETATM    8  C   UNL     1     -10.392  14.831  65.869  1.00  0.00    -0.335 A  
HETATM    9  C   UNL     1     -10.190  13.451  65.981  1.00  0.00    -0.301 A  
HETATM   10  C   UNL     1     -10.982  12.564  65.240  1.00  0.00    -0.329 A  
ENDROOT
BRANCH   8  11
HETATM   11  C   UNL     1      -9.509  15.858  66.500  1.00  0.00    -0.273 C  
HETATM   12  O   UNL     1      -8.733  16.496  65.789  1.00  0.00    -0.460 OA 
HETATM   13  N   UNL     1      -9.582  16.017  67.867  1.00  0.00    -0.218 N  
HETATM   14  H   UNL     1     -10.242  15.472  68.423  1.00  0.00     0.000 HD 
BRANCH  13  15
HETATM   15  N   UNL     1      -8.733  16.941  68.471  1.00  0.00    -0.243 N  
HETATM   16  C   UNL     1      -9.139  18.247  68.620  1.00  0.00    -0.283 C  
HETATM   17  C   UNL     1      -7.939  19.061  69.041  1.00  0.00    -0.249 C  
HETATM   18  O   UNL     1     -10.253  18.694  68.385  1.00  0.00    -0.374 OA 
HETATM   19  C   UNL     1      -6.749  18.055  68.945  1.00  0.00    -0.245 C  
HETATM   20  C   UNL     1      -5.681  18.592  67.952  1.00  0.00    -0.175 C  
HETATM   21  C   UNL     1      -7.364  16.785  68.424  1.00  0.00    -0.198 C  
HETATM   22  O   UNL     1      -6.721  15.855  67.960  1.00  0.00    -0.112 OA 
HETATM   23  C   UNL     1      -6.408  18.832  66.625  1.00  0.00    -0.206 C  
HETATM   24  C   UNL     1      -7.431  19.702  66.705  1.00  0.00    -0.270 C  
HETATM   25  C   UNL     1      -7.656  20.275  68.102  1.00  0.00    -0.189 C  
HETATM   26  C   UNL     1      -6.356  20.909  68.645  1.00  0.00    -0.169 C  
HETATM   27  C   UNL     1      -5.131  21.224  67.810  1.00  0.00    -0.270 C  
HETATM   28  C   UNL     1      -5.206  19.917  68.563  1.00  0.00    -0.212 C  
ENDBRANCH  13  15
ENDBRANCH   8  11
TORSDOF 2
ENDMDL
MODEL       99
REMARK 921   NORMALIZED FREE ENERGY PREDICTED BY IDOCK:   -4.18 KCAL/MOL
REMARK 922        TOTAL FREE ENERGY PREDICTED BY IDOCK:   -5.11 KCAL/MOL
REMARK 923 INTER-LIGAND FREE ENERGY PREDICTED BY IDOCK:   -4.97 KCAL/MOL
REMARK 924 INTRA-LIGAND FREE ENERGY PREDICTED BY IDOCK:   -0.14 KCAL/MOL
REMARK 927      BINDING AFFINITY PREDICTED BY RF-SCORE:    0.00 PKD
ROOT
HETATM    1  F   UNL     1      -6.073  18.047  68.799  1.00  0.00    -0.178 F  
HETATM    2  C   UNL     1      -7.261  17.821  68.174  1.00  0.00    -0.225 C  
HETATM    3  C   UNL     1      -7.648  16.363  68.121  1.00  0.00    -0.157 A  
HETATM    4  F   UNL     1      -8.180  18.586  68.821  1.00  0.00    -0.321 F  
HETATM    5  F   UNL     1      -7.133  18.360  66.928  1.00  0.00    -0.193 F  
HETATM    6  C   UNL     1      -6.834  15.381  68.698  1.00  0.00    -0.106 A  
HETATM    7  C   UNL     1      -7.146  14.030  68.545  1.00  0.00    -0.102 A  
HETATM    8  C   UNL     1      -8.275  13.630  67.813  1.00  0.00    -0.179 A  
HETATM    9  C   UNL     1      -9.135  14.609  67.303  1.00  0.00    -0.215 A  
HETATM   10  C   UNL     1      -8.819  15.966  67.454  1.00  0.00    -0.201 A  
ENDROOT
BRANCH   8  11
HETATM   11  C   UNL     1      -8.446  12.165  67.577  1.00  0.00    -0.169 C  
HETATM   12  O   UNL     1      -8.936  11.470  68.466  1.00  0.00    -0.165 OA 
HETATM   13  N   UNL     1      -8.009  11.651  66.374  1.00  0.00    -0.366 N  
HETATM   14  H   UNL     1      -7.611  12.260  65.658  1.00  0.00     0.000 HD 
BRANCH  13  15
HETATM   15  N   UNL     1      -8.124  10.280  66.160  1.00  0.00    -0.127 N  
HETATM   16  C   UNL     1      -9.338   9.744  65.797  1.00  0.00    -0.221 C  
HETATM   17  C   UNL     1      -9.233   8.242  65.904  1.00  0.00    -0.185 C  
HETATM   18  O   UNL     1     -10.350  10.366  65.507  1.00  0.00    -0.264 OA 
HETATM   19  C   UNL     1      -7.830   8.007  66.547  1.00  0.00    -0.097 C  
HETATM   20  C   UNL     1      -7.983   7.225  67.882  1.00  0.00    -0.119 C  
HETATM   21  C   UNL     1      -7.291   9.388  66.802  1.00  0.00    -0.086 C  
HETATM   22  O   UNL     1      -6.344   9.627  67.536  1.00  0.00    -0.062 OA 
HETATM   23  C   UNL     1      -8.943   8.044  68.752  1.00  0.00    -0.141 C  
HETATM   24  C   UNL     1     -10.155   8.243  68.202  1.00  0.00    -0.238 C  
HETATM   25  C   UNL     1     -10.326   7.610  66.823  1.00  0.00    -0.343 C  
HETATM   26  C   UNL     1      -9.988   6.103  66.871  1.00  0.00    -0.211 C  
HETATM   27  C   UNL     1      -9.836   5.290  68.140  1.00  0.00    -0.198 C  
HETATM   28  C   UNL     1      -8.614   5.885  67.484  1.00  0.00    -0.102 C  
ENDBRANCH  13  15
ENDBRANCH   8  11
TORSDOF 2
ENDMDL
MODEL      100
REMARK 921   NORMALIZED FREE ENERGY PREDICTED BY IDOCK:   -4.16 KCAL/MOL
REMARK 922        TOTAL FREE ENERGY PREDICTED BY IDOCK:   -5.09 KCAL/MOL
REMARK 923 INTER-LIGAND FREE ENERGY PREDICTED BY IDOCK:   -4.64 KCAL/MOL
REMARK 924 INTRA-LIGAND FREE ENERGY PREDICTED BY IDOCK:   -0.45 KCAL/MOL
REMARK 927      BINDING AFFINITY PREDICTED BY RF-SCORE:    0.00 PKD
ROOT
HETATM    1  F   UNL     1     -11.196  13.494  63.928  1.00  0.00    -0.379 F  
HETATM    2  C   UNL     1     -11.688  13.555  65.196  1.00  0.00    -0.322 C  
HETATM    3  C   UNL     1     -10.786  12.916  66.226  1.00  0.00    -0.295 A  
HETATM    4  F   UNL     1     -11.924  14.870  65.448  1.00  0.00    -0.340 F  
HETATM    5  F   UNL     1     -12.912  12.956  65.148  1.00  0.00    -0.552 F  
HETATM    6  C   UNL     1      -9.561  12.350  65.856  1.00  0.00    -0.193 A  
HETATM    7  C   UNL     1      -8.790  11.665  66.796  1.00  0.00    -0.184 A  
HETATM    8  C   UNL     1      -9.227  11.529  68.123  1.00  0.00    -0.181 A  
HETATM    9  C   UNL     1     -10.412  12.162  68.516  1.00  0.00    -0.248 A  
HETATM   10  C   UNL     1     -11.187  12.846  67.570  1.00  0.00    -0.329 A  
ENDROOT
BRANCH   8  11
HETATM   11  C   UNL     1      -8.412  10.655  69.019  1.00  0.00    -0.145 C  
HETATM   12  O   UNL     1      -7.391  11.113  69.533  1.00  0.00    -0.108 OA 
HETATM   13  N   UNL     1      -8.827   9.353  69.200  1.00  0.00    -0.138 N  
HETATM   14  H   UNL     1      -9.682   9.010  68.761  1.00  0.00     0.000 HD 
BRANCH  13  15
HETATM   15  N   UNL     1      -8.051   8.517  69.999  1.00  0.00    -0.107 N  
HETATM   16  C   UNL     1      -7.100   7.710  69.421  1.00  0.00    -0.075 C  
HETATM   17  C   UNL     1      -6.619   6.734  70.468  1.00  0.00    -0.052 C  
HETATM   18  O   UNL     1      -6.749   7.722  68.249  1.00  0.00    -0.062 OA 
HETATM   19  C   UNL     1      -7.562   6.994  71.685  1.00  0.00    -0.089 C  
HETATM   20  C   UNL     1      -8.317   5.687  72.058  1.00  0.00    -0.122 C  
HETATM   21  C   UNL     1      -8.526   8.043  71.203  1.00  0.00    -0.123 C  
HETATM   22  O   UNL     1      -9.577   8.314  71.765  1.00  0.00    -0.170 OA 
HETATM   23  C   UNL     1      -9.042   5.232  70.787  1.00  0.00    -0.168 C  
HETATM   24  C   UNL     1      -8.231   5.004  69.738  1.00  0.00    -0.077 C  
HETATM   25  C   UNL     1      -6.751   5.242  70.031  1.00  0.00    -0.044 C  
HETATM   26  C   UNL     1      -6.301   4.421  71.260  1.00  0.00    -0.019 C  
HETATM   27  C   UNL     1      -7.096   3.294  71.887  1.00  0.00    -0.038 C  
HETATM   28  C   UNL     1      -7.215   4.692  72.445  1.00  0.00    -0.080 C  
ENDBRANCH  13  15
ENDBRANCH   8  11
TORSDOF 2
ENDMDL
MODEL      101
REMARK 921   NORMALIZED FREE ENERGY PREDICTED BY IDOCK:   -4.10 KCAL/MOL
REMARK 922        TOTAL FREE ENERGY PREDICTED BY IDOCK:   -5.02 KCAL/MOL
REMARK 923 INTER-LIGAND FREE ENERGY PREDICTED BY IDOCK:   -4.86 KCAL/MOL
REMARK 924 INTRA-LIGAND FREE ENERGY PREDICTED BY IDOCK:   -0.16 KCAL/MOL
REMARK 927      BINDING AFFINITY PREDICTED BY RF-SCORE:    0.00 PKD
ROOT
HETATM    1  F   UNL     1      -5.143  17.169  68.832  1.00  0.00    -0.133 F  
HETATM    2  C   UNL     1      -6.173  16.959  67.966  1.00  0.00    -0.136 C  
HETATM    3  C   UNL     1      -6.809  15.597  68.101  1.00  0.00    -0.130 A  
HETATM    4  F   UNL     1      -7.054  17.974  68.173  1.00  0.00    -0.205 F  
HETATM    5  F   UNL     1      -5.655  17.159  66.720  1.00  0.00    -0.154 F  
HETATM    6  C   UNL     1      -6.356  14.684  69.060  1.00  0.00    -0.094 A  
HETATM    7  C   UNL     1      -6.877  13.390  69.101  1.00  0.00    -0.076 A  
HETATM    8  C   UNL     1      -7.858  12.980  68.184  1.00  0.00    -0.145 A  
HETATM    9  C   UNL     1      -8.370  13.913  67.276  1.00  0.00    -0.199 A  
HETATM   10  C   UNL     1      -7.845  15.211  67.234  1.00  0.00    -0.241 A  
ENDROOT
BRANCH   8  11
HETATM   11  C   UNL     1      -8.247  11.538  68.207  1.00  0.00    -0.152 C  
HETATM   12  O   UNL     1      -8.050  10.851  67.205  1.00  0.00    -0.120 OA 
HETATM   13  N   UNL     1      -8.845  11.050  69.350  1.00  0.00    -0.383 N  
HETATM   14  H   UNL     1      -8.987  11.649  70.163  1.00  0.00     0.000 HD 
BRANCH  13  15
HETATM   15  N   UNL     1      -9.250   9.718  69.366  1.00  0.00    -0.191 N  
HETATM   16  C   UNL     1      -8.314   8.721  69.514  1.00  0.00    -0.119 C  
HETATM   17  C   UNL     1      -8.990   7.402  69.222  1.00  0.00    -0.136 C  
HETATM   18  O   UNL     1      -7.126   8.869  69.765  1.00  0.00    -0.051 OA 
HETATM   19  C   UNL     1     -10.411   7.810  68.718  1.00  0.00    -0.219 C  
HETATM   20  C   UNL     1     -10.642   7.260  67.283  1.00  0.00    -0.395 C  
HETATM   21  C   UNL     1     -10.395   9.315  68.711  1.00  0.00    -0.211 C  
HETATM   22  O   UNL     1     -11.219  10.003  68.128  1.00  0.00    -0.232 OA 
HETATM   23  C   UNL     1      -9.493   7.799  66.425  1.00  0.00    -0.245 C  
HETATM   24  C   UNL     1      -8.268   7.444  66.854  1.00  0.00    -0.121 C  
HETATM   25  C   UNL     1      -8.274   6.574  68.109  1.00  0.00    -0.117 C  
HETATM   26  C   UNL     1      -9.164   5.328  67.901  1.00  0.00    -0.122 C  
HETATM   27  C   UNL     1      -9.685   4.849  66.561  1.00  0.00    -0.199 C  
HETATM   28  C   UNL     1     -10.549   5.735  67.426  1.00  0.00    -0.340 C  
ENDBRANCH  13  15
ENDBRANCH   8  11
TORSDOF 2
ENDMDL
MODEL      102
REMARK 921   NORMALIZED FREE ENERGY PREDICTED BY IDOCK:   -3.97 KCAL/MOL
REMARK 922        TOTAL FREE ENERGY PREDICTED BY IDOCK:   -4.88 KCAL/MOL
REMARK 923 INTER-LIGAND FREE ENERGY PREDICTED BY IDOCK:   -4.39 KCAL/MOL
REMARK 924 INTRA-LIGAND FREE ENERGY PREDICTED BY IDOCK:   -0.49 KCAL/MOL
REMARK 927      BINDING AFFINITY PREDICTED BY RF-SCORE:    0.00 PKD
ROOT
HETATM    1  F   UNL     1      -8.110   1.750  66.400  1.00  0.00    -0.071 F  
HETATM    2  C   UNL     1      -7.399   2.265  67.441  1.00  0.00    -0.056 C  
HETATM    3  C   UNL     1      -7.519   3.764  67.573  1.00  0.00    -0.067 A  
HETATM    4  F   UNL     1      -7.822   1.604  68.551  1.00  0.00    -0.049 F  
HETATM    5  F   UNL     1      -6.109   1.872  67.239  1.00  0.00    -0.018 F  
HETATM    6  C   UNL     1      -8.318   4.501  66.692  1.00  0.00    -0.106 A  
HETATM    7  C   UNL     1      -8.332   5.896  66.754  1.00  0.00    -0.109 A  
HETATM    8  C   UNL     1      -7.548   6.582  67.695  1.00  0.00    -0.105 A  
HETATM    9  C   UNL     1      -6.809   5.846  68.628  1.00  0.00    -0.066 A  
HETATM   10  C   UNL     1      -6.794   4.447  68.563  1.00  0.00    -0.051 A  
ENDROOT
BRANCH   8  11
HETATM   11  C   UNL     1      -7.512   8.071  67.589  1.00  0.00    -0.097 C  
HETATM   12  O   UNL     1      -6.431   8.651  67.693  1.00  0.00    -0.059 OA 
HETATM   13  N   UNL     1      -8.709   8.734  67.413  1.00  0.00    -0.129 N  
HETATM   14  H   UNL     1      -9.584   8.218  67.326  1.00  0.00     0.000 HD 
BRANCH  13  15
HETATM   15  N   UNL     1      -8.692  10.125  67.357  1.00  0.00    -0.125 N  
HETATM   16  C   UNL     1      -9.017  10.859  68.474  1.00  0.00    -0.157 C  
HETATM   17  C   UNL     1      -9.181  12.299  68.053  1.00  0.00    -0.195 C  
HETATM   18  O   UNL     1      -9.212  10.422  69.600  1.00  0.00    -0.169 OA 
HETATM   19  C   UNL     1      -9.068  12.251  66.496  1.00  0.00    -0.188 C  
HETATM   20  C   UNL     1     -10.365  12.819  65.854  1.00  0.00    -0.298 C  
HETATM   21  C   UNL     1      -8.913  10.791  66.170  1.00  0.00    -0.177 C  
HETATM   22  O   UNL     1      -9.065  10.321  65.052  1.00  0.00    -0.176 OA 
HETATM   23  C   UNL     1     -11.524  11.995  66.425  1.00  0.00    -0.417 C  
HETATM   24  C   UNL     1     -11.626  12.039  67.766  1.00  0.00    -0.400 C  
HETATM   25  C   UNL     1     -10.566  12.904  68.444  1.00  0.00    -0.267 C  
HETATM   26  C   UNL     1     -10.564  14.330  67.849  1.00  0.00    -0.240 C  
HETATM   27  C   UNL     1     -11.657  14.901  66.969  1.00  0.00    -0.314 C  
HETATM   28  C   UNL     1     -10.439  14.274  66.335  1.00  0.00    -0.282 C  
ENDBRANCH  13  15
ENDBRANCH   8  11
TORSDOF 2
ENDMDL
MODEL      103
REMARK 921   NORMALIZED FREE ENERGY PREDICTED BY IDOCK:   -3.93 KCAL/MOL
REMARK 922        TOTAL FREE ENERGY PREDICTED BY IDOCK:   -4.84 KCAL/MOL
REMARK 923 INTER-LIGAND FREE ENERGY PREDICTED BY IDOCK:   -4.36 KCAL/MOL
REMARK 924 INTRA-LIGAND FREE ENERGY PREDICTED BY IDOCK:   -0.47 KCAL/MOL
REMARK 927      BINDING AFFINITY PREDICTED BY RF-SCORE:    0.00 PKD
ROOT
HETATM    1  F   UNL     1     -10.377  16.275  66.691  1.00  0.00    -0.276 F  
HETATM    2  C   UNL     1      -9.580  15.306  66.161  1.00  0.00    -0.321 C  
HETATM    3  C   UNL     1      -9.826  13.935  66.744  1.00  0.00    -0.274 A  
HETATM    4  F   UNL     1      -9.777  15.348  64.816  1.00  0.00    -0.169 F  
HETATM    5  F   UNL     1      -8.299  15.726  66.367  1.00  0.00    -0.277 F  
HETATM    6  C   UNL     1     -10.809  13.734  67.720  1.00  0.00    -0.262 A  
HETATM    7  C   UNL     1     -10.949  12.487  68.330  1.00  0.00    -0.277 A  
HETATM    8  C   UNL     1     -10.111  11.416  67.982  1.00  0.00    -0.193 A  
HETATM    9  C   UNL     1      -9.181  11.591  66.951  1.00  0.00    -0.181 A  
HETATM   10  C   UNL     1      -9.038  12.844  66.341  1.00  0.00    -0.083 A  
ENDROOT
BRANCH   8  11
HETATM   11  C   UNL     1     -10.235  10.167  68.791  1.00  0.00    -0.186 C  
HETATM   12  O   UNL     1     -11.324   9.884  69.290  1.00  0.00    -0.177 OA 
HETATM   13  N   UNL     1      -9.102   9.401  68.971  1.00  0.00    -0.139 N  
HETATM   14  H   UNL     1      -8.218   9.665  68.537  1.00  0.00     0.000 HD 
BRANCH  13  15
HETATM   15  N   UNL     1      -9.197   8.257  69.759  1.00  0.00    -0.154 N  
HETATM   16  C   UNL     1      -8.858   8.315  71.091  1.00  0.00    -0.151 C  
HETATM   17  C   UNL     1      -8.792   6.900  71.616  1.00  0.00    -0.128 C  
HETATM   18  O   UNL     1      -8.585   9.322  71.730  1.00  0.00    -0.289 OA 
HETATM   19  C   UNL     1      -8.977   6.017  70.341  1.00  0.00    -0.153 C  
HETATM   20  C   UNL     1      -7.745   5.087  70.158  1.00  0.00    -0.063 C  
HETATM   21  C   UNL     1      -9.070   7.000  69.206  1.00  0.00    -0.137 C  
HETATM   22  O   UNL     1      -8.947   6.697  68.029  1.00  0.00    -0.119 OA 
HETATM   23  C   UNL     1      -6.517   6.002  70.115  1.00  0.00    -0.039 C  
HETATM   24  C   UNL     1      -6.353   6.761  71.214  1.00  0.00    -0.041 C  
HETATM   25  C   UNL     1      -7.424   6.551  72.282  1.00  0.00    -0.095 C  
HETATM   26  C   UNL     1      -7.531   5.057  72.659  1.00  0.00    -0.095 C  
HETATM   27  C   UNL     1      -6.514   3.996  72.290  1.00  0.00    -0.021 C  
HETATM   28  C   UNL     1      -7.726   4.206  71.415  1.00  0.00    -0.065 C  
ENDBRANCH  13  15
ENDBRANCH   8  11
TORSDOF 2
ENDMDL
MODEL      104
REMARK 921   NORMALIZED FREE ENERGY PREDICTED BY IDOCK:   -3.92 KCAL/MOL
REMARK 922        TOTAL FREE ENERGY PREDICTED BY IDOCK:   -4.82 KCAL/MOL
REMARK 923 INTER-LIGAND FREE ENERGY PREDICTED BY IDOCK:   -4.75 KCAL/MOL
REMARK 924 INTRA-LIGAND FREE ENERGY PREDICTED BY IDOCK:   -0.08 KCAL/MOL
REMARK 927      BINDING AFFINITY PREDICTED BY RF-SCORE:    0.00 PKD
ROOT
HETATM    1  F   UNL     1      -9.960  17.026  67.856  1.00  0.00    -0.251 F  
HETATM    2  C   UNL     1      -8.705  16.507  67.957  1.00  0.00    -0.189 C  
HETATM    3  C   UNL     1      -8.673  14.998  67.961  1.00  0.00    -0.159 A  
HETATM    4  F   UNL     1      -7.991  17.045  66.933  1.00  0.00    -0.190 F  
HETATM    5  F   UNL     1      -8.178  17.032  69.100  1.00  0.00    -0.236 F  
HETATM    6  C   UNL     1      -9.853  14.253  67.847  1.00  0.00    -0.226 A  
HETATM    7  C   UNL     1      -9.821  12.863  67.964  1.00  0.00    -0.223 A  
HETATM    8  C   UNL     1      -8.614  12.188  68.200  1.00  0.00    -0.177 A  
HETATM    9  C   UNL     1      -7.422  12.921  68.235  1.00  0.00    -0.125 A  
HETATM   10  C   UNL     1      -7.455  14.317  68.120  1.00  0.00    -0.131 A  
ENDROOT
BRANCH   8  11
HETATM   11  C   UNL     1      -8.698  10.719  68.460  1.00  0.00    -0.149 C  
HETATM   12  O   UNL     1      -9.096  10.329  69.557  1.00  0.00    -0.206 OA 
HETATM   13  N   UNL     1      -8.287   9.864  67.459  1.00  0.00    -0.115 N  
HETATM   14  H   UNL     1      -7.967  10.224  66.561  1.00  0.00     0.000 HD 
BRANCH  13  15
HETATM   15  N   UNL     1      -8.321   8.494  67.707  1.00  0.00    -0.128 N  
HETATM   16  C   UNL     1      -9.493   7.796  67.530  1.00  0.00    -0.141 C  
HETATM   17  C   UNL     1      -9.309   6.420  68.125  1.00  0.00    -0.108 C  
HETATM   18  O   UNL     1     -10.530   8.225  67.044  1.00  0.00    -0.310 OA 
HETATM   19  C   UNL     1      -7.913   6.495  68.821  1.00  0.00    -0.111 C  
HETATM   20  C   UNL     1      -8.060   6.185  70.337  1.00  0.00    -0.112 C  
HETATM   21  C   UNL     1      -7.458   7.913  68.613  1.00  0.00    -0.099 C  
HETATM   22  O   UNL     1      -6.546   8.437  69.236  1.00  0.00    -0.041 OA 
HETATM   23  C   UNL     1      -9.087   7.183  70.882  1.00  0.00    -0.152 C  
HETATM   24  C   UNL     1     -10.292   7.117  70.287  1.00  0.00    -0.214 C  
HETATM   25  C   UNL     1     -10.390   6.059  69.192  1.00  0.00    -0.289 C  
HETATM   26  C   UNL     1      -9.971   4.674  69.734  1.00  0.00    -0.295 C  
HETATM   27  C   UNL     1      -9.810   4.332  71.201  1.00  0.00    -0.250 C  
HETATM   28  C   UNL     1      -8.605   4.752  70.396  1.00  0.00    -0.117 C  
ENDBRANCH  13  15
ENDBRANCH   8  11
TORSDOF 2
ENDMDL
MODEL      105
REMARK 921   NORMALIZED FREE ENERGY PREDICTED BY IDOCK:   -3.84 KCAL/MOL
REMARK 922        TOTAL FREE ENERGY PREDICTED BY IDOCK:   -4.73 KCAL/MOL
REMARK 923 INTER-LIGAND FREE ENERGY PREDICTED BY IDOCK:   -4.25 KCAL/MOL
REMARK 924 INTRA-LIGAND FREE ENERGY PREDICTED BY IDOCK:   -0.48 KCAL/MOL
REMARK 927      BINDING AFFINITY PREDICTED BY RF-SCORE:    0.00 PKD
ROOT
HETATM    1  F   UNL     1      -6.116  16.630  68.252  1.00  0.00    -0.115 F  
HETATM    2  C   UNL     1      -7.414  16.232  68.142  1.00  0.00    -0.144 C  
HETATM    3  C   UNL     1      -7.573  14.756  67.870  1.00  0.00    -0.149 A  
HETATM    4  F   UNL     1      -8.028  16.625  69.290  1.00  0.00    -0.243 F  
HETATM    5  F   UNL     1      -7.953  16.995  67.148  1.00  0.00    -0.178 F  
HETATM    6  C   UNL     1      -6.456  13.918  67.773  1.00  0.00    -0.178 A  
HETATM    7  C   UNL     1      -6.610  12.579  67.411  1.00  0.00    -0.152 A  
HETATM    8  C   UNL     1      -7.880  12.049  67.137  1.00  0.00    -0.168 A  
HETATM    9  C   UNL     1      -9.006  12.862  67.311  1.00  0.00    -0.208 A  
HETATM   10  C   UNL     1      -8.850  14.207  67.671  1.00  0.00    -0.194 A  
ENDROOT
BRANCH   8  11
HETATM   11  C   UNL     1      -7.933  10.651  66.614  1.00  0.00    -0.134 C  
HETATM   12  O   UNL     1      -7.745  10.455  65.414  1.00  0.00    -0.144 OA 
HETATM   13  N   UNL     1      -8.229   9.641  67.505  1.00  0.00    -0.114 N  
HETATM   14  H   UNL     1      -8.374   9.842  68.494  1.00  0.00     0.000 HD 
BRANCH  13  15
HETATM   15  N   UNL     1      -8.323   8.339  67.020  1.00  0.00    -0.121 N  
HETATM   16  C   UNL     1      -9.556   7.741  66.902  1.00  0.00    -0.198 C  
HETATM   17  C   UNL     1      -9.337   6.274  66.622  1.00  0.00    -0.167 C  
HETATM   18  O   UNL     1     -10.644   8.278  67.063  1.00  0.00    -0.321 OA 
HETATM   19  C   UNL     1      -7.793   6.090  66.768  1.00  0.00    -0.101 C  
HETATM   20  C   UNL     1      -7.488   5.039  67.872  1.00  0.00    -0.079 C  
HETATM   21  C   UNL     1      -7.284   7.446  67.175  1.00  0.00    -0.089 C  
HETATM   22  O   UNL     1      -6.174   7.646  67.645  1.00  0.00    -0.046 OA 
HETATM   23  C   UNL     1      -8.184   5.535  69.144  1.00  0.00    -0.095 C  
HETATM   24  C   UNL     1      -9.515   5.690  69.021  1.00  0.00    -0.159 C  
HETATM   25  C   UNL     1     -10.060   5.336  67.640  1.00  0.00    -0.216 C  
HETATM   26  C   UNL     1      -9.636   3.906  67.238  1.00  0.00    -0.222 C  
HETATM   27  C   UNL     1      -9.059   2.875  68.187  1.00  0.00    -0.226 C  
HETATM   28  C   UNL     1      -8.130   3.740  67.369  1.00  0.00    -0.090 C  
ENDBRANCH  13  15
ENDBRANCH   8  11
TORSDOF 2
ENDMDL
MODEL      106
REMARK 921   NORMALIZED FREE ENERGY PREDICTED BY IDOCK:   -3.83 KCAL/MOL
REMARK 922        TOTAL FREE ENERGY PREDICTED BY IDOCK:   -4.72 KCAL/MOL
REMARK 923 INTER-LIGAND FREE ENERGY PREDICTED BY IDOCK:   -4.61 KCAL/MOL
REMARK 924 INTRA-LIGAND FREE ENERGY PREDICTED BY IDOCK:   -0.11 KCAL/MOL
REMARK 927      BINDING AFFINITY PREDICTED BY RF-SCORE:    0.00 PKD
ROOT
HETATM    1  F   UNL     1     -14.399   8.028  72.939  1.00  0.00    -0.128 F  
HETATM    2  C   UNL     1     -13.424   7.719  72.040  1.00  0.00    -0.180 C  
HETATM    3  C   UNL     1     -12.742   8.930  71.449  1.00  0.00    -0.350 A  
HETATM    4  F   UNL     1     -12.560   6.893  72.688  1.00  0.00    -0.030 F  
HETATM    5  F   UNL     1     -14.028   6.956  71.085  1.00  0.00    -0.393 F  
HETATM    6  C   UNL     1     -13.105  10.223  71.842  1.00  0.00    -0.568 A  
HETATM    7  C   UNL     1     -12.546  11.333  71.207  1.00  0.00    -0.487 A  
HETATM    8  C   UNL     1     -11.617  11.176  70.167  1.00  0.00    -0.410 A  
HETATM    9  C   UNL     1     -11.193   9.887  69.825  1.00  0.00    -0.279 A  
HETATM   10  C   UNL     1     -11.756   8.773  70.461  1.00  0.00    -0.115 A  
ENDROOT
BRANCH   8  11
HETATM   11  C   UNL     1     -11.188  12.414  69.449  1.00  0.00    -0.158 C  
HETATM   12  O   UNL     1     -12.025  13.060  68.819  1.00  0.00    -0.314 OA 
HETATM   13  N   UNL     1      -9.853  12.757  69.499  1.00  0.00     0.376 N  
HETATM   14  H   UNL     1      -9.189  12.199  70.035  1.00  0.00     0.000 HD 
BRANCH  13  15
HETATM   15  N   UNL     1      -9.434  13.885  68.797  1.00  0.00    -0.109 N  
HETATM   16  C   UNL     1      -9.777  15.138  69.250  1.00  0.00    -0.225 C  
HETATM   17  C   UNL     1      -9.434  16.133  68.168  1.00  0.00    -0.209 C  
HETATM   18  O   UNL     1     -10.328  15.403  70.310  1.00  0.00    -0.289 OA 
HETATM   19  C   UNL     1      -9.001  15.243  66.961  1.00  0.00    -0.254 C  
HETATM   20  C   UNL     1      -9.914  15.532  65.736  1.00  0.00    -0.391 C  
HETATM   21  C   UNL     1      -9.194  13.830  67.441  1.00  0.00    -0.221 C  
HETATM   22  O   UNL     1      -9.224  12.856  66.703  1.00  0.00    -0.241 OA 
HETATM   23  C   UNL     1     -11.353  15.297  66.206  1.00  0.00    -0.155 C  
HETATM   24  C   UNL     1     -11.729  16.067  67.244  1.00  0.00     0.449 C  
HETATM   25  C   UNL     1     -10.644  17.020  67.738  1.00  0.00    -0.350 C  
HETATM   26  C   UNL     1     -10.113  17.889  66.577  1.00  0.00    -0.370 C  
HETATM   27  C   UNL     1     -10.781  18.029  65.224  1.00  0.00     0.334 C  
HETATM   28  C   UNL     1      -9.680  17.014  65.412  1.00  0.00     0.456 C  
ENDBRANCH  13  15
ENDBRANCH   8  11
TORSDOF 2
ENDMDL
MODEL      107
REMARK 921   NORMALIZED FREE ENERGY PREDICTED BY IDOCK:   -3.70 KCAL/MOL
REMARK 922        TOTAL FREE ENERGY PREDICTED BY IDOCK:   -4.58 KCAL/MOL
REMARK 923 INTER-LIGAND FREE ENERGY PREDICTED BY IDOCK:   -4.43 KCAL/MOL
REMARK 924 INTRA-LIGAND FREE ENERGY PREDICTED BY IDOCK:   -0.15 KCAL/MOL
REMARK 927      BINDING AFFINITY PREDICTED BY RF-SCORE:    0.00 PKD
ROOT
HETATM    1  F   UNL     1     -12.913  15.527  70.632  1.00  0.00    -0.441 F  
HETATM    2  C   UNL     1     -12.053  15.519  69.576  1.00  0.00    -0.302 C  
HETATM    3  C   UNL     1     -11.575  14.137  69.198  1.00  0.00    -0.349 A  
HETATM    4  F   UNL     1     -12.699  16.148  68.558  1.00  0.00     0.332 F  
HETATM    5  F   UNL     1     -11.022  16.337  69.931  1.00  0.00    -0.287 F  
HETATM    6  C   UNL     1     -12.023  13.007  69.889  1.00  0.00    -0.381 A  
HETATM    7  C   UNL     1     -11.488  11.749  69.604  1.00  0.00    -0.341 A  
HETATM    8  C   UNL     1     -10.494  11.596  68.625  1.00  0.00    -0.234 A  
HETATM    9  C   UNL     1     -10.100  12.711  67.877  1.00  0.00    -0.222 A  
HETATM   10  C   UNL     1     -10.636  13.973  68.167  1.00  0.00    -0.252 A  
ENDROOT
BRANCH   8  11
HETATM   11  C   UNL     1      -9.877  10.242  68.493  1.00  0.00    -0.164 C  
HETATM   12  O   UNL     1     -10.433   9.278  69.018  1.00  0.00    -0.210 OA 
HETATM   13  N   UNL     1      -8.682  10.143  67.812  1.00  0.00    -0.122 N  
HETATM   14  H   UNL     1      -8.253  10.965  67.386  1.00  0.00     0.000 HD 
BRANCH  13  15
HETATM   15  N   UNL     1      -8.075   8.893  67.720  1.00  0.00    -0.106 N  
HETATM   16  C   UNL     1      -8.597   7.941  66.876  1.00  0.00    -0.129 C  
HETATM   17  C   UNL     1      -7.920   6.626  67.184  1.00  0.00    -0.109 C  
HETATM   18  O   UNL     1      -9.501   8.101  66.067  1.00  0.00    -0.176 OA 
HETATM   19  C   UNL     1      -7.054   6.935  68.446  1.00  0.00    -0.086 C  
HETATM   20  C   UNL     1      -7.474   6.002  69.616  1.00  0.00    -0.080 C  
HETATM   21  C   UNL     1      -7.362   8.369  68.777  1.00  0.00    -0.087 C  
HETATM   22  O   UNL     1      -7.093   8.896  69.847  1.00  0.00    -0.051 OA 
HETATM   23  C   UNL     1      -8.978   6.216  69.819  1.00  0.00    -0.138 C  
HETATM   24  C   UNL     1      -9.726   5.946  68.733  1.00  0.00    -0.161 C  
HETATM   25  C   UNL     1      -8.923   5.479  67.522  1.00  0.00    -0.107 C  
HETATM   26  C   UNL     1      -8.037   4.268  67.891  1.00  0.00    -0.094 C  
HETATM   27  C   UNL     1      -8.179   3.445  69.155  1.00  0.00    -0.075 C  
HETATM   28  C   UNL     1      -7.187   4.582  69.111  1.00  0.00    -0.052 C  
ENDBRANCH  13  15
ENDBRANCH   8  11
TORSDOF 2
ENDMDL
MODEL      108
REMARK 921   NORMALIZED FREE ENERGY PREDICTED BY IDOCK:   -3.69 KCAL/MOL
REMARK 922        TOTAL FREE ENERGY PREDICTED BY IDOCK:   -4.57 KCAL/MOL
REMARK 923 INTER-LIGAND FREE ENERGY PREDICTED BY IDOCK:   -4.09 KCAL/MOL
REMARK 924 INTRA-LIGAND FREE ENERGY PREDICTED BY IDOCK:   -0.47 KCAL/MOL
REMARK 927      BINDING AFFINITY PREDICTED BY RF-SCORE:    0.00 PKD
ROOT
HETATM    1  F   UNL     1     -10.503  14.488  68.179  1.00  0.00    -0.226 F  
HETATM    2  C   UNL     1     -11.307  13.578  68.797  1.00  0.00    -0.290 C  
HETATM    3  C   UNL     1     -10.741  12.179  68.805  1.00  0.00    -0.252 A  
HETATM    4  F   UNL     1     -11.531  14.062  70.048  1.00  0.00    -0.296 F  
HETATM    5  F   UNL     1     -12.505  13.641  68.149  1.00  0.00    -0.331 F  
HETATM    6  C   UNL     1      -9.493  11.904  68.235  1.00  0.00    -0.197 A  
HETATM    7  C   UNL     1      -9.033  10.589  68.149  1.00  0.00    -0.138 A  
HETATM    8  C   UNL     1      -9.809   9.522  68.628  1.00  0.00    -0.173 A  
HETATM    9  C   UNL     1     -11.021   9.800  69.271  1.00  0.00    -0.222 A  
HETATM   10  C   UNL     1     -11.483  11.120  69.354  1.00  0.00    -0.368 A  
ENDROOT
BRANCH   8  11
HETATM   11  C   UNL     1      -9.304   8.143  68.359  1.00  0.00    -0.135 C  
HETATM   12  O   UNL     1      -9.166   7.363  69.302  1.00  0.00    -0.148 OA 
HETATM   13  N   UNL     1      -8.980   7.817  67.059  1.00  0.00    -0.125 N  
HETATM   14  H   UNL     1      -9.113   8.489  66.303  1.00  0.00     0.000 HD 
BRANCH  13  15
HETATM   15  N   UNL     1      -8.468   6.548  66.803  1.00  0.00    -0.111 N  
HETATM   16  C   UNL     1      -7.180   6.411  66.340  1.00  0.00    -0.073 C  
HETATM   17  C   UNL     1      -6.995   4.979  65.897  1.00  0.00    -0.066 C  
HETATM   18  O   UNL     1      -6.347   7.300  66.234  1.00  0.00    -0.039 OA 
HETATM   19  C   UNL     1      -8.424   4.360  66.018  1.00  0.00    -0.113 C  
HETATM   20  C   UNL     1      -8.884   3.820  64.635  1.00  0.00    -0.120 C  
HETATM   21  C   UNL     1      -9.298   5.503  66.457  1.00  0.00    -0.147 C  
HETATM   22  O   UNL     1     -10.519   5.489  66.400  1.00  0.00    -0.245 OA 
HETATM   23  C   UNL     1      -8.791   4.997  63.660  1.00  0.00    -0.025 C  
HETATM   24  C   UNL     1      -7.559   5.529  63.551  1.00  0.00    -0.071 C  
HETATM   25  C   UNL     1      -6.506   4.847  64.421  1.00  0.00    -0.038 C  
HETATM   26  C   UNL     1      -6.473   3.328  64.143  1.00  0.00    -0.031 C  
HETATM   27  C   UNL     1      -7.132   2.649  62.960  1.00  0.00    -0.036 C  
HETATM   28  C   UNL     1      -7.864   2.731  64.278  1.00  0.00    -0.077 C  
ENDBRANCH  13  15
ENDBRANCH   8  11
TORSDOF 2
ENDMDL
MODEL      109
REMARK 921   NORMALIZED FREE ENERGY PREDICTED BY IDOCK:   -3.68 KCAL/MOL
REMARK 922        TOTAL FREE ENERGY PREDICTED BY IDOCK:   -4.56 KCAL/MOL
REMARK 923 INTER-LIGAND FREE ENERGY PREDICTED BY IDOCK:   -4.07 KCAL/MOL
REMARK 924 INTRA-LIGAND FREE ENERGY PREDICTED BY IDOCK:   -0.49 KCAL/MOL
REMARK 927      BINDING AFFINITY PREDICTED BY RF-SCORE:    0.00 PKD
ROOT
HETATM    1  F   UNL     1      -6.086  19.483  67.761  1.00  0.00    -0.201 F  
HETATM    2  C   UNL     1      -7.322  18.977  68.029  1.00  0.00    -0.254 C  
HETATM    3  C   UNL     1      -7.357  17.469  68.089  1.00  0.00    -0.218 A  
HETATM    4  F   UNL     1      -7.725  19.559  69.190  1.00  0.00    -0.384 F  
HETATM    5  F   UNL     1      -8.142  19.469  67.057  1.00  0.00    -0.266 F  
HETATM    6  C   UNL     1      -6.194  16.714  67.900  1.00  0.00    -0.148 A  
HETATM    7  C   UNL     1      -6.260  15.321  67.847  1.00  0.00    -0.170 A  
HETATM    8  C   UNL     1      -7.488  14.653  67.978  1.00  0.00    -0.137 A  
HETATM    9  C   UNL     1      -8.641  15.400  68.245  1.00  0.00    -0.158 A  
HETATM   10  C   UNL     1      -8.574  16.798  68.296  1.00  0.00    -0.226 A  
ENDROOT
BRANCH   8  11
HETATM   11  C   UNL     1      -7.483  13.176  67.758  1.00  0.00    -0.150 C  
HETATM   12  O   UNL     1      -7.213  12.740  66.639  1.00  0.00     0.326 OA 
HETATM   13  N   UNL     1      -7.818  12.365  68.822  1.00  0.00    -0.306 N  
HETATM   14  H   UNL     1      -8.031  12.764  69.736  1.00  0.00     0.000 HD 
BRANCH  13  15
HETATM   15  N   UNL     1      -7.859  10.989  68.617  1.00  0.00    -0.128 N  
HETATM   16  C   UNL     1      -9.071  10.347  68.524  1.00  0.00    -0.145 C  
HETATM   17  C   UNL     1      -8.816   8.859  68.581  1.00  0.00    -0.137 C  
HETATM   18  O   UNL     1     -10.173  10.876  68.477  1.00  0.00    -0.170 OA 
HETATM   19  C   UNL     1      -7.289   8.752  68.892  1.00  0.00    -0.078 C  
HETATM   20  C   UNL     1      -7.073   7.964  70.214  1.00  0.00    -0.049 C  
HETATM   21  C   UNL     1      -6.830  10.176  69.043  1.00  0.00    -0.056 C  
HETATM   22  O   UNL     1      -5.767  10.500  69.552  1.00  0.00    -0.037 OA 
HETATM   23  C   UNL     1      -7.882   8.698  71.289  1.00  0.00    -0.156 C  
HETATM   24  C   UNL     1      -9.199   8.788  71.025  1.00  0.00    -0.278 C  
HETATM   25  C   UNL     1      -9.617   8.137  69.709  1.00  0.00    -0.171 C  
HETATM   26  C   UNL     1      -9.147   6.666  69.656  1.00  0.00    -0.142 C  
HETATM   27  C   UNL     1      -8.646   5.874  70.847  1.00  0.00    -0.131 C  
HETATM   28  C   UNL     1      -7.657   6.572  69.945  1.00  0.00    -0.100 C  
ENDBRANCH  13  15
ENDBRANCH   8  11
TORSDOF 2
ENDMDL
MODEL      110
REMARK 921   NORMALIZED FREE ENERGY PREDICTED BY IDOCK:   -3.63 KCAL/MOL
REMARK 922        TOTAL FREE ENERGY PREDICTED BY IDOCK:   -4.50 KCAL/MOL
REMARK 923 INTER-LIGAND FREE ENERGY PREDICTED BY IDOCK:   -4.12 KCAL/MOL
REMARK 924 INTRA-LIGAND FREE ENERGY PREDICTED BY IDOCK:   -0.39 KCAL/MOL
REMARK 927      BINDING AFFINITY PREDICTED BY RF-SCORE:    0.00 PKD
ROOT
HETATM    1  F   UNL     1      -7.957   3.334  74.479  1.00  0.00    -0.061 F  
HETATM    2  C   UNL     1      -8.682   3.172  73.337  1.00  0.00    -0.077 C  
HETATM    3  C   UNL     1      -8.366   4.194  72.272  1.00  0.00    -0.102 A  
HETATM    4  F   UNL     1      -8.457   1.896  72.924  1.00  0.00    -0.057 F  
HETATM    5  F   UNL     1      -9.990   3.220  73.719  1.00  0.00    -0.126 F  
HETATM    6  C   UNL     1      -7.395   5.179  72.485  1.00  0.00    -0.094 A  
HETATM    7  C   UNL     1      -7.193   6.184  71.538  1.00  0.00    -0.087 A  
HETATM    8  C   UNL     1      -7.956   6.229  70.361  1.00  0.00    -0.111 A  
HETATM    9  C   UNL     1      -8.872   5.201  70.108  1.00  0.00    -0.139 A  
HETATM   10  C   UNL     1      -9.077   4.195  71.060  1.00  0.00    -0.178 A  
ENDROOT
BRANCH   8  11
HETATM   11  C   UNL     1      -7.774   7.421  69.480  1.00  0.00    -0.108 C  
HETATM   12  O   UNL     1      -6.646   7.695  69.072  1.00  0.00    -0.045 OA 
HETATM   13  N   UNL     1      -8.886   8.184  69.192  1.00  0.00    -0.144 N  
HETATM   14  H   UNL     1      -9.807   7.922  69.545  1.00  0.00     0.000 HD 
BRANCH  13  15
HETATM   15  N   UNL     1      -8.721   9.322  68.407  1.00  0.00    -0.128 N  
HETATM   16  C   UNL     1      -8.398  10.521  68.999  1.00  0.00    -0.154 C  
HETATM   17  C   UNL     1      -8.554  11.608  67.963  1.00  0.00    -0.152 C  
HETATM   18  O   UNL     1      -8.106  10.696  70.174  1.00  0.00     0.148 OA 
HETATM   19  C   UNL     1      -9.179  10.872  66.736  1.00  0.00    -0.174 C  
HETATM   20  C   UNL     1     -10.542  11.522  66.367  1.00  0.00    -0.304 C  
HETATM   21  C   UNL     1      -9.378   9.456  67.202  1.00  0.00    -0.139 C  
HETATM   22  O   UNL     1     -10.087   8.642  66.628  1.00  0.00    -0.263 OA 
HETATM   23  C   UNL     1     -11.401  11.470  67.635  1.00  0.00    -0.358 C  
HETATM   24  C   UNL     1     -10.866  12.107  68.693  1.00  0.00    -0.268 C  
HETATM   25  C   UNL     1      -9.513  12.756  68.411  1.00  0.00    -0.162 C  
HETATM   26  C   UNL     1      -9.606  13.700  67.192  1.00  0.00    -0.241 C  
HETATM   27  C   UNL     1     -10.899  14.183  66.567  1.00  0.00    -0.298 C  
HETATM   28  C   UNL     1     -10.201  12.972  65.998  1.00  0.00    -0.292 C  
ENDBRANCH  13  15
ENDBRANCH   8  11
TORSDOF 2
ENDMDL
MODEL      111
REMARK 921   NORMALIZED FREE ENERGY PREDICTED BY IDOCK:   -3.19 KCAL/MOL
REMARK 922        TOTAL FREE ENERGY PREDICTED BY IDOCK:   -4.01 KCAL/MOL
REMARK 923 INTER-LIGAND FREE ENERGY PREDICTED BY IDOCK:   -3.81 KCAL/MOL
REMARK 924 INTRA-LIGAND FREE ENERGY PREDICTED BY IDOCK:   -0.21 KCAL/MOL
REMARK 927      BINDING AFFINITY PREDICTED BY RF-SCORE:    0.00 PKD
ROOT
HETATM    1  F   UNL     1      -7.474   4.855  73.446  1.00  0.00    -0.080 F  
HETATM    2  C   UNL     1      -7.056   4.707  72.158  1.00  0.00    -0.066 C  
HETATM    3  C   UNL     1      -7.000   6.005  71.388  1.00  0.00    -0.072 A  
HETATM    4  F   UNL     1      -5.850   4.082  72.222  1.00  0.00    -0.007 F  
HETATM    5  F   UNL     1      -7.914   3.813  71.591  1.00  0.00    -0.058 F  
HETATM    6  C   UNL     1      -7.337   7.218  71.999  1.00  0.00    -0.079 A  
HETATM    7  C   UNL     1      -7.390   8.393  71.247  1.00  0.00    -0.088 A  
HETATM    8  C   UNL     1      -7.110   8.381  69.871  1.00  0.00    -0.051 A  
HETATM    9  C   UNL     1      -6.695   7.185  69.274  1.00  0.00    -0.049 A  
HETATM   10  C   UNL     1      -6.646   6.005  70.029  1.00  0.00    -0.040 A  
ENDROOT
BRANCH   8  11
HETATM   11  C   UNL     1      -7.336   9.652  69.122  1.00  0.00    -0.077 C  
HETATM   12  O   UNL     1      -6.376  10.386  68.887  1.00  0.00    -0.046 OA 
HETATM   13  N   UNL     1      -8.629   9.963  68.756  1.00  0.00    -0.125 N  
HETATM   14  H   UNL     1      -9.399   9.327  68.965  1.00  0.00     0.000 HD 
BRANCH  13  15
HETATM   15  N   UNL     1      -8.858  11.167  68.095  1.00  0.00    -0.142 N  
HETATM   16  C   UNL     1      -9.873  11.995  68.514  1.00  0.00    -0.172 C  
HETATM   17  C   UNL     1     -10.062  13.066  67.466  1.00  0.00    -0.218 C  
HETATM   18  O   UNL     1     -10.558  11.856  69.518  1.00  0.00     0.023 OA 
HETATM   19  C   UNL     1      -9.116  12.626  66.304  1.00  0.00    -0.053 C  
HETATM   20  C   UNL     1      -9.939  12.422  65.001  1.00  0.00    -0.219 C  
HETATM   21  C   UNL     1      -8.525  11.322  66.766  1.00  0.00    -0.161 C  
HETATM   22  O   UNL     1      -7.951  10.534  66.030  1.00  0.00    -0.139 OA 
HETATM   23  C   UNL     1     -11.034  11.405  65.338  1.00  0.00    -0.249 C  
HETATM   24  C   UNL     1     -11.853  11.784  66.337  1.00  0.00     0.002 C  
HETATM   25  C   UNL     1     -11.524  13.153  66.927  1.00  0.00    -0.384 C  
HETATM   26  C   UNL     1     -11.480  14.227  65.818  1.00  0.00    -0.335 C  
HETATM   27  C   UNL     1     -12.008  14.040  64.410  1.00  0.00    -0.480 C  
HETATM   28  C   UNL     1     -10.546  13.798  64.698  1.00  0.00    -0.443 C  
ENDBRANCH  13  15
ENDBRANCH   8  11
TORSDOF 2
ENDMDL
MODEL      112
REMARK 921   NORMALIZED FREE ENERGY PREDICTED BY IDOCK:   -2.02 KCAL/MOL
REMARK 922        TOTAL FREE ENERGY PREDICTED BY IDOCK:   -2.71 KCAL/MOL
REMARK 923 INTER-LIGAND FREE ENERGY PREDICTED BY IDOCK:   -3.66 KCAL/MOL
REMARK 924 INTRA-LIGAND FREE ENERGY PREDICTED BY IDOCK:    0.96 KCAL/MOL
REMARK 927      BINDING AFFINITY PREDICTED BY RF-SCORE:    0.00 PKD
ROOT
HETATM    1  F   UNL     1     -11.758  14.684  67.674  1.00  0.00    -0.328 F  
HETATM    2  C   UNL     1     -11.525  14.063  66.485  1.00  0.00    -0.357 C  
HETATM    3  C   UNL     1     -11.367  12.566  66.605  1.00  0.00    -0.389 A  
HETATM    4  F   UNL     1     -12.551  14.419  65.665  1.00  0.00    -0.426 F  
HETATM    5  F   UNL     1     -10.410  14.654  65.970  1.00  0.00    -0.266 F  
HETATM    6  C   UNL     1     -11.481  11.929  67.846  1.00  0.00    -0.385 A  
HETATM    7  C   UNL     1     -11.222  10.562  67.961  1.00  0.00    -0.361 A  
HETATM    8  C   UNL     1     -10.843   9.805  66.841  1.00  0.00    -0.120 A  
HETATM    9  C   UNL     1     -10.805  10.422  65.586  1.00  0.00     0.141 A  
HETATM   10  C   UNL     1     -11.062  11.795  65.472  1.00  0.00    -0.336 A  
ENDROOT
BRANCH   8  11
HETATM   11  C   UNL     1     -10.442   8.387  67.087  1.00  0.00    -0.310 C  
HETATM   12  O   UNL     1     -10.651   7.891  68.193  1.00  0.00    -0.194 OA 
HETATM   13  N   UNL     1      -9.818   7.708  66.061  1.00  0.00    -0.422 N  
HETATM   14  H   UNL     1      -9.666   8.152  65.156  1.00  0.00     0.000 HD 
BRANCH  13  15
HETATM   15  N   UNL     1      -9.402   6.399  66.293  1.00  0.00    -0.148 N  
HETATM   16  C   UNL     1      -8.566   6.125  67.351  1.00  0.00    -0.106 C  
HETATM   17  C   UNL     1      -8.069   4.708  67.195  1.00  0.00    -0.102 C  
HETATM   18  O   UNL     1      -8.223   6.906  68.228  1.00  0.00    -0.121 OA 
HETATM   19  C   UNL     1      -8.611   4.270  65.798  1.00  0.00    -0.114 C  
HETATM   20  C   UNL     1      -7.427   3.869  64.874  1.00  0.00    -0.076 C  
HETATM   21  C   UNL     1      -9.311   5.489  65.261  1.00  0.00     0.126 C  
HETATM   22  O   UNL     1      -9.629   5.634  64.090  1.00  0.00     0.805 OA 
HETATM   23  C   UNL     1      -6.485   5.077  64.831  1.00  0.00    -0.035 C  
HETATM   24  C   UNL     1      -6.014   5.453  66.034  1.00  0.00    -0.022 C  
HETATM   25  C   UNL     1      -6.512   4.596  67.195  1.00  0.00    -0.042 C  
HETATM   26  C   UNL     1      -6.217   3.102  66.935  1.00  0.00    -0.025 C  
HETATM   27  C   UNL     1      -5.282   2.578  65.864  1.00  0.00    -0.008 C  
HETATM   28  C   UNL     1      -6.761   2.680  65.579  1.00  0.00    -0.039 C  
ENDBRANCH  13  15
ENDBRANCH   8  11
TORSDOF 2
ENDMDL
MODEL      113
REMARK 921   NORMALIZED FREE ENERGY PREDICTED BY IDOCK:   -0.72 KCAL/MOL
REMARK 922        TOTAL FREE ENERGY PREDICTED BY IDOCK:   -1.25 KCAL/MOL
REMARK 923 INTER-LIGAND FREE ENERGY PREDICTED BY IDOCK:   -0.96 KCAL/MOL
REMARK 924 INTRA-LIGAND FREE ENERGY PREDICTED BY IDOCK:   -0.29 KCAL/MOL
REMARK 927      BINDING AFFINITY PREDICTED BY RF-SCORE:    0.00 PKD
ROOT
HETATM    1  F   UNL     1      -7.871   6.591  69.458  1.00  0.00    -0.096 F  
HETATM    2  C   UNL     1      -7.590   7.285  68.320  1.00  0.00    -0.118 C  
HETATM    3  C   UNL     1      -7.562   8.782  68.517  1.00  0.00    -0.098 A  
HETATM    4  F   UNL     1      -6.408   6.793  67.860  1.00  0.00    -0.038 F  
HETATM    5  F   UNL     1      -8.534   6.906  67.413  1.00  0.00    -0.118 F  
HETATM    6  C   UNL     1      -7.790   9.346  69.777  1.00  0.00    -0.115 A  
HETATM    7  C   UNL     1      -7.873  10.731  69.923  1.00  0.00     0.273 A  
HETATM    8  C   UNL     1      -7.733  11.581  68.815  1.00  0.00    -0.124 A  
HETATM    9  C   UNL     1      -7.426  11.025  67.568  1.00  0.00    -0.102 A  
HETATM   10  C   UNL     1      -7.346   9.634  67.422  1.00  0.00    -0.087 A  
ENDROOT
BRANCH   8  11
HETATM   11  C   UNL     1      -7.985  13.036  69.040  1.00  0.00     0.297 C  
HETATM   12  O   UNL     1      -8.761  13.376  69.933  1.00  0.00     1.823 OA 
HETATM   13  N   UNL     1      -7.356  13.936  68.206  1.00  0.00    -0.104 N  
HETATM   14  H   UNL     1      -6.715  13.616  67.480  1.00  0.00     0.000 HD 
BRANCH  13  15
HETATM   15  N   UNL     1      -7.617  15.292  68.379  1.00  0.00    -0.112 N  
HETATM   16  C   UNL     1      -8.748  15.847  67.827  1.00  0.00    -0.170 C  
HETATM   17  C   UNL     1      -8.631  17.348  67.936  1.00  0.00    -0.232 C  
HETATM   18  O   UNL     1      -9.660  15.245  67.276  1.00  0.00    -0.209 OA 
HETATM   19  C   UNL     1      -7.185  17.574  68.481  1.00  0.00    -0.240 C  
HETATM   20  C   UNL     1      -6.375  18.450  67.485  1.00  0.00    -0.189 C  
HETATM   21  C   UNL     1      -6.593  16.195  68.574  1.00  0.00    -0.122 C  
HETATM   22  O   UNL     1      -5.398  15.972  68.699  1.00  0.00    -0.098 OA 
HETATM   23  C   UNL     1      -6.431  17.730  66.134  1.00  0.00    -0.295 C  
HETATM   24  C   UNL     1      -7.677  17.538  65.660  1.00  0.00     0.357 C  
HETATM   25  C   UNL     1      -8.779  18.082  66.566  1.00  0.00    -0.279 C  
HETATM   26  C   UNL     1      -8.537  19.575  66.882  1.00  0.00    -0.341 C  
HETATM   27  C   UNL     1      -7.556  20.467  66.148  1.00  0.00    -0.171 C  
HETATM   28  C   UNL     1      -7.133  19.783  67.426  1.00  0.00    -0.252 C  
ENDBRANCH  13  15
ENDBRANCH   8  11
TORSDOF 2
ENDMDL
MODEL      114
REMARK 921   NORMALIZED FREE ENERGY PREDICTED BY IDOCK:   -0.53 KCAL/MOL
REMARK 922        TOTAL FREE ENERGY PREDICTED BY IDOCK:   -1.04 KCAL/MOL
REMARK 923 INTER-LIGAND FREE ENERGY PREDICTED BY IDOCK:   -1.23 KCAL/MOL
REMARK 924 INTRA-LIGAND FREE ENERGY PREDICTED BY IDOCK:    0.19 KCAL/MOL
REMARK 927      BINDING AFFINITY PREDICTED BY RF-SCORE:    0.00 PKD
ROOT
HETATM    1  F   UNL     1     -11.590  16.588  65.279  1.00  0.00     0.063 F  
HETATM    2  C   UNL     1     -11.404  16.564  66.628  1.00  0.00     0.548 C  
HETATM    3  C   UNL     1     -10.602  15.377  67.107  1.00  0.00    -0.305 A  
HETATM    4  F   UNL     1     -10.828  17.752  66.951  1.00  0.00    -0.312 F  
HETATM    5  F   UNL     1     -12.653  16.590  67.175  1.00  0.00     1.706 F  
HETATM    6  C   UNL     1     -10.104  14.434  66.201  1.00  0.00    -0.323 A  
HETATM    7  C   UNL     1      -9.461  13.285  66.665  1.00  0.00    -0.262 A  
HETATM    8  C   UNL     1      -9.306  13.053  68.040  1.00  0.00    -0.213 A  
HETATM    9  C   UNL     1      -9.732  14.031  68.946  1.00  0.00    -0.049 A  
HETATM   10  C   UNL     1     -10.379  15.182  68.480  1.00  0.00    -0.230 A  
ENDROOT
BRANCH   8  11
HETATM   11  C   UNL     1      -8.742  11.730  68.445  1.00  0.00    -0.155 C  
HETATM   12  O   UNL     1      -9.507  10.853  68.848  1.00  0.00    -0.188 OA 
HETATM   13  N   UNL     1      -7.375  11.566  68.380  1.00  0.00    -0.090 N  
HETATM   14  H   UNL     1      -6.773  12.314  68.036  1.00  0.00     0.000 HD 
BRANCH  13  15
HETATM   15  N   UNL     1      -6.835  10.351  68.796  1.00  0.00    -0.057 N  
HETATM   16  C   UNL     1      -7.174   9.192  68.138  1.00  0.00    -0.079 C  
HETATM   17  C   UNL     1      -6.672   8.028  68.959  1.00  0.00    -0.052 C  
HETATM   18  O   UNL     1      -7.828   9.104  67.108  1.00  0.00    -0.101 OA 
HETATM   19  C   UNL     1      -6.145   8.692  70.270  1.00  0.00    -0.033 C  
HETATM   20  C   UNL     1      -6.902   8.113  71.498  1.00  0.00    -0.060 C  
HETATM   21  C   UNL     1      -6.447  10.156  70.105  1.00  0.00    -0.118 C  
HETATM   22  O   UNL     1      -6.434  10.964  71.021  1.00  0.00    -0.265 OA 
HETATM   23  C   UNL     1      -8.393   8.346  71.232  1.00  0.00    -0.174 C  
HETATM   24  C   UNL     1      -8.851   7.770  70.105  1.00  0.00    -0.145 C  
HETATM   25  C   UNL     1      -7.790   7.001  69.323  1.00  0.00    -0.114 C  
HETATM   26  C   UNL     1      -7.097   5.957  70.228  1.00  0.00    -0.074 C  
HETATM   27  C   UNL     1      -7.604   5.516  71.585  1.00  0.00    -0.098 C  
HETATM   28  C   UNL     1      -6.573   6.615  71.494  1.00  0.00    -0.054 C  
ENDBRANCH  13  15
ENDBRANCH   8  11
TORSDOF 2
ENDMDL
MODEL      115
REMARK 921   NORMALIZED FREE ENERGY PREDICTED BY IDOCK:    1.02 KCAL/MOL
REMARK 922        TOTAL FREE ENERGY PREDICTED BY IDOCK:    0.69 KCAL/MOL
REMARK 923 INTER-LIGAND FREE ENERGY PREDICTED BY IDOCK:   -1.99 KCAL/MOL
REMARK 924 INTRA-LIGAND FREE ENERGY PREDICTED BY IDOCK:    2.69 KCAL/MOL
REMARK 927      BINDING AFFINITY PREDICTED BY RF-SCORE:    0.00 PKD
ROOT
HETATM    1  F   UNL     1     -13.068  13.087  67.268  1.00  0.00     0.799 F  
HETATM    2  C   UNL     1     -12.055  12.649  66.470  1.00  0.00    -0.225 C  
HETATM    3  C   UNL     1     -11.474  11.325  66.901  1.00  0.00    -0.123 A  
HETATM    4  F   UNL     1     -12.557  12.616  65.206  1.00  0.00    -0.516 F  
HETATM    5  F   UNL     1     -11.122  13.643  66.477  1.00  0.00    -0.294 F  
HETATM    6  C   UNL     1     -11.983  10.644  68.013  1.00  0.00     0.438 A  
HETATM    7  C   UNL     1     -11.365   9.478  68.468  1.00  0.00     0.188 A  
HETATM    8  C   UNL     1     -10.226   8.969  67.825  1.00  0.00    -0.284 A  
HETATM    9  C   UNL     1      -9.762   9.602  66.666  1.00  0.00    -0.266 A  
HETATM   10  C   UNL     1     -10.381  10.774  66.212  1.00  0.00    -0.303 A  
ENDROOT
BRANCH   8  11
HETATM   11  C   UNL     1      -9.547   7.805  68.469  1.00  0.00    -0.149 C  
HETATM   12  O   UNL     1     -10.125   6.719  68.501  1.00  0.00    -0.151 OA 
HETATM   13  N   UNL     1      -8.307   8.016  69.034  1.00  0.00    -0.128 N  
HETATM   14  H   UNL     1      -7.857   8.930  68.983  1.00  0.00     0.000 HD 
BRANCH  13  15
HETATM   15  N   UNL     1      -7.683   6.948  69.675  1.00  0.00    -0.108 N  
HETATM   16  C   UNL     1      -8.441   6.017  70.346  1.00  0.00    -0.132 C  
HETATM   17  C   UNL     1      -7.505   5.153  71.158  1.00  0.00    -0.079 C  
HETATM   18  O   UNL     1      -9.662   5.937  70.349  1.00  0.00    -0.167 OA 
HETATM   19  C   UNL     1      -6.114   5.840  70.983  1.00  0.00    -0.033 C  
HETATM   20  C   UNL     1      -5.549   6.251  72.372  1.00  0.00    -0.036 C  
HETATM   21  C   UNL     1      -6.391   7.057  70.145  1.00  0.00    -0.035 C  
HETATM   22  O   UNL     1      -5.614   7.992  70.018  1.00  0.00    -0.023 OA 
HETATM   23  C   UNL     1      -6.611   7.143  73.022  1.00  0.00    -0.064 C  
HETATM   24  C   UNL     1      -7.810   6.551  73.177  1.00  0.00    -0.100 C  
HETATM   25  C   UNL     1      -7.865   5.110  72.676  1.00  0.00    -0.098 C  
HETATM   26  C   UNL     1      -6.749   4.264  73.329  1.00  0.00    -0.053 C  
HETATM   27  C   UNL     1      -5.931   4.690  74.532  1.00  0.00    -0.042 C  
HETATM   28  C   UNL     1      -5.396   4.932  73.141  1.00  0.00    -0.009 C  
ENDBRANCH  13  15
ENDBRANCH   8  11
TORSDOF 2
ENDMDL
MODEL      116
REMARK 921   NORMALIZED FREE ENERGY PREDICTED BY IDOCK:    3.85 KCAL/MOL
REMARK 922        TOTAL FREE ENERGY PREDICTED BY IDOCK:    3.85 KCAL/MOL
REMARK 923 INTER-LIGAND FREE ENERGY PREDICTED BY IDOCK:    3.99 KCAL/MOL
REMARK 924 INTRA-LIGAND FREE ENERGY PREDICTED BY IDOCK:   -0.14 KCAL/MOL
REMARK 927      BINDING AFFINITY PREDICTED BY RF-SCORE:    0.00 PKD
ROOT
HETATM    1  F   UNL     1     -13.143   9.795  67.549  1.00  0.00     6.339 F  
HETATM    2  C   UNL     1     -12.030   9.784  68.335  1.00  0.00     1.493 C  
HETATM    3  C   UNL     1     -11.295  11.103  68.360  1.00  0.00    -0.357 A  
HETATM    4  F   UNL     1     -12.443   9.389  69.569  1.00  0.00     0.529 F  
HETATM    5  F   UNL     1     -11.250   8.773  67.857  1.00  0.00    -0.096 F  
HETATM    6  C   UNL     1     -11.770  12.205  67.641  1.00  0.00    -0.386 A  
HETATM    7  C   UNL     1     -11.023  13.382  67.582  1.00  0.00    -0.277 A  
HETATM    8  C   UNL     1      -9.785  13.483  68.237  1.00  0.00    -0.224 A  
HETATM    9  C   UNL     1      -9.344  12.411  69.022  1.00  0.00     0.402 A  
HETATM   10  C   UNL     1     -10.094  11.229  69.077  1.00  0.00    -0.147 A  
ENDROOT
BRANCH   8  11
HETATM   11  C   UNL     1      -8.989  14.723  67.995  1.00  0.00    -0.174 C  
HETATM   12  O   UNL     1      -9.381  15.787  68.475  1.00  0.00    -0.188 OA 
HETATM   13  N   UNL     1      -7.861  14.621  67.209  1.00  0.00    -0.236 N  
HETATM   14  H   UNL     1      -7.565  13.720  66.832  1.00  0.00     0.000 HD 
BRANCH  13  15
HETATM   15  N   UNL     1      -7.135  15.779  66.942  1.00  0.00    -0.131 N  
HETATM   16  C   UNL     1      -6.264  16.272  67.885  1.00  0.00    -0.126 C  
HETATM   17  C   UNL     1      -5.837  17.653  67.447  1.00  0.00    -0.161 C  
HETATM   18  O   UNL     1      -5.940  15.729  68.932  1.00  0.00    -0.105 OA 
HETATM   19  C   UNL     1      -6.728  17.943  66.198  1.00  0.00    -0.315 C  
HETATM   20  C   UNL     1      -7.575  19.224  66.438  1.00  0.00    -0.278 C  
HETATM   21  C   UNL     1      -7.617  16.737  66.075  1.00  0.00     0.053 C  
HETATM   22  O   UNL     1      -8.630  16.701  65.392  1.00  0.00     0.004 OA 
HETATM   23  C   UNL     1      -8.364  18.982  67.730  1.00  0.00    -0.318 C  
HETATM   24  C   UNL     1      -7.597  18.736  68.808  1.00  0.00    -0.343 C  
HETATM   25  C   UNL     1      -6.097  18.752  68.524  1.00  0.00    -0.225 C  
HETATM   26  C   UNL     1      -5.685  20.080  67.852  1.00  0.00    -0.227 C  
HETATM   27  C   UNL     1      -6.551  21.320  67.782  1.00  0.00    -0.237 C  
HETATM   28  C   UNL     1      -6.547  20.347  66.628  1.00  0.00    -0.277 C  
ENDBRANCH  13  15
ENDBRANCH   8  11
TORSDOF 2
ENDMDL
MODEL      117
REMARK 921   NORMALIZED FREE ENERGY PREDICTED BY IDOCK:    7.03 KCAL/MOL
REMARK 922        TOTAL FREE ENERGY PREDICTED BY IDOCK:    7.40 KCAL/MOL
REMARK 923 INTER-LIGAND FREE ENERGY PREDICTED BY IDOCK:    7.82 KCAL/MOL
REMARK 924 INTRA-LIGAND FREE ENERGY PREDICTED BY IDOCK:   -0.42 KCAL/MOL
REMARK 927      BINDING AFFINITY PREDICTED BY RF-SCORE:    0.00 PKD
ROOT
HETATM    1  F   UNL     1     -13.937   6.778  72.979  1.00  0.00     0.751 F  
HETATM    2  C   UNL     1     -12.814   6.931  72.224  1.00  0.00     0.074 C  
HETATM    3  C   UNL     1     -12.592   8.348  71.752  1.00  0.00    -0.378 A  
HETATM    4  F   UNL     1     -11.785   6.461  72.978  1.00  0.00    -0.179 F  
HETATM    5  F   UNL     1     -12.946   6.061  71.182  1.00  0.00     0.340 F  
HETATM    6  C   UNL     1     -13.479   9.371  72.107  1.00  0.00    -0.543 A  
HETATM    7  C   UNL     1     -13.325  10.652  71.573  1.00  0.00    -0.359 A  
HETATM    8  C   UNL     1     -12.285  10.937  70.674  1.00  0.00    -0.472 A  
HETATM    9  C   UNL     1     -11.351   9.938  70.379  1.00  0.00    -0.376 A  
HETATM   10  C   UNL     1     -11.508   8.652  70.913  1.00  0.00    -0.315 A  
ENDROOT
BRANCH   8  11
HETATM   11  C   UNL     1     -12.288  12.289  70.041  1.00  0.00    -0.089 C  
HETATM   12  O   UNL     1     -13.006  12.489  69.061  1.00  0.00     1.057 OA 
HETATM   13  N   UNL     1     -11.451  13.250  70.569  1.00  0.00    -0.397 N  
HETATM   14  H   UNL     1     -10.874  13.048  71.385  1.00  0.00     0.000 HD 
BRANCH  13  15
HETATM   15  N   UNL     1     -11.414  14.501  69.960  1.00  0.00    -0.266 N  
HETATM   16  C   UNL     1     -10.497  14.751  68.965  1.00  0.00    -0.249 C  
HETATM   17  C   UNL     1     -10.501  16.236  68.691  1.00  0.00    -0.282 C  
HETATM   18  O   UNL     1      -9.754  13.934  68.439  1.00  0.00    -0.222 OA 
HETATM   19  C   UNL     1     -11.434  16.820  69.798  1.00  0.00     0.414 C  
HETATM   20  C   UNL     1     -10.655  17.856  70.655  1.00  0.00     1.882 C  
HETATM   21  C   UNL     1     -11.826  15.632  70.633  1.00  0.00    -0.376 C  
HETATM   22  O   UNL     1     -12.326  15.714  71.745  1.00  0.00    -0.356 OA 
HETATM   23  C   UNL     1      -9.421  17.126  71.196  1.00  0.00     5.645 C  
HETATM   24  C   UNL     1      -8.612  16.625  70.244  1.00  0.00     2.369 C  
HETATM   25  C   UNL     1      -9.090  16.891  68.818  1.00  0.00    -0.254 C  
HETATM   26  C   UNL     1      -9.327  18.401  68.596  1.00  0.00    -0.339 C  
HETATM   27  C   UNL     1      -8.846  19.498  69.524  1.00  0.00     0.274 C  
HETATM   28  C   UNL     1     -10.249  18.959  69.668  1.00  0.00     0.464 C  
ENDBRANCH  13  15
ENDBRANCH   8  11
TORSDOF 2
ENDMDL
MODEL      118
REMARK 921   NORMALIZED FREE ENERGY PREDICTED BY IDOCK:    8.05 KCAL/MOL
REMARK 922        TOTAL FREE ENERGY PREDICTED BY IDOCK:    8.54 KCAL/MOL
REMARK 923 INTER-LIGAND FREE ENERGY PREDICTED BY IDOCK:    5.33 KCAL/MOL
REMARK 924 INTRA-LIGAND FREE ENERGY PREDICTED BY IDOCK:    3.21 KCAL/MOL
REMARK 927      BINDING AFFINITY PREDICTED BY RF-SCORE:    0.00 PKD
ROOT
HETATM    1  F   UNL     1      -8.539   7.861  66.424  1.00  0.00    -0.120 F  
HETATM    2  C   UNL     1      -9.500   8.821  66.333  1.00  0.00    -0.228 C  
HETATM    3  C   UNL     1      -8.948  10.226  66.288  1.00  0.00    -0.172 A  
HETATM    4  F   UNL     1     -10.240   8.512  65.235  1.00  0.00     0.442 F  
HETATM    5  F   UNL     1     -10.319   8.628  67.405  1.00  0.00    -0.259 F  
HETATM    6  C   UNL     1      -7.569  10.458  66.318  1.00  0.00    -0.127 A  
HETATM    7  C   UNL     1      -7.076  11.762  66.390  1.00  0.00     0.218 A  
HETATM    8  C   UNL     1      -7.950  12.860  66.434  1.00  0.00     0.789 A  
HETATM    9  C   UNL     1      -9.327  12.636  66.324  1.00  0.00    -0.162 A  
HETATM   10  C   UNL     1      -9.820  11.327  66.255  1.00  0.00    -0.248 A  
ENDROOT
BRANCH   8  11
HETATM   11  C   UNL     1      -7.338  14.204  66.661  1.00  0.00     1.428 C  
HETATM   12  O   UNL     1      -6.117  14.328  66.565  1.00  0.00     1.746 OA 
HETATM   13  N   UNL     1      -8.177  15.243  67.004  1.00  0.00    -0.218 N  
HETATM   14  H   UNL     1      -9.185  15.103  67.068  1.00  0.00     0.000 HD 
BRANCH  13  15
HETATM   15  N   UNL     1      -7.613  16.490  67.259  1.00  0.00    -0.147 N  
HETATM   16  C   UNL     1      -6.318  16.574  67.714  1.00  0.00    -0.145 C  
HETATM   17  C   UNL     1      -6.073  17.996  68.159  1.00  0.00    -0.176 C  
HETATM   18  O   UNL     1      -5.520  15.653  67.814  1.00  0.00    -0.130 OA 
HETATM   19  C   UNL     1      -7.476  18.673  68.049  1.00  0.00    -0.268 C  
HETATM   20  C   UNL     1      -7.906  19.228  69.435  1.00  0.00    -0.041 C  
HETATM   21  C   UNL     1      -8.398  17.567  67.613  1.00  0.00    -0.214 C  
HETATM   22  O   UNL     1      -9.617  17.630  67.677  1.00  0.00    -0.260 OA 
HETATM   23  C   UNL     1      -7.854  18.045  70.408  1.00  0.00     3.101 C  
HETATM   24  C   UNL     1      -6.645  17.464  70.508  1.00  0.00     1.297 C  
HETATM   25  C   UNL     1      -5.570  18.105  69.633  1.00  0.00    -0.218 C  
HETATM   26  C   UNL     1      -5.474  19.622  69.914  1.00  0.00    -0.260 C  
HETATM   27  C   UNL     1      -6.099  20.323  71.102  1.00  0.00    -0.242 C  
HETATM   28  C   UNL     1      -6.842  20.274  69.789  1.00  0.00    -0.058 C  
ENDBRANCH  13  15
ENDBRANCH   8  11
TORSDOF 2
ENDMDL
MODEL      119
REMARK 921   NORMALIZED FREE ENERGY PREDICTED BY IDOCK:    9.12 KCAL/MOL
REMARK 922        TOTAL FREE ENERGY PREDICTED BY IDOCK:    9.73 KCAL/MOL
REMARK 923 INTER-LIGAND FREE ENERGY PREDICTED BY IDOCK:    8.23 KCAL/MOL
REMARK 924 INTRA-LIGAND FREE ENERGY PREDICTED BY IDOCK:    1.50 KCAL/MOL
REMARK 927      BINDING AFFINITY PREDICTED BY RF-SCORE:    0.00 PKD
ROOT
HETATM    1  F   UNL     1      -7.684   7.044  64.763  1.00  0.00    -0.085 F  
HETATM    2  C   UNL     1      -8.721   7.920  64.870  1.00  0.00     0.157 C  
HETATM    3  C   UNL     1      -8.290   9.330  65.193  1.00  0.00    -0.155 A  
HETATM    4  F   UNL     1      -9.410   7.835  63.700  1.00  0.00     1.038 F  
HETATM    5  F   UNL     1      -9.543   7.405  65.828  1.00  0.00    -0.070 F  
HETATM    6  C   UNL     1      -6.936   9.653  65.336  1.00  0.00    -0.095 A  
HETATM    7  C   UNL     1      -6.557  10.933  65.744  1.00  0.00    -0.005 A  
HETATM    8  C   UNL     1      -7.521  11.915  66.020  1.00  0.00     0.746 A  
HETATM    9  C   UNL     1      -8.872  11.620  65.802  1.00  0.00    -0.004 A  
HETATM   10  C   UNL     1      -9.251  10.335  65.395  1.00  0.00    -0.236 A  
ENDROOT
BRANCH   8  11
HETATM   11  C   UNL     1      -7.031  13.204  66.593  1.00  0.00     1.397 C  
HETATM   12  O   UNL     1      -6.254  13.177  67.547  1.00  0.00    -0.162 OA 
HETATM   13  N   UNL     1      -7.504  14.376  66.041  1.00  0.00     2.603 N  
HETATM   14  H   UNL     1      -8.143  14.359  65.246  1.00  0.00     0.000 HD 
BRANCH  13  15
HETATM   15  N   UNL     1      -7.087  15.583  66.595  1.00  0.00     0.338 N  
HETATM   16  C   UNL     1      -7.135  15.763  67.958  1.00  0.00    -0.123 C  
HETATM   17  C   UNL     1      -6.893  17.226  68.243  1.00  0.00    -0.184 C  
HETATM   18  O   UNL     1      -7.399  14.911  68.795  1.00  0.00    -0.112 OA 
HETATM   19  C   UNL     1      -6.868  17.886  66.828  1.00  0.00    -0.220 C  
HETATM   20  C   UNL     1      -7.971  18.977  66.733  1.00  0.00    -0.270 C  
HETATM   21  C   UNL     1      -7.157  16.758  65.876  1.00  0.00     0.581 C  
HETATM   22  O   UNL     1      -7.488  16.916  64.710  1.00  0.00     3.426 OA 
HETATM   23  C   UNL     1      -9.293  18.283  67.079  1.00  0.00    -0.274 C  
HETATM   24  C   UNL     1      -9.318  17.718  68.300  1.00  0.00    -0.288 C  
HETATM   25  C   UNL     1      -8.024  17.886  69.092  1.00  0.00     0.045 C  
HETATM   26  C   UNL     1      -7.636  19.378  69.188  1.00  0.00    -0.316 C  
HETATM   27  C   UNL     1      -8.553  20.535  68.850  1.00  0.00     0.827 C  
HETATM   28  C   UNL     1      -7.599  20.009  67.805  1.00  0.00    -0.328 C  
ENDBRANCH  13  15
ENDBRANCH   8  11
TORSDOF 2
ENDMDL
MODEL      120
REMARK 921   NORMALIZED FREE ENERGY PREDICTED BY IDOCK:    9.86 KCAL/MOL
REMARK 922        TOTAL FREE ENERGY PREDICTED BY IDOCK:   10.56 KCAL/MOL
REMARK 923 INTER-LIGAND FREE ENERGY PREDICTED BY IDOCK:    7.14 KCAL/MOL
REMARK 924 INTRA-LIGAND FREE ENERGY PREDICTED BY IDOCK:    3.42 KCAL/MOL
REMARK 927      BINDING AFFINITY PREDICTED BY RF-SCORE:    0.00 PKD
ROOT
HETATM    1  F   UNL     1      -7.397  20.976  65.352  1.00  0.00     0.028 F  
HETATM    2  C   UNL     1      -6.400  20.096  65.645  1.00  0.00    -0.228 C  
HETATM    3  C   UNL     1      -6.886  18.834  66.317  1.00  0.00    -0.254 A  
HETATM    4  F   UNL     1      -5.755  19.852  64.473  1.00  0.00    -0.187 F  
HETATM    5  F   UNL     1      -5.516  20.782  66.425  1.00  0.00    -0.188 F  
HETATM    6  C   UNL     1      -8.247  18.633  66.571  1.00  0.00    -0.301 A  
HETATM    7  C   UNL     1      -8.671  17.516  67.293  1.00  0.00    -0.236 A  
HETATM    8  C   UNL     1      -7.745  16.578  67.777  1.00  0.00    -0.165 A  
HETATM    9  C   UNL     1      -6.391  16.734  67.457  1.00  0.00    -0.187 A  
HETATM   10  C   UNL     1      -5.967  17.857  66.735  1.00  0.00    -0.187 A  
ENDROOT
BRANCH   8  11
HETATM   11  C   UNL     1      -8.274  15.499  68.663  1.00  0.00    -0.162 C  
HETATM   12  O   UNL     1      -8.751  15.803  69.756  1.00  0.00    -0.151 OA 
HETATM   13  N   UNL     1      -8.169  14.196  68.223  1.00  0.00    -0.141 N  
HETATM   14  H   UNL     1      -7.772  13.982  67.308  1.00  0.00     0.000 HD 
BRANCH  13  15
HETATM   15  N   UNL     1      -8.620  13.178  69.060  1.00  0.00     0.324 N  
HETATM   16  C   UNL     1      -8.720  11.893  68.580  1.00  0.00    -0.033 C  
HETATM   17  C   UNL     1      -9.481  11.075  69.597  1.00  0.00     0.445 C  
HETATM   18  O   UNL     1      -8.330  11.489  67.494  1.00  0.00    -0.134 OA 
HETATM   19  C   UNL     1      -9.950  12.127  70.651  1.00  0.00     5.370 C  
HETATM   20  C   UNL     1     -11.500  12.113  70.760  1.00  0.00     0.914 C  
HETATM   21  C   UNL     1      -9.469  13.447  70.113  1.00  0.00     3.285 C  
HETATM   22  O   UNL     1      -9.869  14.532  70.508  1.00  0.00     0.886 OA 
HETATM   23  C   UNL     1     -12.033  12.363  69.345  1.00  0.00    -0.319 C  
HETATM   24  C   UNL     1     -11.634  11.455  68.435  1.00  0.00    -0.385 C  
HETATM   25  C   UNL     1     -10.734  10.359  69.001  1.00  0.00    -0.260 C  
HETATM   26  C   UNL     1     -11.411   9.667  70.205  1.00  0.00    -0.311 C  
HETATM   27  C   UNL     1     -12.874   9.806  70.573  1.00  0.00    -0.026 C  
HETATM   28  C   UNL     1     -11.850  10.697  71.234  1.00  0.00    -0.257 C  
ENDBRANCH  13  15
ENDBRANCH   8  11
TORSDOF 2
ENDMDL
MODEL      121
REMARK 921   NORMALIZED FREE ENERGY PREDICTED BY IDOCK:   10.73 KCAL/MOL
REMARK 922        TOTAL FREE ENERGY PREDICTED BY IDOCK:   11.53 KCAL/MOL
REMARK 923 INTER-LIGAND FREE ENERGY PREDICTED BY IDOCK:    8.01 KCAL/MOL
REMARK 924 INTRA-LIGAND FREE ENERGY PREDICTED BY IDOCK:    3.53 KCAL/MOL
REMARK 927      BINDING AFFINITY PREDICTED BY RF-SCORE:    0.00 PKD
ROOT
HETATM    1  F   UNL     1      -9.890  19.275  70.013  1.00  0.00    -0.046 F  
HETATM    2  C   UNL     1     -10.717  18.568  69.194  1.00  0.00     0.742 C  
HETATM    3  C   UNL     1     -11.275  17.318  69.831  1.00  0.00     0.953 A  
HETATM    4  F   UNL     1     -11.687  19.434  68.797  1.00  0.00     1.617 F  
HETATM    5  F   UNL     1      -9.984  18.288  68.079  1.00  0.00    -0.288 F  
HETATM    6  C   UNL     1     -10.955  16.980  71.151  1.00  0.00     0.990 A  
HETATM    7  C   UNL     1     -11.386  15.767  71.691  1.00  0.00    -0.408 A  
HETATM    8  C   UNL     1     -12.143  14.867  70.925  1.00  0.00    -0.377 A  
HETATM    9  C   UNL     1     -12.532  15.236  69.632  1.00  0.00    -0.174 A  
HETATM   10  C   UNL     1     -12.096  16.452  69.090  1.00  0.00     0.410 A  
ENDROOT
BRANCH   8  11
HETATM   11  C   UNL     1     -12.431  13.534  71.534  1.00  0.00    -0.194 C  
HETATM   12  O   UNL     1     -13.391  13.421  72.296  1.00  0.00    -0.486 OA 
HETATM   13  N   UNL     1     -11.578  12.492  71.236  1.00  0.00     0.821 N  
HETATM   14  H   UNL     1     -10.795  12.623  70.596  1.00  0.00     0.000 HD 
BRANCH  13  15
HETATM   15  N   UNL     1     -11.812  11.256  71.833  1.00  0.00     1.231 N  
HETATM   16  C   UNL     1     -11.146  10.141  71.379  1.00  0.00     0.204 C  
HETATM   17  C   UNL     1     -11.788   8.928  72.008  1.00  0.00    -0.438 C  
HETATM   18  O   UNL     1     -10.239  10.119  70.558  1.00  0.00    -0.190 OA 
HETATM   19  C   UNL     1     -13.032   9.505  72.755  1.00  0.00     0.066 C  
HETATM   20  C   UNL     1     -14.329   8.840  72.215  1.00  0.00    -0.468 C  
HETATM   21  C   UNL     1     -13.020  10.975  72.437  1.00  0.00     0.462 C  
HETATM   22  O   UNL     1     -13.973  11.719  72.611  1.00  0.00     0.371 OA 
HETATM   23  C   UNL     1     -14.339   9.081  70.702  1.00  0.00     0.582 C  
HETATM   24  C   UNL     1     -13.270   8.580  70.055  1.00  0.00     2.305 C  
HETATM   25  C   UNL     1     -12.268   7.871  70.963  1.00  0.00    -0.214 C  
HETATM   26  C   UNL     1     -12.968   6.773  71.794  1.00  0.00    -0.274 C  
HETATM   27  C   UNL     1     -14.360   6.239  71.524  1.00  0.00     0.615 C  
HETATM   28  C   UNL     1     -14.168   7.347  72.531  1.00  0.00     0.194 C  
ENDBRANCH  13  15
ENDBRANCH   8  11
TORSDOF 2
ENDMDL
MODEL      122
REMARK 921   NORMALIZED FREE ENERGY PREDICTED BY IDOCK:   13.83 KCAL/MOL
REMARK 922        TOTAL FREE ENERGY PREDICTED BY IDOCK:   15.00 KCAL/MOL
REMARK 923 INTER-LIGAND FREE ENERGY PREDICTED BY IDOCK:   11.51 KCAL/MOL
REMARK 924 INTRA-LIGAND FREE ENERGY PREDICTED BY IDOCK:    3.49 KCAL/MOL
REMARK 927      BINDING AFFINITY PREDICTED BY RF-SCORE:    0.00 PKD
ROOT
HETATM    1  F   UNL     1      -7.362  21.008  64.156  1.00  0.00    -0.023 F  
HETATM    2  C   UNL     1      -6.530  19.965  64.430  1.00  0.00    -0.037 C  
HETATM    3  C   UNL     1      -7.255  18.688  64.780  1.00  0.00     1.666 A  
HETATM    4  F   UNL     1      -5.722  19.831  63.344  1.00  0.00    -0.266 F  
HETATM    5  F   UNL     1      -5.726  20.390  65.446  1.00  0.00    -0.188 F  
HETATM    6  C   UNL     1      -8.654  18.634  64.784  1.00  0.00     4.358 A  
HETATM    7  C   UNL     1      -9.311  17.482  65.217  1.00  0.00     1.547 A  
HETATM    8  C   UNL     1      -8.588  16.362  65.656  1.00  0.00     0.497 A  
HETATM    9  C   UNL     1      -7.191  16.383  65.578  1.00  0.00     2.793 A  
HETATM   10  C   UNL     1      -6.531  17.542  65.147  1.00  0.00     1.153 A  
ENDROOT
BRANCH   8  11
HETATM   11  C   UNL     1      -9.373  15.233  66.241  1.00  0.00    -0.310 C  
HETATM   12  O   UNL     1      -9.258  14.110  65.752  1.00  0.00    -0.014 OA 
HETATM   13  N   UNL     1     -10.225  15.516  67.288  1.00  0.00    -0.255 N  
HETATM   14  H   UNL     1     -10.290  16.460  67.669  1.00  0.00     0.000 HD 
BRANCH  13  15
HETATM   15  N   UNL     1     -10.994  14.480  67.812  1.00  0.00    -0.268 N  
HETATM   16  C   UNL     1     -11.196  14.399  69.170  1.00  0.00    -0.272 C  
HETATM   17  C   UNL     1     -11.817  13.054  69.468  1.00  0.00    -0.385 C  
HETATM   18  O   UNL     1     -10.870  15.230  70.006  1.00  0.00    -0.259 OA 
HETATM   19  C   UNL     1     -11.782  12.311  68.095  1.00  0.00    -0.408 C  
HETATM   20  C   UNL     1     -10.965  10.996  68.226  1.00  0.00    -0.287 C  
HETATM   21  C   UNL     1     -11.094  13.269  67.160  1.00  0.00    -0.286 C  
HETATM   22  O   UNL     1     -10.637  12.952  66.072  1.00  0.00    -0.264 OA 
HETATM   23  C   UNL     1      -9.585  11.396  68.758  1.00  0.00    -0.139 C  
HETATM   24  C   UNL     1      -9.613  12.033  69.944  1.00  0.00     2.255 C  
HETATM   25  C   UNL     1     -11.015  12.222  70.517  1.00  0.00     1.726 C  
HETATM   26  C   UNL     1     -11.754  10.868  70.606  1.00  0.00    -0.418 C  
HETATM   27  C   UNL     1     -11.094   9.511  70.468  1.00  0.00    -0.342 C  
HETATM   28  C   UNL     1     -11.728  10.159  69.261  1.00  0.00    -0.065 C  
ENDBRANCH  13  15
ENDBRANCH   8  11
TORSDOF 2
ENDMDL
MODEL      123
REMARK 921   NORMALIZED FREE ENERGY PREDICTED BY IDOCK:   15.79 KCAL/MOL
REMARK 922        TOTAL FREE ENERGY PREDICTED BY IDOCK:   17.19 KCAL/MOL
REMARK 923 INTER-LIGAND FREE ENERGY PREDICTED BY IDOCK:   17.29 KCAL/MOL
REMARK 924 INTRA-LIGAND FREE ENERGY PREDICTED BY IDOCK:   -0.10 KCAL/MOL
REMARK 927      BINDING AFFINITY PREDICTED BY RF-SCORE:    0.00 PKD
ROOT
HETATM    1  F   UNL     1     -11.976  12.779  62.400  1.00  0.00     0.324 F  
HETATM    2  C   UNL     1     -11.063  12.272  63.274  1.00  0.00    -0.319 C  
HETATM    3  C   UNL     1     -10.712  13.219  64.397  1.00  0.00    -0.432 A  
HETATM    4  F   UNL     1     -11.579  11.096  63.721  1.00  0.00    -0.387 F  
HETATM    5  F   UNL     1      -9.973  11.944  62.524  1.00  0.00    -0.184 F  
HETATM    6  C   UNL     1     -11.316  14.478  64.492  1.00  0.00    -0.323 A  
HETATM    7  C   UNL     1     -10.901  15.385  65.467  1.00  0.00    -0.384 A  
HETATM    8  C   UNL     1      -9.875  15.056  66.367  1.00  0.00    -0.290 A  
HETATM    9  C   UNL     1      -9.324  13.771  66.326  1.00  0.00    -0.166 A  
HETATM   10  C   UNL     1      -9.739  12.861  65.344  1.00  0.00    -0.043 A  
ENDROOT
BRANCH   8  11
HETATM   11  C   UNL     1      -9.397  16.141  67.276  1.00  0.00    -0.213 C  
HETATM   12  O   UNL     1      -9.895  16.243  68.397  1.00  0.00    -0.220 OA 
HETATM   13  N   UNL     1      -8.436  17.006  66.796  1.00  0.00    -0.216 N  
HETATM   14  H   UNL     1      -8.043  16.887  65.863  1.00  0.00     0.000 HD 
BRANCH  13  15
HETATM   15  N   UNL     1      -8.014  18.047  67.620  1.00  0.00    -0.219 N  
HETATM   16  C   UNL     1      -7.244  17.774  68.726  1.00  0.00    -0.271 C  
HETATM   17  C   UNL     1      -7.172  19.028  69.564  1.00  0.00    -0.074 C  
HETATM   18  O   UNL     1      -6.758  16.692  69.026  1.00  0.00    -0.176 OA 
HETATM   19  C   UNL     1      -8.158  20.010  68.856  1.00  0.00     0.043 C  
HETATM   20  C   UNL     1      -9.271  20.448  69.848  1.00  0.00     1.167 C  
HETATM   21  C   UNL     1      -8.744  19.212  67.724  1.00  0.00    -0.301 C  
HETATM   22  O   UNL     1      -9.748  19.536  67.107  1.00  0.00    -0.314 OA 
HETATM   23  C   UNL     1      -9.926  19.160  70.358  1.00  0.00     1.276 C  
HETATM   24  C   UNL     1      -9.078  18.314  70.972  1.00  0.00     6.056 C  
HETATM   25  C   UNL     1      -7.637  18.814  71.038  1.00  0.00     3.881 C  
HETATM   26  C   UNL     1      -7.577  20.215  71.686  1.00  0.00     1.627 C  
HETATM   27  C   UNL     1      -8.712  20.866  72.449  1.00  0.00     3.252 C  
HETATM   28  C   UNL     1      -8.529  21.169  70.981  1.00  0.00     4.194 C  
ENDBRANCH  13  15
ENDBRANCH   8  11
TORSDOF 2
ENDMDL
MODEL      124
REMARK 921   NORMALIZED FREE ENERGY PREDICTED BY IDOCK:   17.19 KCAL/MOL
REMARK 922        TOTAL FREE ENERGY PREDICTED BY IDOCK:   18.76 KCAL/MOL
REMARK 923 INTER-LIGAND FREE ENERGY PREDICTED BY IDOCK:   18.68 KCAL/MOL
REMARK 924 INTRA-LIGAND FREE ENERGY PREDICTED BY IDOCK:    0.07 KCAL/MOL
REMARK 927      BINDING AFFINITY PREDICTED BY RF-SCORE:    0.00 PKD
ROOT
HETATM    1  F   UNL     1      -7.024  18.806  73.990  1.00  0.00     4.001 F  
HETATM    2  C   UNL     1      -6.896  19.273  72.717  1.00  0.00     3.168 C  
HETATM    3  C   UNL     1      -6.752  18.181  71.684  1.00  0.00     3.918 A  
HETATM    4  F   UNL     1      -7.979  20.066  72.496  1.00  0.00     1.109 F  
HETATM    5  F   UNL     1      -5.817  20.106  72.735  1.00  0.00     0.264 F  
HETATM    6  C   UNL     1      -6.775  16.832  72.056  1.00  0.00     5.469 A  
HETATM    7  C   UNL     1      -6.528  15.837  71.109  1.00  0.00     1.287 A  
HETATM    8  C   UNL     1      -6.251  16.168  69.773  1.00  0.00    -0.184 A  
HETATM    9  C   UNL     1      -6.305  17.511  69.381  1.00  0.00    -0.246 A  
HETATM   10  C   UNL     1      -6.550  18.509  70.334  1.00  0.00     0.627 A  
ENDROOT
BRANCH   8  11
HETATM   11  C   UNL     1      -5.852  15.050  68.866  1.00  0.00    -0.090 C  
HETATM   12  O   UNL     1      -5.218  15.308  67.843  1.00  0.00    -0.120 OA 
HETATM   13  N   UNL     1      -6.249  13.773  69.206  1.00  0.00    -0.099 N  
HETATM   14  H   UNL     1      -6.770  13.598  70.065  1.00  0.00     0.000 HD 
BRANCH  13  15
HETATM   15  N   UNL     1      -5.920  12.729  68.345  1.00  0.00    -0.064 N  
HETATM   16  C   UNL     1      -6.544  12.628  67.124  1.00  0.00    -0.007 C  
HETATM   17  C   UNL     1      -6.202  11.278  66.538  1.00  0.00    -0.130 C  
HETATM   18  O   UNL     1      -7.301  13.447  66.623  1.00  0.00     0.501 OA 
HETATM   19  C   UNL     1      -5.428  10.555  67.685  1.00  0.00    -0.043 C  
HETATM   20  C   UNL     1      -6.160   9.239  68.069  1.00  0.00    -0.049 C  
HETATM   21  C   UNL     1      -5.452  11.527  68.833  1.00  0.00    -0.042 C  
HETATM   22  O   UNL     1      -5.190  11.226  69.988  1.00  0.00    -0.054 OA 
HETATM   23  C   UNL     1      -7.595   9.634  68.432  1.00  0.00    -0.081 C  
HETATM   24  C   UNL     1      -8.265  10.253  67.443  1.00  0.00    -0.114 C  
HETATM   25  C   UNL     1      -7.459  10.432  66.160  1.00  0.00    -0.131 C  
HETATM   26  C   UNL     1      -6.899   9.076  65.675  1.00  0.00    -0.076 C  
HETATM   27  C   UNL     1      -7.347   7.723  66.187  1.00  0.00    -0.078 C  
HETATM   28  C   UNL     1      -6.134   8.386  66.793  1.00  0.00    -0.054 C  
ENDBRANCH  13  15
ENDBRANCH   8  11
TORSDOF 2
ENDMDL
MODEL      125
REMARK 921   NORMALIZED FREE ENERGY PREDICTED BY IDOCK:   18.05 KCAL/MOL
REMARK 922        TOTAL FREE ENERGY PREDICTED BY IDOCK:   19.71 KCAL/MOL
REMARK 923 INTER-LIGAND FREE ENERGY PREDICTED BY IDOCK:   16.19 KCAL/MOL
REMARK 924 INTRA-LIGAND FREE ENERGY PREDICTED BY IDOCK:    3.52 KCAL/MOL
REMARK 927      BINDING AFFINITY PREDICTED BY RF-SCORE:    0.00 PKD
ROOT
HETATM    1  F   UNL     1      -7.298  13.962  65.800  1.00  0.00     3.017 F  
HETATM    2  C   UNL     1      -8.228  14.356  66.714  1.00  0.00     0.115 C  
HETATM    3  C   UNL     1      -8.274  13.482  67.944  1.00  0.00    -0.168 A  
HETATM    4  F   UNL     1      -7.947  15.655  67.002  1.00  0.00    -0.181 F  
HETATM    5  F   UNL     1      -9.419  14.367  66.050  1.00  0.00    -0.301 F  
HETATM    6  C   UNL     1      -7.404  12.395  68.087  1.00  0.00    -0.111 A  
HETATM    7  C   UNL     1      -7.532  11.530  69.175  1.00  0.00    -0.025 A  
HETATM    8  C   UNL     1      -8.532  11.730  70.140  1.00  0.00     3.140 A  
HETATM    9  C   UNL     1      -9.352  12.860  70.043  1.00  0.00     3.369 A  
HETATM   10  C   UNL     1      -9.224  13.726  68.949  1.00  0.00     0.122 A  
ENDROOT
BRANCH   8  11
HETATM   11  C   UNL     1      -8.688  10.673  71.183  1.00  0.00     4.344 C  
HETATM   12  O   UNL     1      -9.821  10.347  71.538  1.00  0.00     1.835 OA 
HETATM   13  N   UNL     1      -7.543  10.131  71.728  1.00  0.00     1.908 N  
HETATM   14  H   UNL     1      -6.621  10.423  71.405  1.00  0.00     0.000 HD 
BRANCH  13  15
HETATM   15  N   UNL     1      -7.677   9.176  72.732  1.00  0.00     0.652 N  
HETATM   16  C   UNL     1      -6.585   8.436  73.122  1.00  0.00    -0.096 C  
HETATM   17  C   UNL     1      -7.075   7.314  74.006  1.00  0.00    -0.097 C  
HETATM   18  O   UNL     1      -5.427   8.604  72.764  1.00  0.00    -0.050 OA 
HETATM   19  C   UNL     1      -8.630   7.423  73.925  1.00  0.00    -0.245 C  
HETATM   20  C   UNL     1      -9.226   6.094  73.381  1.00  0.00    -0.132 C  
HETATM   21  C   UNL     1      -8.884   8.549  72.960  1.00  0.00    -0.054 C  
HETATM   22  O   UNL     1      -9.963   8.763  72.428  1.00  0.00    -0.282 OA 
HETATM   23  C   UNL     1      -8.543   5.836  72.033  1.00  0.00    -0.130 C  
HETATM   24  C   UNL     1      -7.202   5.738  72.102  1.00  0.00    -0.089 C  
HETATM   25  C   UNL     1      -6.637   5.900  73.511  1.00  0.00    -0.074 C  
HETATM   26  C   UNL     1      -7.309   4.907  74.485  1.00  0.00    -0.085 C  
HETATM   27  C   UNL     1      -8.154   3.721  74.066  1.00  0.00    -0.083 C  
HETATM   28  C   UNL     1      -8.823   5.030  74.410  1.00  0.00    -0.111 C  
ENDBRANCH  13  15
ENDBRANCH   8  11
TORSDOF 2
ENDMDL
MODEL      126
REMARK 921   NORMALIZED FREE ENERGY PREDICTED BY IDOCK:   18.68 KCAL/MOL
REMARK 922        TOTAL FREE ENERGY PREDICTED BY IDOCK:   20.42 KCAL/MOL
REMARK 923 INTER-LIGAND FREE ENERGY PREDICTED BY IDOCK:   18.21 KCAL/MOL
REMARK 924 INTRA-LIGAND FREE ENERGY PREDICTED BY IDOCK:    2.21 KCAL/MOL
REMARK 927      BINDING AFFINITY PREDICTED BY RF-SCORE:    0.00 PKD
ROOT
HETATM    1  F   UNL     1      -5.592  19.953  67.726  1.00  0.00    -0.188 F  
HETATM    2  C   UNL     1      -6.728  19.469  68.301  1.00  0.00    -0.266 C  
HETATM    3  C   UNL     1      -6.831  17.963  68.259  1.00  0.00    -0.212 A  
HETATM    4  F   UNL     1      -6.750  19.962  69.568  1.00  0.00    -0.345 F  
HETATM    5  F   UNL     1      -7.761  20.070  67.644  1.00  0.00    -0.295 F  
HETATM    6  C   UNL     1      -5.814  17.188  67.690  1.00  0.00    -0.144 A  
HETATM    7  C   UNL     1      -5.973  15.808  67.557  1.00  0.00    -0.146 A  
HETATM    8  C   UNL     1      -7.149  15.173  67.986  1.00  0.00    -0.139 A  
HETATM    9  C   UNL     1      -8.134  15.933  68.628  1.00  0.00    -0.162 A  
HETATM   10  C   UNL     1      -7.975  17.319  68.758  1.00  0.00    -0.250 A  
ENDROOT
BRANCH   8  11
HETATM   11  C   UNL     1      -7.291  13.721  67.668  1.00  0.00    -0.172 C  
HETATM   12  O   UNL     1      -7.131  12.895  68.566  1.00  0.00    -0.090 OA 
HETATM   13  N   UNL     1      -7.564  13.372  66.362  1.00  0.00     0.736 N  
HETATM   14  H   UNL     1      -7.695  14.086  65.646  1.00  0.00     0.000 HD 
BRANCH  13  15
HETATM   15  N   UNL     1      -7.656  12.019  66.046  1.00  0.00     0.658 N  
HETATM   16  C   UNL     1      -7.768  11.630  64.731  1.00  0.00     1.840 C  
HETATM   17  C   UNL     1      -8.123  10.162  64.709  1.00  0.00    -0.153 C  
HETATM   18  O   UNL     1      -7.672  12.352  63.748  1.00  0.00     3.851 OA 
HETATM   19  C   UNL     1      -8.364   9.810  66.211  1.00  0.00    -0.117 C  
HETATM   20  C   UNL     1      -9.808   9.270  66.402  1.00  0.00    -0.347 C  
HETATM   21  C   UNL     1      -8.186  11.113  66.941  1.00  0.00    -0.149 C  
HETATM   22  O   UNL     1      -8.556  11.309  68.089  1.00  0.00    -0.137 OA 
HETATM   23  C   UNL     1     -10.748  10.348  65.851  1.00  0.00    -0.023 C  
HETATM   24  C   UNL     1     -10.545  10.649  64.556  1.00  0.00    -0.145 C  
HETATM   25  C   UNL     1      -9.421   9.852  63.899  1.00  0.00    -0.207 C  
HETATM   26  C   UNL     1      -9.653   8.335  64.078  1.00  0.00     2.558 C  
HETATM   27  C   UNL     1     -10.953   7.706  64.534  1.00  0.00    11.377 C  
HETATM   28  C   UNL     1      -9.871   7.999  65.544  1.00  0.00     0.878 C  
ENDBRANCH  13  15
ENDBRANCH   8  11
TORSDOF 2
ENDMDL
MODEL      127
REMARK 921   NORMALIZED FREE ENERGY PREDICTED BY IDOCK:   24.99 KCAL/MOL
REMARK 922        TOTAL FREE ENERGY PREDICTED BY IDOCK:   27.46 KCAL/MOL
REMARK 923 INTER-LIGAND FREE ENERGY PREDICTED BY IDOCK:   23.84 KCAL/MOL
REMARK 924 INTRA-LIGAND FREE ENERGY PREDICTED BY IDOCK:    3.63 KCAL/MOL
REMARK 927      BINDING AFFINITY PREDICTED BY RF-SCORE:    0.00 PKD
ROOT
HETATM    1  F   UNL     1      -7.320  13.948  65.778  1.00  0.00     3.017 F  
HETATM    2  C   UNL     1      -8.352  14.331  66.579  1.00  0.00     0.390 C  
HETATM    3  C   UNL     1      -8.817  13.250  67.525  1.00  0.00    -0.206 A  
HETATM    4  F   UNL     1      -7.933  15.451  67.226  1.00  0.00    -0.154 F  
HETATM    5  F   UNL     1      -9.346  14.734  65.737  1.00  0.00    -0.323 F  
HETATM    6  C   UNL     1      -8.193  11.998  67.547  1.00  0.00    -0.159 A  
HETATM    7  C   UNL     1      -8.703  10.972  68.345  1.00  0.00    -0.150 A  
HETATM    8  C   UNL     1      -9.845  11.174  69.134  1.00  0.00    -0.074 A  
HETATM    9  C   UNL     1     -10.424  12.448  69.176  1.00  0.00     0.059 A  
HETATM   10  C   UNL     1      -9.914  13.476  68.372  1.00  0.00    -0.232 A  
ENDROOT
BRANCH   8  11
HETATM   11  C   UNL     1     -10.404   9.981  69.837  1.00  0.00    -0.272 C  
HETATM   12  O   UNL     1     -11.624   9.872  69.952  1.00  0.00    -0.214 OA 
HETATM   13  N   UNL     1      -9.514   9.065  70.359  1.00  0.00    -0.193 N  
HETATM   14  H   UNL     1      -8.508   9.187  70.239  1.00  0.00     0.000 HD 
BRANCH  13  15
HETATM   15  N   UNL     1     -10.023   7.971  71.053  1.00  0.00    -0.181 N  
HETATM   16  C   UNL     1      -9.209   6.895  71.324  1.00  0.00    -0.157 C  
HETATM   17  C   UNL     1     -10.080   5.769  71.828  1.00  0.00    -0.233 C  
HETATM   18  O   UNL     1      -8.004   6.826  71.128  1.00  0.00    -0.101 OA 
HETATM   19  C   UNL     1     -11.535   6.307  71.643  1.00  0.00    -0.351 C  
HETATM   20  C   UNL     1     -12.336   5.354  70.712  1.00  0.00     3.294 C  
HETATM   21  C   UNL     1     -11.364   7.655  70.998  1.00  0.00    -0.272 C  
HETATM   22  O   UNL     1     -12.267   8.270  70.451  1.00  0.00     0.119 OA 
HETATM   23  C   UNL     1     -11.534   5.250  69.410  1.00  0.00     2.028 C  
HETATM   24  C   UNL     1     -10.282   4.783  69.567  1.00  0.00    -0.180 C  
HETATM   25  C   UNL     1      -9.918   4.449  71.011  1.00  0.00    -0.242 C  
HETATM   26  C   UNL     1     -10.947   3.471  71.620  1.00  0.00     1.338 C  
HETATM   27  C   UNL     1     -11.973   2.689  70.825  1.00  0.00     9.991 C  
HETATM   28  C   UNL     1     -12.359   4.009  71.449  1.00  0.00     7.298 C  
ENDBRANCH  13  15
ENDBRANCH   8  11
TORSDOF 2
ENDMDL
MODEL      128
REMARK 921   NORMALIZED FREE ENERGY PREDICTED BY IDOCK:   36.45 KCAL/MOL
REMARK 922        TOTAL FREE ENERGY PREDICTED BY IDOCK:   40.27 KCAL/MOL
REMARK 923 INTER-LIGAND FREE ENERGY PREDICTED BY IDOCK:   40.11 KCAL/MOL
REMARK 924 INTRA-LIGAND FREE ENERGY PREDICTED BY IDOCK:    0.15 KCAL/MOL
REMARK 927      BINDING AFFINITY PREDICTED BY RF-SCORE:    0.00 PKD
ROOT
HETATM    1  F   UNL     1      -8.513  15.776  70.962  1.00  0.00     1.677 F  
HETATM    2  C   UNL     1      -9.689  15.782  70.276  1.00  0.00     0.404 C  
HETATM    3  C   UNL     1     -10.548  14.569  70.537  1.00  0.00     0.486 A  
HETATM    4  F   UNL     1     -10.311  16.947  70.604  1.00  0.00     0.316 F  
HETATM    5  F   UNL     1      -9.350  15.895  68.960  1.00  0.00    -0.187 F  
HETATM    6  C   UNL     1     -10.133  13.572  71.427  1.00  0.00     7.285 A  
HETATM    7  C   UNL     1     -10.882  12.403  71.573  1.00  0.00     6.169 A  
HETATM    8  C   UNL     1     -12.058  12.205  70.834  1.00  0.00    -0.181 A  
HETATM    9  C   UNL     1     -12.519  13.232  70.002  1.00  0.00    -0.166 A  
HETATM   10  C   UNL     1     -11.764  14.404  69.854  1.00  0.00    -0.363 A  
ENDROOT
BRANCH   8  11
HETATM   11  C   UNL     1     -12.711  10.866  70.944  1.00  0.00    -0.370 C  
HETATM   12  O   UNL     1     -13.738  10.647  70.302  1.00  0.00     0.460 OA 
HETATM   13  N   UNL     1     -12.144   9.942  71.796  1.00  0.00    -0.364 N  
HETATM   14  H   UNL     1     -11.289  10.158  72.309  1.00  0.00     0.000 HD 
BRANCH  13  15
HETATM   15  N   UNL     1     -12.768   8.705  71.940  1.00  0.00    -0.344 N  
HETATM   16  C   UNL     1     -12.806   8.097  73.173  1.00  0.00     0.991 C  
HETATM   17  C   UNL     1     -13.286   6.679  72.977  1.00  0.00     1.832 C  
HETATM   18  O   UNL     1     -12.447   8.584  74.236  1.00  0.00     4.918 OA 
HETATM   19  C   UNL     1     -13.355   6.515  71.426  1.00  0.00     0.220 C  
HETATM   20  C   UNL     1     -12.433   5.347  70.976  1.00  0.00     3.099 C  
HETATM   21  C   UNL     1     -12.853   7.824  70.882  1.00  0.00     0.059 C  
HETATM   22  O   UNL     1     -12.502   7.993  69.723  1.00  0.00     1.232 OA 
HETATM   23  C   UNL     1     -11.035   5.672  71.511  1.00  0.00    -0.268 C  
HETATM   24  C   UNL     1     -10.972   5.809  72.849  1.00  0.00    -0.312 C  
HETATM   25  C   UNL     1     -12.309   5.609  73.559  1.00  0.00     2.002 C  
HETATM   26  C   UNL     1     -12.930   4.247  73.177  1.00  0.00     1.511 C  
HETATM   27  C   UNL     1     -12.192   3.125  72.476  1.00  0.00     2.237 C  
HETATM   28  C   UNL     1     -13.007   4.103  71.665  1.00  0.00     7.767 C  
ENDBRANCH  13  15
ENDBRANCH   8  11
TORSDOF 2
ENDMDL
