MODEL        1
REMARK 921   NORMALIZED FREE ENERGY PREDICTED BY IDOCK:   -7.15 KCAL/MOL
REMARK 922        TOTAL FREE ENERGY PREDICTED BY IDOCK:   -9.57 KCAL/MOL
REMARK 923 INTER-LIGAND FREE ENERGY PREDICTED BY IDOCK:   -8.82 KCAL/MOL
REMARK 924 INTRA-LIGAND FREE ENERGY PREDICTED BY IDOCK:   -0.75 KCAL/MOL
REMARK 927      BINDING AFFINITY PREDICTED BY RF-SCORE:    0.00 PKD
ROOT
HETATM    1  C   UNL     1     -10.349  19.693  65.963  1.00  0.00    -0.523 C  
HETATM    2  N   UNL     1     -10.575  18.274  65.885  1.00  0.00    -0.507 NA 
HETATM    3  N   UNL     1     -10.919  17.656  64.750  1.00  0.00    -0.666 NA 
HETATM    4  N   UNL     1     -11.128  16.395  65.109  1.00  0.00    -0.328 NA 
HETATM    5  C   UNL     1     -10.899  16.321  66.466  1.00  0.00    -0.105 A  
HETATM    6  N   UNL     1     -10.531  17.512  66.985  1.00  0.00    -0.319 NA 
ENDROOT
BRANCH   5   7
HETATM    7  C   UNL     1     -11.094  15.120  67.275  1.00  0.00    -0.332 A  
HETATM    8  N   UNL     1     -10.532  15.068  68.507  1.00  0.00    -0.227 NA 
HETATM    9  C   UNL     1     -10.678  13.912  69.204  1.00  0.00    -0.147 A  
HETATM   10  C   UNL     1     -11.331  12.759  68.748  1.00  0.00    -0.332 A  
HETATM   11  C   UNL     1     -11.800  14.046  66.744  1.00  0.00    -0.450 A  
HETATM   12  C   UNL     1     -11.907  12.868  67.477  1.00  0.00    -0.407 A  
BRANCH  10  13
HETATM   13  C   UNL     1     -11.422  11.522  69.553  1.00  0.00    -0.378 A  
HETATM   14  C   UNL     1     -12.241  11.415  70.688  1.00  0.00    -0.389 A  
HETATM   15  C   UNL     1     -12.298  10.259  71.468  1.00  0.00    -0.488 A  
HETATM   16  F   UNL     1     -13.006  12.447  71.081  1.00  0.00    -0.402 F  
HETATM   17  C   UNL     1     -11.523   9.144  71.153  1.00  0.00    -0.318 A  
HETATM   18  C   UNL     1     -10.688  10.374  69.214  1.00  0.00    -0.270 A  
HETATM   19  C   UNL     1     -10.731   9.212  70.001  1.00  0.00    -0.254 A  
BRANCH  17  20
HETATM   20  N   UNL     1     -11.563   7.973  71.942  1.00  0.00    -0.281 N  
HETATM   21  C   UNL     1     -10.680   7.717  73.038  1.00  0.00    -0.384 C  
HETATM   22  C   UNL     1     -10.686   6.208  73.102  1.00  0.00    -0.260 C  
HETATM   23  O   UNL     1     -11.988   5.861  72.612  1.00  0.00    -0.229 OA 
HETATM   24  O   UNL     1     -13.368   6.750  71.051  1.00  0.00    -0.126 OA 
HETATM   25  C   UNL     1     -12.406   6.881  71.788  1.00  0.00    -0.361 C  
BRANCH  22  26
HETATM   26  C   UNL     1      -9.611   5.551  72.228  1.00  0.00    -0.152 C  
HETATM   27  H   UNL     1      -9.413   3.968  71.025  1.00  0.00     0.000 HD 
HETATM   28  O   UNL     1     -10.079   4.375  71.567  1.00  0.00    -0.188 OA 
ENDBRANCH  22  26
ENDBRANCH  17  20
ENDBRANCH  10  13
ENDBRANCH   5   7
TORSDOF 4
ENDMDL
MODEL        2
REMARK 921   NORMALIZED FREE ENERGY PREDICTED BY IDOCK:   -7.10 KCAL/MOL
REMARK 922        TOTAL FREE ENERGY PREDICTED BY IDOCK:   -9.51 KCAL/MOL
REMARK 923 INTER-LIGAND FREE ENERGY PREDICTED BY IDOCK:   -9.24 KCAL/MOL
REMARK 924 INTRA-LIGAND FREE ENERGY PREDICTED BY IDOCK:   -0.27 KCAL/MOL
REMARK 927      BINDING AFFINITY PREDICTED BY RF-SCORE:    0.00 PKD
ROOT
HETATM    1  C   UNL     1     -11.572   6.127  72.377  1.00  0.00    -0.292 C  
HETATM    2  N   UNL     1     -12.244   7.348  72.018  1.00  0.00    -0.295 NA 
HETATM    3  N   UNL     1     -13.575   7.452  71.954  1.00  0.00    -0.275 NA 
HETATM    4  N   UNL     1     -13.791   8.681  71.502  1.00  0.00    -0.361 NA 
HETATM    5  C   UNL     1     -12.555   9.260  71.308  1.00  0.00    -0.306 A  
HETATM    6  N   UNL     1     -11.546   8.429  71.644  1.00  0.00    -0.272 NA 
ENDROOT
BRANCH   5   7
HETATM    7  C   UNL     1     -12.344  10.590  70.741  1.00  0.00    -0.378 A  
HETATM    8  N   UNL     1     -11.602  10.705  69.613  1.00  0.00    -0.275 NA 
HETATM    9  C   UNL     1     -11.371  11.960  69.150  1.00  0.00    -0.279 A  
HETATM   10  C   UNL     1     -11.805  13.147  69.756  1.00  0.00    -0.386 A  
HETATM   11  C   UNL     1     -12.859  11.703  71.398  1.00  0.00    -0.461 A  
HETATM   12  C   UNL     1     -12.579  12.975  70.909  1.00  0.00    -0.364 A  
BRANCH  10  13
HETATM   13  C   UNL     1     -11.486  14.484  69.211  1.00  0.00    -0.322 A  
HETATM   14  C   UNL     1     -11.737  14.838  67.876  1.00  0.00    -0.341 A  
HETATM   15  C   UNL     1     -11.401  16.089  67.354  1.00  0.00     0.003 A  
HETATM   16  F   UNL     1     -12.309  13.965  67.031  1.00  0.00    -0.437 F  
HETATM   17  C   UNL     1     -10.784  17.053  68.148  1.00  0.00    -0.374 A  
HETATM   18  C   UNL     1     -10.913  15.483  70.015  1.00  0.00    -0.331 A  
HETATM   19  C   UNL     1     -10.562  16.738  69.494  1.00  0.00    -0.283 A  
BRANCH  17  20
HETATM   20  N   UNL     1     -10.428  18.317  67.627  1.00  0.00    -0.398 N  
HETATM   21  C   UNL     1     -10.346  18.612  66.229  1.00  0.00    -0.444 C  
HETATM   22  C   UNL     1      -9.373  19.767  66.207  1.00  0.00    -0.391 C  
HETATM   23  O   UNL     1      -9.590  20.406  67.472  1.00  0.00    -0.402 OA 
HETATM   24  O   UNL     1     -10.123  19.654  69.541  1.00  0.00    -0.326 OA 
HETATM   25  C   UNL     1     -10.072  19.454  68.340  1.00  0.00    -0.444 C  
BRANCH  22  26
HETATM   26  C   UNL     1      -7.907  19.335  66.088  1.00  0.00    -0.300 C  
HETATM   27  H   UNL     1      -6.852  17.750  65.480  1.00  0.00     0.000 HD 
HETATM   28  O   UNL     1      -7.761  18.018  65.554  1.00  0.00    -0.510 OA 
ENDBRANCH  22  26
ENDBRANCH  17  20
ENDBRANCH  10  13
ENDBRANCH   5   7
TORSDOF 4
ENDMDL
MODEL        3
REMARK 921   NORMALIZED FREE ENERGY PREDICTED BY IDOCK:   -6.94 KCAL/MOL
REMARK 922        TOTAL FREE ENERGY PREDICTED BY IDOCK:   -9.31 KCAL/MOL
REMARK 923 INTER-LIGAND FREE ENERGY PREDICTED BY IDOCK:   -8.59 KCAL/MOL
REMARK 924 INTRA-LIGAND FREE ENERGY PREDICTED BY IDOCK:   -0.72 KCAL/MOL
REMARK 927      BINDING AFFINITY PREDICTED BY RF-SCORE:    0.00 PKD
ROOT
HETATM    1  C   UNL     1     -10.313  19.876  66.006  1.00  0.00    -0.486 C  
HETATM    2  N   UNL     1     -10.515  18.454  65.915  1.00  0.00    -0.591 NA 
HETATM    3  N   UNL     1     -10.812  17.836  64.767  1.00  0.00    -0.434 NA 
HETATM    4  N   UNL     1     -11.014  16.571  65.113  1.00  0.00    -0.472 NA 
HETATM    5  C   UNL     1     -10.830  16.494  66.477  1.00  0.00    -0.046 A  
HETATM    6  N   UNL     1     -10.497  17.688  67.013  1.00  0.00    -0.329 NA 
ENDROOT
BRANCH   5   7
HETATM    7  C   UNL     1     -11.035  15.287  67.273  1.00  0.00    -0.327 A  
HETATM    8  N   UNL     1     -10.560  15.258  68.543  1.00  0.00    -0.231 NA 
HETATM    9  C   UNL     1     -10.710  14.098  69.232  1.00  0.00    -0.144 A  
HETATM   10  C   UNL     1     -11.283  12.919  68.734  1.00  0.00    -0.323 A  
HETATM   11  C   UNL     1     -11.658  14.185  66.698  1.00  0.00    -0.399 A  
HETATM   12  C   UNL     1     -11.770  13.005  67.425  1.00  0.00    -0.427 A  
BRANCH  10  13
HETATM   13  C   UNL     1     -11.382  11.680  69.535  1.00  0.00    -0.328 A  
HETATM   14  C   UNL     1     -10.528  10.582  69.341  1.00  0.00    -0.240 A  
HETATM   15  C   UNL     1     -10.647   9.399  70.073  1.00  0.00    -0.267 A  
HETATM   16  F   UNL     1      -9.555  10.625  68.417  1.00  0.00    -0.147 F  
HETATM   17  C   UNL     1     -11.641   9.252  71.038  1.00  0.00    -0.313 A  
HETATM   18  C   UNL     1     -12.344  11.540  70.548  1.00  0.00    -0.432 A  
HETATM   19  C   UNL     1     -12.477  10.349  71.279  1.00  0.00    -0.521 A  
BRANCH  17  20
HETATM   20  N   UNL     1     -11.779   8.055  71.776  1.00  0.00    -0.276 N  
HETATM   21  C   UNL     1     -10.822   7.592  72.734  1.00  0.00    -0.360 C  
HETATM   22  C   UNL     1     -11.072   6.103  72.735  1.00  0.00    -0.259 C  
HETATM   23  O   UNL     1     -12.465   6.001  72.409  1.00  0.00    -0.177 OA 
HETATM   24  O   UNL     1     -13.859   7.197  71.083  1.00  0.00    -0.293 OA 
HETATM   25  C   UNL     1     -12.805   7.125  71.691  1.00  0.00    -0.379 C  
BRANCH  22  26
HETATM   26  C   UNL     1     -10.240   5.338  71.700  1.00  0.00    -0.212 C  
HETATM   27  H   UNL     1      -9.640   3.466  71.340  1.00  0.00     0.000 HD 
HETATM   28  O   UNL     1     -10.156   3.940  71.982  1.00  0.00    -0.179 OA 
ENDBRANCH  22  26
ENDBRANCH  17  20
ENDBRANCH  10  13
ENDBRANCH   5   7
TORSDOF 4
ENDMDL
MODEL        4
REMARK 921   NORMALIZED FREE ENERGY PREDICTED BY IDOCK:   -6.85 KCAL/MOL
REMARK 922        TOTAL FREE ENERGY PREDICTED BY IDOCK:   -9.21 KCAL/MOL
REMARK 923 INTER-LIGAND FREE ENERGY PREDICTED BY IDOCK:   -8.81 KCAL/MOL
REMARK 924 INTRA-LIGAND FREE ENERGY PREDICTED BY IDOCK:   -0.39 KCAL/MOL
REMARK 927      BINDING AFFINITY PREDICTED BY RF-SCORE:    0.00 PKD
ROOT
HETATM    1  C   UNL     1     -10.563  19.313  65.851  1.00  0.00    -0.435 C  
HETATM    2  N   UNL     1     -10.651  17.891  65.653  1.00  0.00    -0.587 NA 
HETATM    3  N   UNL     1     -10.973  17.341  64.478  1.00  0.00    -0.712 NA 
HETATM    4  N   UNL     1     -11.044  16.039  64.728  1.00  0.00    -0.541 NA 
HETATM    5  C   UNL     1     -10.761  15.872  66.066  1.00  0.00    -0.284 A  
HETATM    6  N   UNL     1     -10.493  17.045  66.680  1.00  0.00    -0.288 NA 
ENDROOT
BRANCH   5   7
HETATM    7  C   UNL     1     -10.809  14.592  66.769  1.00  0.00    -0.312 A  
HETATM    8  N   UNL     1     -12.003  13.964  66.894  1.00  0.00    -0.420 NA 
HETATM    9  C   UNL     1     -12.023  12.810  67.608  1.00  0.00    -0.273 A  
HETATM   10  C   UNL     1     -10.923  12.230  68.256  1.00  0.00    -0.268 A  
HETATM   11  C   UNL     1      -9.648  14.080  67.337  1.00  0.00    -0.227 A  
HETATM   12  C   UNL     1      -9.711  12.908  68.085  1.00  0.00    -0.227 A  
BRANCH  10  13
HETATM   13  C   UNL     1     -11.028  10.986  69.046  1.00  0.00    -0.284 A  
HETATM   14  C   UNL     1     -11.677  10.930  70.290  1.00  0.00    -0.347 A  
HETATM   15  C   UNL     1     -11.743   9.762  71.052  1.00  0.00    -0.453 A  
HETATM   16  F   UNL     1     -12.260  12.023  70.808  1.00  0.00    -0.430 F  
HETATM   17  C   UNL     1     -11.149   8.583  70.607  1.00  0.00    -0.252 A  
HETATM   18  C   UNL     1     -10.480   9.778  68.584  1.00  0.00    -0.233 A  
HETATM   19  C   UNL     1     -10.532   8.603  69.351  1.00  0.00    -0.224 A  
BRANCH  17  20
HETATM   20  N   UNL     1     -11.198   7.398  71.376  1.00  0.00    -0.243 N  
HETATM   21  C   UNL     1     -11.387   7.373  72.794  1.00  0.00    -0.308 C  
HETATM   22  C   UNL     1     -10.749   6.058  73.173  1.00  0.00    -0.260 C  
HETATM   23  O   UNL     1     -10.942   5.247  72.006  1.00  0.00    -0.208 OA 
HETATM   24  O   UNL     1     -10.977   5.679  69.783  1.00  0.00    -0.345 OA 
HETATM   25  C   UNL     1     -11.044   6.094  70.926  1.00  0.00    -0.307 C  
BRANCH  22  26
HETATM   26  C   UNL     1      -9.252   6.168  73.487  1.00  0.00    -0.131 C  
HETATM   27  H   UNL     1      -8.020   7.333  74.545  1.00  0.00     0.000 HD 
HETATM   28  O   UNL     1      -8.948   7.265  74.350  1.00  0.00    -0.216 OA 
ENDBRANCH  22  26
ENDBRANCH  17  20
ENDBRANCH  10  13
ENDBRANCH   5   7
TORSDOF 4
ENDMDL
MODEL        5
REMARK 921   NORMALIZED FREE ENERGY PREDICTED BY IDOCK:   -6.58 KCAL/MOL
REMARK 922        TOTAL FREE ENERGY PREDICTED BY IDOCK:   -8.87 KCAL/MOL
REMARK 923 INTER-LIGAND FREE ENERGY PREDICTED BY IDOCK:   -8.64 KCAL/MOL
REMARK 924 INTRA-LIGAND FREE ENERGY PREDICTED BY IDOCK:   -0.23 KCAL/MOL
REMARK 927      BINDING AFFINITY PREDICTED BY RF-SCORE:    0.00 PKD
ROOT
HETATM    1  C   UNL     1     -10.567   3.086  73.764  1.00  0.00    -0.179 C  
HETATM    2  N   UNL     1     -10.511   4.508  73.554  1.00  0.00    -0.186 NA 
HETATM    3  N   UNL     1     -10.436   5.388  74.558  1.00  0.00    -0.294 NA 
HETATM    4  N   UNL     1     -10.504   6.574  73.966  1.00  0.00    -0.328 NA 
HETATM    5  C   UNL     1     -10.623   6.341  72.613  1.00  0.00    -0.217 A  
HETATM    6  N   UNL     1     -10.618   5.023  72.322  1.00  0.00    -0.217 NA 
ENDROOT
BRANCH   5   7
HETATM    7  C   UNL     1     -10.805   7.384  71.606  1.00  0.00    -0.220 A  
HETATM    8  N   UNL     1     -10.480   7.109  70.319  1.00  0.00    -0.213 NA 
HETATM    9  C   UNL     1     -10.599   8.120  69.422  1.00  0.00    -0.200 A  
HETATM   10  C   UNL     1     -10.997   9.432  69.716  1.00  0.00    -0.234 A  
HETATM   11  C   UNL     1     -11.251   8.642  71.997  1.00  0.00    -0.434 A  
HETATM   12  C   UNL     1     -11.335   9.661  71.054  1.00  0.00    -0.444 A  
BRANCH  10  13
HETATM   13  C   UNL     1     -11.071  10.492  68.689  1.00  0.00    -0.319 A  
HETATM   14  C   UNL     1     -10.488  10.359  67.418  1.00  0.00    -0.249 A  
HETATM   15  C   UNL     1     -10.528  11.376  66.463  1.00  0.00    -0.292 A  
HETATM   16  F   UNL     1      -9.846   9.231  67.073  1.00  0.00    -0.194 F  
HETATM   17  C   UNL     1     -11.152  12.591  66.737  1.00  0.00    -0.279 A  
HETATM   18  C   UNL     1     -11.745  11.700  68.933  1.00  0.00    -0.397 A  
HETATM   19  C   UNL     1     -11.778  12.732  67.981  1.00  0.00    -0.405 A  
BRANCH  17  20
HETATM   20  N   UNL     1     -11.188  13.632  65.782  1.00  0.00    -0.294 N  
HETATM   21  C   UNL     1     -10.023  14.269  65.250  1.00  0.00    -0.279 C  
HETATM   22  C   UNL     1     -10.561  15.618  64.836  1.00  0.00    -0.316 C  
HETATM   23  O   UNL     1     -11.930  15.342  64.511  1.00  0.00    -0.389 OA 
HETATM   24  O   UNL     1     -13.482  13.911  65.332  1.00  0.00    -0.672 OA 
HETATM   25  C   UNL     1     -12.311  14.232  65.230  1.00  0.00    -0.424 C  
BRANCH  22  26
HETATM   26  C   UNL     1     -10.494  16.673  65.945  1.00  0.00    -0.313 C  
HETATM   27  H   UNL     1     -10.537  18.663  66.132  1.00  0.00     0.000 HD 
HETATM   28  O   UNL     1     -10.578  18.008  65.444  1.00  0.00    -0.648 OA 
ENDBRANCH  22  26
ENDBRANCH  17  20
ENDBRANCH  10  13
ENDBRANCH   5   7
TORSDOF 4
ENDMDL
MODEL        6
REMARK 921   NORMALIZED FREE ENERGY PREDICTED BY IDOCK:   -6.58 KCAL/MOL
REMARK 922        TOTAL FREE ENERGY PREDICTED BY IDOCK:   -8.87 KCAL/MOL
REMARK 923 INTER-LIGAND FREE ENERGY PREDICTED BY IDOCK:   -8.42 KCAL/MOL
REMARK 924 INTRA-LIGAND FREE ENERGY PREDICTED BY IDOCK:   -0.45 KCAL/MOL
REMARK 927      BINDING AFFINITY PREDICTED BY RF-SCORE:    0.00 PKD
ROOT
HETATM    1  C   UNL     1      -8.577   3.254  74.511  1.00  0.00    -0.076 C  
HETATM    2  N   UNL     1      -9.591   4.102  73.943  1.00  0.00    -0.104 NA 
HETATM    3  N   UNL     1     -10.896   3.819  74.014  1.00  0.00    -0.214 NA 
HETATM    4  N   UNL     1     -11.482   4.772  73.300  1.00  0.00    -0.330 NA 
HETATM    5  C   UNL     1     -10.480   5.589  72.823  1.00  0.00    -0.212 A  
HETATM    6  N   UNL     1      -9.258   5.187  73.232  1.00  0.00    -0.131 NA 
ENDROOT
BRANCH   5   7
HETATM    7  C   UNL     1     -10.692   6.721  71.923  1.00  0.00    -0.223 A  
HETATM    8  N   UNL     1     -10.826   6.479  70.596  1.00  0.00    -0.249 NA 
HETATM    9  C   UNL     1     -10.956   7.557  69.782  1.00  0.00    -0.184 A  
HETATM   10  C   UNL     1     -10.932   8.898  70.190  1.00  0.00    -0.245 A  
HETATM   11  C   UNL     1     -10.698   8.012  72.438  1.00  0.00    -0.386 A  
HETATM   12  C   UNL     1     -10.808   9.094  71.570  1.00  0.00    -0.436 A  
BRANCH  10  13
HETATM   13  C   UNL     1     -11.047  10.024  69.239  1.00  0.00    -0.248 A  
HETATM   14  C   UNL     1     -11.634  11.252  69.586  1.00  0.00    -0.330 A  
HETATM   15  C   UNL     1     -11.774  12.301  68.676  1.00  0.00    -0.377 A  
HETATM   16  F   UNL     1     -12.102  11.461  70.826  1.00  0.00    -0.408 F  
HETATM   17  C   UNL     1     -11.338  12.169  67.359  1.00  0.00    -0.326 A  
HETATM   18  C   UNL     1     -10.562   9.923  67.925  1.00  0.00    -0.303 A  
HETATM   19  C   UNL     1     -10.711  10.970  67.001  1.00  0.00    -0.319 A  
BRANCH  17  20
HETATM   20  N   UNL     1     -11.486  13.220  66.426  1.00  0.00    -0.316 N  
HETATM   21  C   UNL     1     -12.728  13.572  65.810  1.00  0.00    -0.374 C  
HETATM   22  C   UNL     1     -12.270  14.232  64.530  1.00  0.00    -0.455 C  
HETATM   23  O   UNL     1     -11.000  14.794  64.885  1.00  0.00    -0.382 OA 
HETATM   24  O   UNL     1      -9.329  14.151  66.272  1.00  0.00    -0.262 OA 
HETATM   25  C   UNL     1     -10.493  14.050  65.925  1.00  0.00    -0.309 C  
BRANCH  22  26
HETATM   26  C   UNL     1     -12.097  13.254  63.363  1.00  0.00    -0.439 C  
HETATM   27  H   UNL     1     -12.897  11.546  62.702  1.00  0.00     0.000 HD 
HETATM   28  O   UNL     1     -13.004  12.152  63.426  1.00  0.00    -0.776 OA 
ENDBRANCH  22  26
ENDBRANCH  17  20
ENDBRANCH  10  13
ENDBRANCH   5   7
TORSDOF 4
ENDMDL
MODEL        7
REMARK 921   NORMALIZED FREE ENERGY PREDICTED BY IDOCK:   -6.45 KCAL/MOL
REMARK 922        TOTAL FREE ENERGY PREDICTED BY IDOCK:   -8.71 KCAL/MOL
REMARK 923 INTER-LIGAND FREE ENERGY PREDICTED BY IDOCK:   -8.07 KCAL/MOL
REMARK 924 INTRA-LIGAND FREE ENERGY PREDICTED BY IDOCK:   -0.64 KCAL/MOL
REMARK 927      BINDING AFFINITY PREDICTED BY RF-SCORE:    0.00 PKD
ROOT
HETATM    1  C   UNL     1     -10.579  18.936  65.532  1.00  0.00    -0.007 C  
HETATM    2  N   UNL     1     -10.721  17.509  65.411  1.00  0.00    -0.586 NA 
HETATM    3  N   UNL     1     -11.184  16.917  64.305  1.00  0.00    -1.099 NA 
HETATM    4  N   UNL     1     -11.256  15.631  64.622  1.00  0.00    -0.419 NA 
HETATM    5  C   UNL     1     -10.831  15.515  65.928  1.00  0.00    -0.313 A  
HETATM    6  N   UNL     1     -10.470  16.705  66.452  1.00  0.00    -0.294 NA 
ENDROOT
BRANCH   5   7
HETATM    7  C   UNL     1     -10.830  14.269  66.691  1.00  0.00    -0.301 A  
HETATM    8  N   UNL     1      -9.675  13.867  67.276  1.00  0.00    -0.239 NA 
HETATM    9  C   UNL     1      -9.693  12.673  67.921  1.00  0.00    -0.216 A  
HETATM   10  C   UNL     1     -10.791  11.806  68.007  1.00  0.00    -0.256 A  
HETATM   11  C   UNL     1     -11.989  13.503  66.752  1.00  0.00    -0.453 A  
HETATM   12  C   UNL     1     -11.962  12.273  67.400  1.00  0.00    -0.204 A  
BRANCH  10  13
HETATM   13  C   UNL     1     -10.726  10.502  68.701  1.00  0.00    -0.247 A  
HETATM   14  C   UNL     1     -10.515   9.291  68.021  1.00  0.00    -0.223 A  
HETATM   15  C   UNL     1     -10.491   8.057  68.673  1.00  0.00    -0.196 A  
HETATM   16  F   UNL     1     -10.338   9.274  66.690  1.00  0.00    -0.304 F  
HETATM   17  C   UNL     1     -10.687   7.972  70.050  1.00  0.00    -0.244 A  
HETATM   18  C   UNL     1     -10.868  10.408  70.095  1.00  0.00    -0.333 A  
HETATM   19  C   UNL     1     -10.857   9.169  70.755  1.00  0.00    -0.331 A  
BRANCH  17  20
HETATM   20  N   UNL     1     -10.677   6.727  70.719  1.00  0.00    -0.226 N  
HETATM   21  C   UNL     1     -11.722   6.278  71.586  1.00  0.00    -0.284 C  
HETATM   22  C   UNL     1     -10.993   5.303  72.480  1.00  0.00    -0.240 C  
HETATM   23  O   UNL     1      -9.946   4.801  71.638  1.00  0.00    -0.175 OA 
HETATM   24  O   UNL     1      -8.682   5.709  69.993  1.00  0.00    -0.126 OA 
HETATM   25  C   UNL     1      -9.679   5.763  70.691  1.00  0.00    -0.178 C  
BRANCH  22  26
HETATM   26  C   UNL     1     -10.387   5.950  73.731  1.00  0.00    -0.262 C  
HETATM   27  H   UNL     1     -10.358   7.732  74.637  1.00  0.00     0.000 HD 
HETATM   28  O   UNL     1     -10.733   7.330  73.861  1.00  0.00    -0.318 OA 
ENDBRANCH  22  26
ENDBRANCH  17  20
ENDBRANCH  10  13
ENDBRANCH   5   7
TORSDOF 4
ENDMDL
MODEL        8
REMARK 921   NORMALIZED FREE ENERGY PREDICTED BY IDOCK:   -6.36 KCAL/MOL
REMARK 922        TOTAL FREE ENERGY PREDICTED BY IDOCK:   -8.60 KCAL/MOL
REMARK 923 INTER-LIGAND FREE ENERGY PREDICTED BY IDOCK:   -7.82 KCAL/MOL
REMARK 924 INTRA-LIGAND FREE ENERGY PREDICTED BY IDOCK:   -0.78 KCAL/MOL
REMARK 927      BINDING AFFINITY PREDICTED BY RF-SCORE:    0.00 PKD
ROOT
HETATM    1  C   UNL     1     -12.496   6.625  71.713  1.00  0.00    -0.311 C  
HETATM    2  N   UNL     1     -12.702   8.046  71.619  1.00  0.00    -0.320 NA 
HETATM    3  N   UNL     1     -13.748   8.666  72.175  1.00  0.00    -0.404 NA 
HETATM    4  N   UNL     1     -13.631   9.929  71.785  1.00  0.00    -0.319 NA 
HETATM    5  C   UNL     1     -12.505  10.002  70.995  1.00  0.00    -0.362 A  
HETATM    6  N   UNL     1     -11.884   8.809  70.883  1.00  0.00    -0.265 NA 
ENDROOT
BRANCH   5   7
HETATM    7  C   UNL     1     -12.060  11.207  70.297  1.00  0.00    -0.377 A  
HETATM    8  N   UNL     1     -11.152  11.081  69.298  1.00  0.00    -0.235 NA 
HETATM    9  C   UNL     1     -10.712  12.225  68.716  1.00  0.00    -0.214 A  
HETATM   10  C   UNL     1     -11.089  13.525  69.079  1.00  0.00    -0.293 A  
HETATM   11  C   UNL     1     -12.532  12.448  70.707  1.00  0.00    -0.356 A  
HETATM   12  C   UNL     1     -12.039  13.601  70.104  1.00  0.00    -0.431 A  
BRANCH  10  13
HETATM   13  C   UNL     1     -10.541  14.729  68.419  1.00  0.00    -0.242 A  
HETATM   14  C   UNL     1      -9.586  15.558  69.029  1.00  0.00    -0.238 A  
HETATM   15  C   UNL     1      -9.096  16.715  68.419  1.00  0.00    -0.226 A  
HETATM   16  F   UNL     1      -9.108  15.271  70.250  1.00  0.00    -0.097 F  
HETATM   17  C   UNL     1      -9.549  17.107  67.161  1.00  0.00    -0.255 A  
HETATM   18  C   UNL     1     -10.948  15.105  67.129  1.00  0.00    -0.326 A  
HETATM   19  C   UNL     1     -10.470  16.274  66.515  1.00  0.00    -0.290 A  
BRANCH  17  20
HETATM   20  N   UNL     1      -9.070  18.282  66.540  1.00  0.00    -0.288 N  
HETATM   21  C   UNL     1      -7.706  18.487  66.160  1.00  0.00    -0.221 C  
HETATM   22  C   UNL     1      -7.599  19.993  66.165  1.00  0.00    -0.306 C  
HETATM   23  O   UNL     1      -8.927  20.420  65.833  1.00  0.00    -0.105 OA 
HETATM   24  O   UNL     1     -10.995  19.614  66.282  1.00  0.00    -0.372 OA 
HETATM   25  C   UNL     1      -9.793  19.425  66.226  1.00  0.00    -0.403 C  
BRANCH  22  26
HETATM   26  C   UNL     1      -7.191  20.576  67.523  1.00  0.00    -0.325 C  
HETATM   27  H   UNL     1      -6.272  19.986  69.197  1.00  0.00     0.000 HD 
HETATM   28  O   UNL     1      -6.525  19.625  68.355  1.00  0.00    -0.239 OA 
ENDBRANCH  22  26
ENDBRANCH  17  20
ENDBRANCH  10  13
ENDBRANCH   5   7
TORSDOF 4
ENDMDL
MODEL        9
REMARK 921   NORMALIZED FREE ENERGY PREDICTED BY IDOCK:   -6.33 KCAL/MOL
REMARK 922        TOTAL FREE ENERGY PREDICTED BY IDOCK:   -8.56 KCAL/MOL
REMARK 923 INTER-LIGAND FREE ENERGY PREDICTED BY IDOCK:   -8.19 KCAL/MOL
REMARK 924 INTRA-LIGAND FREE ENERGY PREDICTED BY IDOCK:   -0.37 KCAL/MOL
REMARK 927      BINDING AFFINITY PREDICTED BY RF-SCORE:    0.00 PKD
ROOT
HETATM    1  C   UNL     1      -7.241  20.053  65.394  1.00  0.00    -0.230 C  
HETATM    2  N   UNL     1      -8.382  19.258  65.761  1.00  0.00    -0.387 NA 
HETATM    3  N   UNL     1      -9.629  19.740  65.773  1.00  0.00    -0.368 NA 
HETATM    4  N   UNL     1     -10.366  18.746  66.252  1.00  0.00    -0.430 NA 
HETATM    5  C   UNL     1      -9.506  17.700  66.513  1.00  0.00    -0.283 A  
HETATM    6  N   UNL     1      -8.229  18.000  66.195  1.00  0.00    -0.481 NA 
ENDROOT
BRANCH   5   7
HETATM    7  C   UNL     1      -9.904  16.435  67.127  1.00  0.00    -0.249 A  
HETATM    8  N   UNL     1      -9.573  16.209  68.422  1.00  0.00    -0.205 NA 
HETATM    9  C   UNL     1      -9.900  14.998  68.940  1.00  0.00    -0.233 A  
HETATM   10  C   UNL     1     -10.520  13.951  68.245  1.00  0.00    -0.252 A  
HETATM   11  C   UNL     1     -10.559  15.479  66.359  1.00  0.00    -0.312 A  
HETATM   12  C   UNL     1     -10.855  14.239  66.917  1.00  0.00    -0.298 A  
BRANCH  10  13
HETATM   13  C   UNL     1     -10.817  12.644  68.868  1.00  0.00    -0.238 A  
HETATM   14  C   UNL     1     -11.841  12.469  69.813  1.00  0.00    -0.310 A  
HETATM   15  C   UNL     1     -12.096  11.242  70.427  1.00  0.00    -0.474 A  
HETATM   16  F   UNL     1     -12.621  13.500  70.176  1.00  0.00    -0.347 F  
HETATM   17  C   UNL     1     -11.325  10.120  70.131  1.00  0.00    -0.303 A  
HETATM   18  C   UNL     1     -10.082  11.493  68.538  1.00  0.00    -0.211 A  
HETATM   19  C   UNL     1     -10.325  10.259  69.161  1.00  0.00    -0.241 A  
BRANCH  17  20
HETATM   20  N   UNL     1     -11.565   8.876  70.757  1.00  0.00    -0.278 N  
HETATM   21  C   UNL     1     -12.189   8.732  72.036  1.00  0.00    -0.377 C  
HETATM   22  C   UNL     1     -11.650   7.400  72.502  1.00  0.00    -0.275 C  
HETATM   23  O   UNL     1     -11.433   6.684  71.278  1.00  0.00    -0.280 OA 
HETATM   24  O   UNL     1     -10.784   7.295  69.195  1.00  0.00    -0.221 OA 
HETATM   25  C   UNL     1     -11.225   7.615  70.285  1.00  0.00    -0.216 C  
BRANCH  22  26
HETATM   26  C   UNL     1     -10.334   7.507  73.280  1.00  0.00    -0.357 C  
HETATM   27  H   UNL     1      -9.388   6.568  74.770  1.00  0.00     0.000 HD 
HETATM   28  O   UNL     1     -10.203   6.502  74.287  1.00  0.00    -0.339 OA 
ENDBRANCH  22  26
ENDBRANCH  17  20
ENDBRANCH  10  13
ENDBRANCH   5   7
TORSDOF 4
ENDMDL
MODEL       10
REMARK 921   NORMALIZED FREE ENERGY PREDICTED BY IDOCK:   -6.32 KCAL/MOL
REMARK 922        TOTAL FREE ENERGY PREDICTED BY IDOCK:   -8.54 KCAL/MOL
REMARK 923 INTER-LIGAND FREE ENERGY PREDICTED BY IDOCK:   -7.83 KCAL/MOL
REMARK 924 INTRA-LIGAND FREE ENERGY PREDICTED BY IDOCK:   -0.71 KCAL/MOL
REMARK 927      BINDING AFFINITY PREDICTED BY RF-SCORE:    0.00 PKD
ROOT
HETATM    1  C   UNL     1     -10.318  19.754  66.271  1.00  0.00    -0.519 C  
HETATM    2  N   UNL     1     -10.440  18.370  65.897  1.00  0.00    -0.591 NA 
HETATM    3  N   UNL     1     -10.962  17.977  64.731  1.00  0.00    -0.337 NA 
HETATM    4  N   UNL     1     -10.989  16.653  64.808  1.00  0.00    -0.743 NA 
HETATM    5  C   UNL     1     -10.478  16.312  66.042  1.00  0.00    -0.331 A  
HETATM    6  N   UNL     1     -10.107  17.397  66.755  1.00  0.00    -0.301 NA 
ENDROOT
BRANCH   5   7
HETATM    7  C   UNL     1     -10.404  14.948  66.560  1.00  0.00    -0.293 A  
HETATM    8  N   UNL     1      -9.219  14.501  67.044  1.00  0.00    -0.229 NA 
HETATM    9  C   UNL     1      -9.169  13.208  67.456  1.00  0.00    -0.206 A  
HETATM   10  C   UNL     1     -10.225  12.288  67.394  1.00  0.00    -0.213 A  
HETATM   11  C   UNL     1     -11.526  14.130  66.494  1.00  0.00    -0.368 A  
HETATM   12  C   UNL     1     -11.430  12.803  66.901  1.00  0.00    -0.396 A  
BRANCH  10  13
HETATM   13  C   UNL     1     -10.086  10.884  67.832  1.00  0.00    -0.199 A  
HETATM   14  C   UNL     1     -10.158   9.801  66.940  1.00  0.00    -0.226 A  
HETATM   15  C   UNL     1     -10.063   8.473  67.361  1.00  0.00    -0.298 A  
HETATM   16  F   UNL     1     -10.336  10.007  65.626  1.00  0.00    -0.340 F  
HETATM   17  C   UNL     1      -9.899   8.160  68.709  1.00  0.00    -0.176 A  
HETATM   18  C   UNL     1      -9.866  10.556  69.180  1.00  0.00    -0.233 A  
HETATM   19  C   UNL     1      -9.782   9.223  69.612  1.00  0.00    -0.192 A  
BRANCH  17  20
HETATM   20  N   UNL     1      -9.814   6.819  69.148  1.00  0.00    -0.156 N  
HETATM   21  C   UNL     1      -8.640   6.011  69.026  1.00  0.00    -0.120 C  
HETATM   22  C   UNL     1      -9.217   4.615  69.017  1.00  0.00    -0.129 C  
HETATM   23  O   UNL     1     -10.408   4.745  69.807  1.00  0.00    -0.227 OA 
HETATM   24  O   UNL     1     -11.927   6.398  70.098  1.00  0.00    -0.354 OA 
HETATM   25  C   UNL     1     -10.820   6.055  69.722  1.00  0.00    -0.363 C  
BRANCH  22  26
HETATM   26  C   UNL     1      -9.576   4.107  67.617  1.00  0.00    -0.163 C  
HETATM   27  H   UNL     1      -9.231   2.512  66.462  1.00  0.00     0.000 HD 
HETATM   28  O   UNL     1      -9.008   2.827  67.331  1.00  0.00    -0.131 OA 
ENDBRANCH  22  26
ENDBRANCH  17  20
ENDBRANCH  10  13
ENDBRANCH   5   7
TORSDOF 4
ENDMDL
MODEL       11
REMARK 921   NORMALIZED FREE ENERGY PREDICTED BY IDOCK:   -6.31 KCAL/MOL
REMARK 922        TOTAL FREE ENERGY PREDICTED BY IDOCK:   -8.54 KCAL/MOL
REMARK 923 INTER-LIGAND FREE ENERGY PREDICTED BY IDOCK:   -7.87 KCAL/MOL
REMARK 924 INTRA-LIGAND FREE ENERGY PREDICTED BY IDOCK:   -0.67 KCAL/MOL
REMARK 927      BINDING AFFINITY PREDICTED BY RF-SCORE:    0.00 PKD
ROOT
HETATM    1  C   UNL     1      -9.780   2.013  73.468  1.00  0.00    -0.082 C  
HETATM    2  N   UNL     1     -10.112   3.413  73.460  1.00  0.00    -0.113 NA 
HETATM    3  N   UNL     1     -10.592   4.051  74.532  1.00  0.00    -0.210 NA 
HETATM    4  N   UNL     1     -10.860   5.276  74.097  1.00  0.00    -0.260 NA 
HETATM    5  C   UNL     1     -10.526   5.309  72.761  1.00  0.00    -0.217 A  
HETATM    6  N   UNL     1     -10.032   4.129  72.331  1.00  0.00    -0.160 NA 
ENDROOT
BRANCH   5   7
HETATM    7  C   UNL     1     -10.739   6.457  71.882  1.00  0.00    -0.224 A  
HETATM    8  N   UNL     1     -11.288   6.247  70.661  1.00  0.00    -0.342 NA 
HETATM    9  C   UNL     1     -11.411   7.325  69.845  1.00  0.00    -0.054 A  
HETATM   10  C   UNL     1     -10.991   8.629  70.144  1.00  0.00    -0.234 A  
HETATM   11  C   UNL     1     -10.328   7.719  72.294  1.00  0.00    -0.294 A  
HETATM   12  C   UNL     1     -10.446   8.796  71.422  1.00  0.00    -0.354 A  
BRANCH  10  13
HETATM   13  C   UNL     1     -11.129   9.750  69.190  1.00  0.00    -0.158 A  
HETATM   14  C   UNL     1     -10.593   9.711  67.893  1.00  0.00    -0.255 A  
HETATM   15  C   UNL     1     -10.692  10.784  67.006  1.00  0.00    -0.320 A  
HETATM   16  F   UNL     1      -9.942   8.622  67.452  1.00  0.00    -0.196 F  
HETATM   17  C   UNL     1     -11.331  11.965  67.380  1.00  0.00    -0.324 A  
HETATM   18  C   UNL     1     -11.818  10.924  69.536  1.00  0.00    -0.404 A  
HETATM   19  C   UNL     1     -11.910  12.012  68.654  1.00  0.00    -0.366 A  
BRANCH  17  20
HETATM   20  N   UNL     1     -11.426  13.063  66.496  1.00  0.00    -0.323 N  
HETATM   21  C   UNL     1     -12.648  13.498  65.892  1.00  0.00    -0.396 C  
HETATM   22  C   UNL     1     -12.152  14.194  64.646  1.00  0.00    -0.452 C  
HETATM   23  O   UNL     1     -10.860  14.683  65.031  1.00  0.00    -0.365 OA 
HETATM   24  O   UNL     1      -9.229  13.903  66.395  1.00  0.00    -0.242 OA 
HETATM   25  C   UNL     1     -10.393  13.870  66.039  1.00  0.00    -0.305 C  
BRANCH  22  26
HETATM   26  C   UNL     1     -12.015  13.264  63.435  1.00  0.00    -0.427 C  
HETATM   27  H   UNL     1     -12.829  11.578  62.735  1.00  0.00     0.000 HD 
HETATM   28  O   UNL     1     -12.914  12.154  63.486  1.00  0.00    -0.794 OA 
ENDBRANCH  22  26
ENDBRANCH  17  20
ENDBRANCH  10  13
ENDBRANCH   5   7
TORSDOF 4
ENDMDL
MODEL       12
REMARK 921   NORMALIZED FREE ENERGY PREDICTED BY IDOCK:   -6.28 KCAL/MOL
REMARK 922        TOTAL FREE ENERGY PREDICTED BY IDOCK:   -8.49 KCAL/MOL
REMARK 923 INTER-LIGAND FREE ENERGY PREDICTED BY IDOCK:   -8.19 KCAL/MOL
REMARK 924 INTRA-LIGAND FREE ENERGY PREDICTED BY IDOCK:   -0.30 KCAL/MOL
REMARK 927      BINDING AFFINITY PREDICTED BY RF-SCORE:    0.00 PKD
ROOT
HETATM    1  C   UNL     1      -6.053   6.702  62.522  1.00  0.00    -0.035 C  
HETATM    2  N   UNL     1      -6.424   8.018  62.969  1.00  0.00    -0.080 NA 
HETATM    3  N   UNL     1      -5.740   9.117  62.636  1.00  0.00    -0.085 NA 
HETATM    4  N   UNL     1      -6.330  10.094  63.314  1.00  0.00    -0.136 NA 
HETATM    5  C   UNL     1      -7.352   9.519  64.038  1.00  0.00    -0.115 A  
HETATM    6  N   UNL     1      -7.441   8.189  63.824  1.00  0.00    -0.112 NA 
ENDROOT
BRANCH   5   7
HETATM    7  C   UNL     1      -8.204  10.238  64.982  1.00  0.00    -0.154 A  
HETATM    8  N   UNL     1      -7.622  10.873  66.028  1.00  0.00    -0.129 NA 
HETATM    9  C   UNL     1      -8.447  11.476  66.922  1.00  0.00    -0.165 A  
HETATM   10  C   UNL     1      -9.848  11.470  66.874  1.00  0.00    -0.220 A  
HETATM   11  C   UNL     1      -9.585  10.208  64.817  1.00  0.00    -0.378 A  
HETATM   12  C   UNL     1     -10.400  10.815  65.768  1.00  0.00    -0.295 A  
BRANCH  10  13
HETATM   13  C   UNL     1     -10.684  12.122  67.904  1.00  0.00    -0.237 A  
HETATM   14  C   UNL     1     -11.052  13.475  67.837  1.00  0.00    -0.265 A  
HETATM   15  C   UNL     1     -11.811  14.098  68.829  1.00  0.00    -0.384 A  
HETATM   16  F   UNL     1     -10.669  14.239  66.801  1.00  0.00    -0.277 F  
HETATM   17  C   UNL     1     -12.236  13.393  69.954  1.00  0.00    -0.271 A  
HETATM   18  C   UNL     1     -11.165  11.408  69.015  1.00  0.00    -0.319 A  
HETATM   19  C   UNL     1     -11.918  12.032  70.022  1.00  0.00    -0.400 A  
BRANCH  17  20
HETATM   20  N   UNL     1     -12.994  14.016  70.970  1.00  0.00    -0.326 N  
HETATM   21  C   UNL     1     -13.325  15.408  70.981  1.00  0.00    -0.480 C  
HETATM   22  C   UNL     1     -13.532  15.671  72.454  1.00  0.00    -0.513 C  
HETATM   23  O   UNL     1     -13.995  14.409  72.954  1.00  0.00    -0.564 OA 
HETATM   24  O   UNL     1     -13.546  12.252  72.429  1.00  0.00    -0.431 OA 
HETATM   25  C   UNL     1     -13.509  13.429  72.118  1.00  0.00    -0.552 C  
BRANCH  22  26
HETATM   26  C   UNL     1     -12.253  16.084  73.191  1.00  0.00    -0.531 C  
HETATM   27  H   UNL     1     -11.712  16.804  74.975  1.00  0.00     0.000 HD 
HETATM   28  O   UNL     1     -12.505  16.549  74.518  1.00  0.00    -0.741 OA 
ENDBRANCH  22  26
ENDBRANCH  17  20
ENDBRANCH  10  13
ENDBRANCH   5   7
TORSDOF 4
ENDMDL
MODEL       13
REMARK 921   NORMALIZED FREE ENERGY PREDICTED BY IDOCK:   -6.25 KCAL/MOL
REMARK 922        TOTAL FREE ENERGY PREDICTED BY IDOCK:   -8.46 KCAL/MOL
REMARK 923 INTER-LIGAND FREE ENERGY PREDICTED BY IDOCK:   -8.01 KCAL/MOL
REMARK 924 INTRA-LIGAND FREE ENERGY PREDICTED BY IDOCK:   -0.44 KCAL/MOL
REMARK 927      BINDING AFFINITY PREDICTED BY RF-SCORE:    0.00 PKD
ROOT
HETATM    1  C   UNL     1     -10.588  18.785  65.709  1.00  0.00    -0.271 C  
HETATM    2  N   UNL     1     -10.742  17.380  65.437  1.00  0.00    -0.576 NA 
HETATM    3  N   UNL     1     -11.288  16.915  64.309  1.00  0.00    -1.103 NA 
HETATM    4  N   UNL     1     -11.340  15.600  64.481  1.00  0.00    -0.387 NA 
HETATM    5  C   UNL     1     -10.818  15.339  65.730  1.00  0.00    -0.358 A  
HETATM    6  N   UNL     1     -10.416  16.464  66.358  1.00  0.00    -0.304 NA 
ENDROOT
BRANCH   5   7
HETATM    7  C   UNL     1     -10.762  14.014  66.344  1.00  0.00    -0.278 A  
HETATM    8  N   UNL     1      -9.636  13.276  66.194  1.00  0.00    -0.241 NA 
HETATM    9  C   UNL     1      -9.643  12.025  66.720  1.00  0.00    -0.208 A  
HETATM   10  C   UNL     1     -10.723  11.419  67.376  1.00  0.00    -0.274 A  
HETATM   11  C   UNL     1     -11.877  13.524  67.015  1.00  0.00    -0.447 A  
HETATM   12  C   UNL     1     -11.857  12.228  67.519  1.00  0.00    -0.331 A  
BRANCH  10  13
HETATM   13  C   UNL     1     -10.669  10.037  67.896  1.00  0.00    -0.322 A  
HETATM   14  C   UNL     1     -10.653   9.743  69.269  1.00  0.00    -0.221 A  
HETATM   15  C   UNL     1     -10.564   8.438  69.758  1.00  0.00    -0.221 A  
HETATM   16  F   UNL     1     -10.711  10.727  70.181  1.00  0.00    -0.300 F  
HETATM   17  C   UNL     1     -10.477   7.353  68.888  1.00  0.00    -0.203 A  
HETATM   18  C   UNL     1     -10.636   8.931  67.030  1.00  0.00    -0.279 A  
HETATM   19  C   UNL     1     -10.534   7.617  67.515  1.00  0.00    -0.336 A  
BRANCH  17  20
HETATM   20  N   UNL     1     -10.374   6.029  69.372  1.00  0.00    -0.211 N  
HETATM   21  C   UNL     1     -10.860   5.605  70.648  1.00  0.00    -0.234 C  
HETATM   22  C   UNL     1      -9.991   4.402  70.933  1.00  0.00    -0.172 C  
HETATM   23  O   UNL     1      -9.693   3.893  69.625  1.00  0.00    -0.200 OA 
HETATM   24  O   UNL     1      -9.348   4.858  67.605  1.00  0.00    -0.120 OA 
HETATM   25  C   UNL     1      -9.778   4.945  68.742  1.00  0.00    -0.165 C  
BRANCH  22  26
HETATM   26  C   UNL     1      -8.689   4.743  71.666  1.00  0.00    -0.122 C  
HETATM   27  H   UNL     1      -7.917   6.242  72.738  1.00  0.00     0.000 HD 
HETATM   28  O   UNL     1      -8.724   6.031  72.283  1.00  0.00    -0.131 OA 
ENDBRANCH  22  26
ENDBRANCH  17  20
ENDBRANCH  10  13
ENDBRANCH   5   7
TORSDOF 4
ENDMDL
MODEL       14
REMARK 921   NORMALIZED FREE ENERGY PREDICTED BY IDOCK:   -6.19 KCAL/MOL
REMARK 922        TOTAL FREE ENERGY PREDICTED BY IDOCK:   -8.39 KCAL/MOL
REMARK 923 INTER-LIGAND FREE ENERGY PREDICTED BY IDOCK:   -7.66 KCAL/MOL
REMARK 924 INTRA-LIGAND FREE ENERGY PREDICTED BY IDOCK:   -0.73 KCAL/MOL
REMARK 927      BINDING AFFINITY PREDICTED BY RF-SCORE:    0.00 PKD
ROOT
HETATM    1  C   UNL     1     -10.313  20.054  66.294  1.00  0.00    -0.455 C  
HETATM    2  N   UNL     1     -10.512  18.688  65.889  1.00  0.00    -0.587 NA 
HETATM    3  N   UNL     1     -11.115  18.351  64.744  1.00  0.00    -0.060 NA 
HETATM    4  N   UNL     1     -11.190  17.027  64.785  1.00  0.00    -0.840 NA 
HETATM    5  C   UNL     1     -10.624  16.630  65.977  1.00  0.00    -0.233 A  
HETATM    6  N   UNL     1     -10.170  17.677  66.698  1.00  0.00    -0.331 NA 
ENDROOT
BRANCH   5   7
HETATM    7  C   UNL     1     -10.575  15.248  66.451  1.00  0.00    -0.308 A  
HETATM    8  N   UNL     1      -9.443  14.808  67.052  1.00  0.00    -0.222 NA 
HETATM    9  C   UNL     1      -9.407  13.502  67.421  1.00  0.00    -0.228 A  
HETATM   10  C   UNL     1     -10.425  12.563  67.206  1.00  0.00    -0.232 A  
HETATM   11  C   UNL     1     -11.661  14.410  66.228  1.00  0.00    -0.394 A  
HETATM   12  C   UNL     1     -11.579  13.071  66.596  1.00  0.00    -0.410 A  
BRANCH  10  13
HETATM   13  C   UNL     1     -10.302  11.146  67.606  1.00  0.00    -0.223 A  
HETATM   14  C   UNL     1     -10.134  10.107  66.676  1.00  0.00    -0.223 A  
HETATM   15  C   UNL     1     -10.054   8.765  67.054  1.00  0.00    -0.335 A  
HETATM   16  F   UNL     1     -10.054  10.370  65.362  1.00  0.00    -0.297 F  
HETATM   17  C   UNL     1     -10.149   8.392  68.394  1.00  0.00    -0.198 A  
HETATM   18  C   UNL     1     -10.342  10.762  68.957  1.00  0.00    -0.235 A  
HETATM   19  C   UNL     1     -10.275   9.414  69.343  1.00  0.00    -0.214 A  
BRANCH  17  20
HETATM   20  N   UNL     1     -10.083   7.037  68.786  1.00  0.00    -0.164 N  
HETATM   21  C   UNL     1     -11.208   6.281  69.242  1.00  0.00    -0.389 C  
HETATM   22  C   UNL     1     -10.552   5.217  70.090  1.00  0.00    -0.227 C  
HETATM   23  O   UNL     1      -9.268   5.048  69.474  1.00  0.00    -0.108 OA 
HETATM   24  O   UNL     1      -7.829   6.453  68.431  1.00  0.00    -0.102 OA 
HETATM   25  C   UNL     1      -8.956   6.228  68.837  1.00  0.00    -0.126 C  
BRANCH  22  26
HETATM   26  C   UNL     1     -10.374   5.624  71.557  1.00  0.00    -0.222 C  
HETATM   27  H   UNL     1     -11.504   6.152  73.119  1.00  0.00     0.000 HD 
HETATM   28  O   UNL     1     -11.615   5.900  72.209  1.00  0.00    -0.303 OA 
ENDBRANCH  22  26
ENDBRANCH  17  20
ENDBRANCH  10  13
ENDBRANCH   5   7
TORSDOF 4
ENDMDL
MODEL       15
REMARK 921   NORMALIZED FREE ENERGY PREDICTED BY IDOCK:   -6.19 KCAL/MOL
REMARK 922        TOTAL FREE ENERGY PREDICTED BY IDOCK:   -8.38 KCAL/MOL
REMARK 923 INTER-LIGAND FREE ENERGY PREDICTED BY IDOCK:   -7.66 KCAL/MOL
REMARK 924 INTRA-LIGAND FREE ENERGY PREDICTED BY IDOCK:   -0.72 KCAL/MOL
REMARK 927      BINDING AFFINITY PREDICTED BY RF-SCORE:    0.00 PKD
ROOT
HETATM    1  C   UNL     1     -10.326  18.805  66.250  1.00  0.00    -0.448 C  
HETATM    2  N   UNL     1     -10.503  17.513  65.642  1.00  0.00    -0.607 NA 
HETATM    3  N   UNL     1     -11.169  17.336  64.496  1.00  0.00    -0.924 NA 
HETATM    4  N   UNL     1     -11.195  16.020  64.327  1.00  0.00    -0.576 NA 
HETATM    5  C   UNL     1     -10.537  15.464  65.403  1.00  0.00    -0.410 A  
HETATM    6  N   UNL     1     -10.073  16.403  66.255  1.00  0.00    -0.313 NA 
ENDROOT
BRANCH   5   7
HETATM    7  C   UNL     1     -10.409  14.029  65.644  1.00  0.00    -0.329 A  
HETATM    8  N   UNL     1      -9.447  13.597  66.496  1.00  0.00    -0.272 NA 
HETATM    9  C   UNL     1      -9.312  12.254  66.646  1.00  0.00    -0.228 A  
HETATM   10  C   UNL     1     -10.059  11.277  65.973  1.00  0.00    -0.283 A  
HETATM   11  C   UNL     1     -11.233  13.144  64.959  1.00  0.00    -0.322 A  
HETATM   12  C   UNL     1     -11.049  11.774  65.118  1.00  0.00    -0.341 A  
BRANCH  10  13
HETATM   13  C   UNL     1      -9.834   9.829  66.164  1.00  0.00    -0.329 A  
HETATM   14  C   UNL     1      -8.810   9.129  65.505  1.00  0.00    -0.191 A  
HETATM   15  C   UNL     1      -8.621   7.754  65.658  1.00  0.00    -0.147 A  
HETATM   16  F   UNL     1      -7.965   9.766  64.678  1.00  0.00    -0.117 F  
HETATM   17  C   UNL     1      -9.462   7.003  66.478  1.00  0.00    -0.150 A  
HETATM   18  C   UNL     1     -10.639   9.071  67.029  1.00  0.00    -0.270 A  
HETATM   19  C   UNL     1     -10.463   7.686  67.178  1.00  0.00    -0.412 A  
BRANCH  17  20
HETATM   20  N   UNL     1      -9.288   5.609  66.631  1.00  0.00    -0.139 N  
HETATM   21  C   UNL     1      -8.192   5.012  67.330  1.00  0.00    -0.107 C  
HETATM   22  C   UNL     1      -8.115   3.647  66.688  1.00  0.00    -0.096 C  
HETATM   23  O   UNL     1      -9.472   3.384  66.305  1.00  0.00    -0.173 OA 
HETATM   24  O   UNL     1     -11.176   4.683  65.571  1.00  0.00    -0.114 OA 
HETATM   25  C   UNL     1     -10.093   4.598  66.124  1.00  0.00    -0.266 C  
BRANCH  22  26
HETATM   26  C   UNL     1      -7.208   3.598  65.453  1.00  0.00    -0.067 C  
HETATM   27  H   UNL     1      -6.064   2.280  64.479  1.00  0.00     0.000 HD 
HETATM   28  O   UNL     1      -6.626   2.310  65.245  1.00  0.00    -0.029 OA 
ENDBRANCH  22  26
ENDBRANCH  17  20
ENDBRANCH  10  13
ENDBRANCH   5   7
TORSDOF 4
ENDMDL
MODEL       16
REMARK 921   NORMALIZED FREE ENERGY PREDICTED BY IDOCK:   -6.18 KCAL/MOL
REMARK 922        TOTAL FREE ENERGY PREDICTED BY IDOCK:   -8.38 KCAL/MOL
REMARK 923 INTER-LIGAND FREE ENERGY PREDICTED BY IDOCK:   -7.78 KCAL/MOL
REMARK 924 INTRA-LIGAND FREE ENERGY PREDICTED BY IDOCK:   -0.60 KCAL/MOL
REMARK 927      BINDING AFFINITY PREDICTED BY RF-SCORE:    0.00 PKD
ROOT
HETATM    1  C   UNL     1     -10.221   2.204  73.680  1.00  0.00    -0.104 C  
HETATM    2  N   UNL     1     -10.334   3.616  73.428  1.00  0.00    -0.147 NA 
HETATM    3  N   UNL     1     -10.710   4.492  74.366  1.00  0.00    -0.307 NA 
HETATM    4  N   UNL     1     -10.786   5.652  73.726  1.00  0.00    -0.276 NA 
HETATM    5  C   UNL     1     -10.451   5.408  72.412  1.00  0.00    -0.217 A  
HETATM    6  N   UNL     1     -10.145   4.110  72.198  1.00  0.00    -0.183 NA 
ENDROOT
BRANCH   5   7
HETATM    7  C   UNL     1     -10.486   6.409  71.348  1.00  0.00    -0.218 A  
HETATM    8  N   UNL     1     -10.054   7.664  71.624  1.00  0.00    -0.180 NA 
HETATM    9  C   UNL     1     -10.162   8.586  70.634  1.00  0.00    -0.197 A  
HETATM   10  C   UNL     1     -10.709   8.361  69.363  1.00  0.00    -0.162 A  
HETATM   11  C   UNL     1     -11.007   6.069  70.105  1.00  0.00    -0.429 A  
HETATM   12  C   UNL     1     -11.125   7.047  69.122  1.00  0.00    -0.143 A  
BRANCH  10  13
HETATM   13  C   UNL     1     -10.823   9.425  68.343  1.00  0.00    -0.156 A  
HETATM   14  C   UNL     1     -10.316   9.285  67.041  1.00  0.00    -0.255 A  
HETATM   15  C   UNL     1     -10.392  10.305  66.091  1.00  0.00    -0.253 A  
HETATM   16  F   UNL     1      -9.715   8.147  66.659  1.00  0.00    -0.225 F  
HETATM   17  C   UNL     1     -10.978  11.531  66.402  1.00  0.00    -0.284 A  
HETATM   18  C   UNL     1     -11.459  10.645  68.628  1.00  0.00    -0.332 A  
HETATM   19  C   UNL     1     -11.529  11.679  67.681  1.00  0.00    -0.373 A  
BRANCH  17  20
HETATM   20  N   UNL     1     -11.050  12.574  65.453  1.00  0.00    -0.293 N  
HETATM   21  C   UNL     1      -9.942  13.403  65.091  1.00  0.00    -0.167 C  
HETATM   22  C   UNL     1     -10.631  14.657  64.606  1.00  0.00    -0.240 C  
HETATM   23  O   UNL     1     -11.878  14.171  64.090  1.00  0.00    -0.401 OA 
HETATM   24  O   UNL     1     -13.274  12.489  64.683  1.00  0.00    -0.848 OA 
HETATM   25  C   UNL     1     -12.168  12.997  64.748  1.00  0.00    -0.435 C  
BRANCH  22  26
HETATM   26  C   UNL     1     -10.893  15.683  65.715  1.00  0.00    -0.306 C  
HETATM   27  H   UNL     1     -10.804  17.662  65.983  1.00  0.00     0.000 HD 
HETATM   28  O   UNL     1     -10.641  17.025  65.296  1.00  0.00    -0.647 OA 
ENDBRANCH  22  26
ENDBRANCH  17  20
ENDBRANCH  10  13
ENDBRANCH   5   7
TORSDOF 4
ENDMDL
MODEL       17
REMARK 921   NORMALIZED FREE ENERGY PREDICTED BY IDOCK:   -6.17 KCAL/MOL
REMARK 922        TOTAL FREE ENERGY PREDICTED BY IDOCK:   -8.36 KCAL/MOL
REMARK 923 INTER-LIGAND FREE ENERGY PREDICTED BY IDOCK:   -7.98 KCAL/MOL
REMARK 924 INTRA-LIGAND FREE ENERGY PREDICTED BY IDOCK:   -0.38 KCAL/MOL
REMARK 927      BINDING AFFINITY PREDICTED BY RF-SCORE:    0.00 PKD
ROOT
HETATM    1  C   UNL     1     -11.546  15.887  64.272  1.00  0.00    -0.178 C  
HETATM    2  N   UNL     1     -11.812  14.557  64.755  1.00  0.00    -0.420 NA 
HETATM    3  N   UNL     1     -12.783  13.785  64.257  1.00  0.00    -0.653 NA 
HETATM    4  N   UNL     1     -12.769  12.700  65.020  1.00  0.00    -0.771 NA 
HETATM    5  C   UNL     1     -11.775  12.882  65.958  1.00  0.00    -0.404 A  
HETATM    6  N   UNL     1     -11.138  14.061  65.801  1.00  0.00    -0.301 NA 
ENDROOT
BRANCH   5   7
HETATM    7  C   UNL     1     -11.480  11.949  67.043  1.00  0.00    -0.316 A  
HETATM    8  N   UNL     1     -10.971  10.731  66.732  1.00  0.00    -0.200 NA 
HETATM    9  C   UNL     1     -10.770   9.866  67.758  1.00  0.00    -0.277 A  
HETATM   10  C   UNL     1     -11.072  10.109  69.105  1.00  0.00    -0.257 A  
HETATM   11  C   UNL     1     -11.776  12.307  68.353  1.00  0.00    -0.390 A  
HETATM   12  C   UNL     1     -11.581  11.385  69.375  1.00  0.00    -0.391 A  
BRANCH  10  13
HETATM   13  C   UNL     1     -10.856   9.103  70.166  1.00  0.00    -0.269 A  
HETATM   14  C   UNL     1     -11.397   9.233  71.455  1.00  0.00    -0.385 A  
HETATM   15  C   UNL     1     -11.161   8.300  72.467  1.00  0.00    -0.446 A  
HETATM   16  F   UNL     1     -12.165  10.288  71.773  1.00  0.00    -0.448 F  
HETATM   17  C   UNL     1     -10.358   7.185  72.238  1.00  0.00    -0.201 A  
HETATM   18  C   UNL     1     -10.094   7.947  69.932  1.00  0.00    -0.197 A  
HETATM   19  C   UNL     1      -9.843   7.011  70.948  1.00  0.00    -0.190 A  
BRANCH  17  20
HETATM   20  N   UNL     1     -10.103   6.241  73.258  1.00  0.00    -0.183 N  
HETATM   21  C   UNL     1      -8.925   6.241  74.070  1.00  0.00    -0.132 C  
HETATM   22  C   UNL     1      -8.831   4.792  74.489  1.00  0.00    -0.111 C  
HETATM   23  O   UNL     1     -10.199   4.363  74.506  1.00  0.00    -0.195 OA 
HETATM   24  O   UNL     1     -12.021   4.875  73.261  1.00  0.00    -0.193 OA 
HETATM   25  C   UNL     1     -10.894   5.161  73.626  1.00  0.00    -0.305 C  
BRANCH  22  26
HETATM   26  C   UNL     1      -8.026   3.922  73.518  1.00  0.00    -0.088 C  
HETATM   27  H   UNL     1      -6.673   4.149  72.064  1.00  0.00     0.000 HD 
HETATM   28  O   UNL     1      -7.172   4.688  72.666  1.00  0.00    -0.076 OA 
ENDBRANCH  22  26
ENDBRANCH  17  20
ENDBRANCH  10  13
ENDBRANCH   5   7
TORSDOF 4
ENDMDL
MODEL       18
REMARK 921   NORMALIZED FREE ENERGY PREDICTED BY IDOCK:   -6.16 KCAL/MOL
REMARK 922        TOTAL FREE ENERGY PREDICTED BY IDOCK:   -8.35 KCAL/MOL
REMARK 923 INTER-LIGAND FREE ENERGY PREDICTED BY IDOCK:   -7.88 KCAL/MOL
REMARK 924 INTRA-LIGAND FREE ENERGY PREDICTED BY IDOCK:   -0.47 KCAL/MOL
REMARK 927      BINDING AFFINITY PREDICTED BY RF-SCORE:    0.00 PKD
ROOT
HETATM    1  C   UNL     1     -11.080   5.188  72.701  1.00  0.00    -0.234 C  
HETATM    2  N   UNL     1     -11.020   5.887  71.445  1.00  0.00    -0.272 NA 
HETATM    3  N   UNL     1     -10.724   5.280  70.291  1.00  0.00    -0.225 NA 
HETATM    4  N   UNL     1     -10.673   6.264  69.402  1.00  0.00    -0.267 NA 
HETATM    5  C   UNL     1     -10.940   7.433  70.081  1.00  0.00    -0.255 A  
HETATM    6  N   UNL     1     -11.178   7.216  71.392  1.00  0.00    -0.246 NA 
ENDROOT
BRANCH   5   7
HETATM    7  C   UNL     1     -10.905   8.765  69.482  1.00  0.00    -0.142 A  
HETATM    8  N   UNL     1     -10.338   8.912  68.259  1.00  0.00    -0.205 NA 
HETATM    9  C   UNL     1     -10.263  10.173  67.761  1.00  0.00    -0.191 A  
HETATM   10  C   UNL     1     -10.691  11.337  68.414  1.00  0.00    -0.238 A  
HETATM   11  C   UNL     1     -11.400   9.850  70.197  1.00  0.00    -0.335 A  
HETATM   12  C   UNL     1     -11.282  11.130  69.666  1.00  0.00    -0.333 A  
BRANCH  10  13
HETATM   13  C   UNL     1     -10.547  12.683  67.821  1.00  0.00    -0.233 A  
HETATM   14  C   UNL     1      -9.436  13.056  67.048  1.00  0.00    -0.237 A  
HETATM   15  C   UNL     1      -9.284  14.339  66.519  1.00  0.00    -0.259 A  
HETATM   16  F   UNL     1      -8.453  12.178  66.793  1.00  0.00    -0.177 F  
HETATM   17  C   UNL     1     -10.242  15.325  66.748  1.00  0.00    -0.272 A  
HETATM   18  C   UNL     1     -11.531  13.670  67.999  1.00  0.00    -0.345 A  
HETATM   19  C   UNL     1     -11.379  14.966  67.481  1.00  0.00    -0.351 A  
BRANCH  17  20
HETATM   20  N   UNL     1     -10.092  16.631  66.229  1.00  0.00    -0.313 N  
HETATM   21  C   UNL     1      -9.211  17.614  66.780  1.00  0.00    -0.271 C  
HETATM   22  C   UNL     1      -9.859  18.904  66.334  1.00  0.00    -0.375 C  
HETATM   23  O   UNL     1     -10.501  18.543  65.103  1.00  0.00    -0.260 OA 
HETATM   24  O   UNL     1     -11.515  16.662  64.353  1.00  0.00    -0.959 OA 
HETATM   25  C   UNL     1     -10.768  17.194  65.155  1.00  0.00     0.004 C  
BRANCH  22  26
HETATM   26  C   UNL     1     -10.899  19.444  67.322  1.00  0.00    -0.448 C  
HETATM   27  H   UNL     1     -10.952  20.324  69.116  1.00  0.00     0.000 HD 
HETATM   28  O   UNL     1     -10.308  19.989  68.503  1.00  0.00    -0.438 OA 
ENDBRANCH  22  26
ENDBRANCH  17  20
ENDBRANCH  10  13
ENDBRANCH   5   7
TORSDOF 4
ENDMDL
MODEL       19
REMARK 921   NORMALIZED FREE ENERGY PREDICTED BY IDOCK:   -6.15 KCAL/MOL
REMARK 922        TOTAL FREE ENERGY PREDICTED BY IDOCK:   -8.34 KCAL/MOL
REMARK 923 INTER-LIGAND FREE ENERGY PREDICTED BY IDOCK:   -7.77 KCAL/MOL
REMARK 924 INTRA-LIGAND FREE ENERGY PREDICTED BY IDOCK:   -0.57 KCAL/MOL
REMARK 927      BINDING AFFINITY PREDICTED BY RF-SCORE:    0.00 PKD
ROOT
HETATM    1  C   UNL     1      -9.031   1.624  72.987  1.00  0.00    -0.062 C  
HETATM    2  N   UNL     1      -9.879   2.784  73.067  1.00  0.00    -0.108 NA 
HETATM    3  N   UNL     1     -11.063   2.775  73.687  1.00  0.00    -0.215 NA 
HETATM    4  N   UNL     1     -11.568   3.981  73.457  1.00  0.00    -0.138 NA 
HETATM    5  C   UNL     1     -10.645   4.663  72.693  1.00  0.00    -0.195 A  
HETATM    6  N   UNL     1      -9.547   3.920  72.439  1.00  0.00    -0.131 NA 
ENDROOT
BRANCH   5   7
HETATM    7  C   UNL     1     -10.847   6.006  72.154  1.00  0.00    -0.251 A  
HETATM    8  N   UNL     1     -11.150   6.139  70.839  1.00  0.00    -0.301 NA 
HETATM    9  C   UNL     1     -11.266   7.403  70.357  1.00  0.00    -0.262 A  
HETATM   10  C   UNL     1     -11.068   8.580  71.092  1.00  0.00    -0.312 A  
HETATM   11  C   UNL     1     -10.672   7.108  72.982  1.00  0.00    -0.359 A  
HETATM   12  C   UNL     1     -10.773   8.389  72.447  1.00  0.00    -0.405 A  
BRANCH  10  13
HETATM   13  C   UNL     1     -11.180   9.925  70.490  1.00  0.00    -0.399 A  
HETATM   14  C   UNL     1     -12.101  10.884  70.942  1.00  0.00    -0.349 A  
HETATM   15  C   UNL     1     -12.230  12.141  70.348  1.00  0.00    -0.378 A  
HETATM   16  F   UNL     1     -12.918  10.617  71.974  1.00  0.00    -0.511 F  
HETATM   17  C   UNL     1     -11.442  12.501  69.257  1.00  0.00    -0.293 A  
HETATM   18  C   UNL     1     -10.353  10.320  69.426  1.00  0.00    -0.256 A  
HETATM   19  C   UNL     1     -10.486  11.578  68.816  1.00  0.00    -0.227 A  
BRANCH  17  20
HETATM   20  N   UNL     1     -11.572  13.765  68.640  1.00  0.00    -0.310 N  
HETATM   21  C   UNL     1     -11.945  13.953  67.272  1.00  0.00    -0.411 C  
HETATM   22  C   UNL     1     -11.341  15.302  66.962  1.00  0.00    -0.230 C  
HETATM   23  O   UNL     1     -11.366  15.974  68.229  1.00  0.00    -0.353 OA 
HETATM   24  O   UNL     1     -11.116  15.292  70.374  1.00  0.00    -0.269 OA 
HETATM   25  C   UNL     1     -11.340  15.010  69.210  1.00  0.00    -0.296 C  
BRANCH  22  26
HETATM   26  C   UNL     1      -9.901  15.226  66.443  1.00  0.00    -0.275 C  
HETATM   27  H   UNL     1      -8.675  16.266  65.255  1.00  0.00     0.000 HD 
HETATM   28  O   UNL     1      -9.568  16.312  65.576  1.00  0.00    -0.474 OA 
ENDBRANCH  22  26
ENDBRANCH  17  20
ENDBRANCH  10  13
ENDBRANCH   5   7
TORSDOF 4
ENDMDL
MODEL       20
REMARK 921   NORMALIZED FREE ENERGY PREDICTED BY IDOCK:   -6.14 KCAL/MOL
REMARK 922        TOTAL FREE ENERGY PREDICTED BY IDOCK:   -8.33 KCAL/MOL
REMARK 923 INTER-LIGAND FREE ENERGY PREDICTED BY IDOCK:   -7.63 KCAL/MOL
REMARK 924 INTRA-LIGAND FREE ENERGY PREDICTED BY IDOCK:   -0.70 KCAL/MOL
REMARK 927      BINDING AFFINITY PREDICTED BY RF-SCORE:    0.00 PKD
ROOT
HETATM    1  C   UNL     1     -10.047   4.739  69.583  1.00  0.00    -0.205 C  
HETATM    2  N   UNL     1     -10.359   5.849  68.722  1.00  0.00    -0.196 NA 
HETATM    3  N   UNL     1     -10.757   5.695  67.455  1.00  0.00    -0.228 NA 
HETATM    4  N   UNL     1     -10.846   6.931  66.982  1.00  0.00    -0.375 NA 
HETATM    5  C   UNL     1     -10.485   7.780  68.006  1.00  0.00    -0.185 A  
HETATM    6  N   UNL     1     -10.179   7.110  69.137  1.00  0.00    -0.188 NA 
ENDROOT
BRANCH   5   7
HETATM    7  C   UNL     1     -10.373   9.231  67.878  1.00  0.00    -0.227 A  
HETATM    8  N   UNL     1     -10.167   9.968  68.998  1.00  0.00    -0.191 NA 
HETATM    9  C   UNL     1     -10.134  11.317  68.852  1.00  0.00    -0.170 A  
HETATM   10  C   UNL     1     -10.326  12.015  67.652  1.00  0.00    -0.213 A  
HETATM   11  C   UNL     1     -10.534   9.822  66.630  1.00  0.00    -0.233 A  
HETATM   12  C   UNL     1     -10.520  11.209  66.523  1.00  0.00    -0.305 A  
BRANCH  10  13
HETATM   13  C   UNL     1     -10.309  13.491  67.575  1.00  0.00    -0.237 A  
HETATM   14  C   UNL     1     -11.329  14.289  68.117  1.00  0.00    -0.288 A  
HETATM   15  C   UNL     1     -11.329  15.682  68.012  1.00  0.00    -0.324 A  
HETATM   16  F   UNL     1     -12.369  13.732  68.759  1.00  0.00    -0.389 F  
HETATM   17  C   UNL     1     -10.304  16.349  67.345  1.00  0.00    -0.295 A  
HETATM   18  C   UNL     1      -9.254  14.178  66.954  1.00  0.00    -0.270 A  
HETATM   19  C   UNL     1      -9.254  15.577  66.833  1.00  0.00    -0.257 A  
BRANCH  17  20
HETATM   20  N   UNL     1     -10.301  17.757  67.222  1.00  0.00    -0.353 N  
HETATM   21  C   UNL     1     -10.401  18.450  65.974  1.00  0.00    -0.375 C  
HETATM   22  C   UNL     1      -9.735  19.768  66.291  1.00  0.00    -0.435 C  
HETATM   23  O   UNL     1      -9.997  19.942  67.691  1.00  0.00    -0.369 OA 
HETATM   24  O   UNL     1     -10.172  18.521  69.445  1.00  0.00    -0.163 OA 
HETATM   25  C   UNL     1     -10.170  18.692  68.239  1.00  0.00    -0.380 C  
BRANCH  22  26
HETATM   26  C   UNL     1      -8.222  19.768  66.042  1.00  0.00    -0.311 C  
HETATM   27  H   UNL     1      -6.813  18.533  65.348  1.00  0.00     0.000 HD 
HETATM   28  O   UNL     1      -7.750  18.533  65.503  1.00  0.00    -0.472 OA 
ENDBRANCH  22  26
ENDBRANCH  17  20
ENDBRANCH  10  13
ENDBRANCH   5   7
TORSDOF 4
ENDMDL
MODEL       21
REMARK 921   NORMALIZED FREE ENERGY PREDICTED BY IDOCK:   -6.13 KCAL/MOL
REMARK 922        TOTAL FREE ENERGY PREDICTED BY IDOCK:   -8.32 KCAL/MOL
REMARK 923 INTER-LIGAND FREE ENERGY PREDICTED BY IDOCK:   -7.96 KCAL/MOL
REMARK 924 INTRA-LIGAND FREE ENERGY PREDICTED BY IDOCK:   -0.36 KCAL/MOL
REMARK 927      BINDING AFFINITY PREDICTED BY RF-SCORE:    0.00 PKD
ROOT
HETATM    1  C   UNL     1     -10.634   2.676  73.634  1.00  0.00    -0.163 C  
HETATM    2  N   UNL     1     -10.546   4.104  73.480  1.00  0.00    -0.184 NA 
HETATM    3  N   UNL     1     -10.675   4.953  74.505  1.00  0.00    -0.350 NA 
HETATM    4  N   UNL     1     -10.633   6.156  73.947  1.00  0.00    -0.259 NA 
HETATM    5  C   UNL     1     -10.485   5.964  72.590  1.00  0.00    -0.206 A  
HETATM    6  N   UNL     1     -10.414   4.655  72.267  1.00  0.00    -0.193 NA 
ENDROOT
BRANCH   5   7
HETATM    7  C   UNL     1     -10.473   7.037  71.598  1.00  0.00    -0.199 A  
HETATM    8  N   UNL     1     -10.558   8.320  72.028  1.00  0.00    -0.271 NA 
HETATM    9  C   UNL     1     -10.611   9.287  71.077  1.00  0.00    -0.316 A  
HETATM   10  C   UNL     1     -10.618   9.074  69.692  1.00  0.00    -0.230 A  
HETATM   11  C   UNL     1     -10.431   6.717  70.246  1.00  0.00    -0.238 A  
HETATM   12  C   UNL     1     -10.514   7.734  69.300  1.00  0.00    -0.221 A  
BRANCH  10  13
HETATM   13  C   UNL     1     -10.711  10.178  68.715  1.00  0.00    -0.247 A  
HETATM   14  C   UNL     1     -11.326  11.405  69.013  1.00  0.00    -0.280 A  
HETATM   15  C   UNL     1     -11.446  12.434  68.077  1.00  0.00    -0.377 A  
HETATM   16  F   UNL     1     -11.844  11.634  70.231  1.00  0.00    -0.369 F  
HETATM   17  C   UNL     1     -10.959  12.281  66.780  1.00  0.00    -0.276 A  
HETATM   18  C   UNL     1     -10.176  10.057  67.422  1.00  0.00    -0.269 A  
HETATM   19  C   UNL     1     -10.304  11.083  66.472  1.00  0.00    -0.295 A  
BRANCH  17  20
HETATM   20  N   UNL     1     -11.085  13.310  65.821  1.00  0.00    -0.279 N  
HETATM   21  C   UNL     1      -9.977  14.016  65.255  1.00  0.00    -0.252 C  
HETATM   22  C   UNL     1     -10.610  15.325  64.848  1.00  0.00    -0.351 C  
HETATM   23  O   UNL     1     -11.967  14.960  64.560  1.00  0.00    -0.447 OA 
HETATM   24  O   UNL     1     -13.404  13.441  65.430  1.00  0.00    -0.506 OA 
HETATM   25  C   UNL     1     -12.258  13.834  65.295  1.00  0.00    -0.439 C  
BRANCH  22  26
HETATM   26  C   UNL     1     -10.582  16.391  65.949  1.00  0.00    -0.285 C  
HETATM   27  H   UNL     1      -9.335  17.779  66.665  1.00  0.00     0.000 HD 
HETATM   28  O   UNL     1      -9.353  17.118  65.983  1.00  0.00    -0.461 OA 
ENDBRANCH  22  26
ENDBRANCH  17  20
ENDBRANCH  10  13
ENDBRANCH   5   7
TORSDOF 4
ENDMDL
MODEL       22
REMARK 921   NORMALIZED FREE ENERGY PREDICTED BY IDOCK:   -6.08 KCAL/MOL
REMARK 922        TOTAL FREE ENERGY PREDICTED BY IDOCK:   -8.25 KCAL/MOL
REMARK 923 INTER-LIGAND FREE ENERGY PREDICTED BY IDOCK:   -7.55 KCAL/MOL
REMARK 924 INTRA-LIGAND FREE ENERGY PREDICTED BY IDOCK:   -0.70 KCAL/MOL
REMARK 927      BINDING AFFINITY PREDICTED BY RF-SCORE:    0.00 PKD
ROOT
HETATM    1  C   UNL     1      -8.403   4.232  65.561  1.00  0.00    -0.110 C  
HETATM    2  N   UNL     1      -9.217   5.278  66.122  1.00  0.00    -0.150 NA 
HETATM    3  N   UNL     1     -10.397   5.044  66.705  1.00  0.00    -0.267 NA 
HETATM    4  N   UNL     1     -10.868   6.250  66.996  1.00  0.00    -0.364 NA 
HETATM    5  C   UNL     1      -9.932   7.163  66.560  1.00  0.00    -0.103 A  
HETATM    6  N   UNL     1      -8.857   6.562  66.006  1.00  0.00    -0.154 NA 
ENDROOT
BRANCH   5   7
HETATM    7  C   UNL     1     -10.099   8.613  66.619  1.00  0.00    -0.294 A  
HETATM    8  N   UNL     1      -9.686   9.358  65.565  1.00  0.00    -0.276 NA 
HETATM    9  C   UNL     1      -9.795  10.706  65.680  1.00  0.00    -0.251 A  
HETATM   10  C   UNL     1     -10.267  11.395  66.806  1.00  0.00    -0.258 A  
HETATM   11  C   UNL     1     -10.623   9.195  67.768  1.00  0.00    -0.289 A  
HETATM   12  C   UNL     1     -10.696  10.581  67.861  1.00  0.00    -0.305 A  
BRANCH  10  13
HETATM   13  C   UNL     1     -10.327  12.870  66.872  1.00  0.00    -0.247 A  
HETATM   14  C   UNL     1     -11.482  13.598  66.541  1.00  0.00    -0.335 A  
HETATM   15  C   UNL     1     -11.525  14.993  66.569  1.00  0.00    -0.239 A  
HETATM   16  F   UNL     1     -12.606  12.966  66.165  1.00  0.00    -0.431 F  
HETATM   17  C   UNL     1     -10.401  15.737  66.924  1.00  0.00    -0.295 A  
HETATM   18  C   UNL     1      -9.218  13.629  67.282  1.00  0.00    -0.232 A  
HETATM   19  C   UNL     1      -9.251  15.032  67.300  1.00  0.00    -0.210 A  
BRANCH  17  20
HETATM   20  N   UNL     1     -10.430  17.149  66.944  1.00  0.00    -0.305 N  
HETATM   21  C   UNL     1     -10.451  17.964  65.769  1.00  0.00    -0.196 C  
HETATM   22  C   UNL     1      -9.852  19.257  66.270  1.00  0.00    -0.392 C  
HETATM   23  O   UNL     1     -10.229  19.281  67.654  1.00  0.00    -0.357 OA 
HETATM   24  O   UNL     1     -10.500  17.683  69.236  1.00  0.00    -0.293 OA 
HETATM   25  C   UNL     1     -10.408  17.978  68.057  1.00  0.00    -0.387 C  
BRANCH  22  26
HETATM   26  C   UNL     1      -8.325  19.315  66.147  1.00  0.00    -0.273 C  
HETATM   27  H   UNL     1      -6.815  18.126  65.602  1.00  0.00     0.000 HD 
HETATM   28  O   UNL     1      -7.761  18.090  65.678  1.00  0.00    -0.539 OA 
ENDBRANCH  22  26
ENDBRANCH  17  20
ENDBRANCH  10  13
ENDBRANCH   5   7
TORSDOF 4
ENDMDL
MODEL       23
REMARK 921   NORMALIZED FREE ENERGY PREDICTED BY IDOCK:   -6.07 KCAL/MOL
REMARK 922        TOTAL FREE ENERGY PREDICTED BY IDOCK:   -8.24 KCAL/MOL
REMARK 923 INTER-LIGAND FREE ENERGY PREDICTED BY IDOCK:   -7.80 KCAL/MOL
REMARK 924 INTRA-LIGAND FREE ENERGY PREDICTED BY IDOCK:   -0.44 KCAL/MOL
REMARK 927      BINDING AFFINITY PREDICTED BY RF-SCORE:    0.00 PKD
ROOT
HETATM    1  C   UNL     1      -9.582  20.500  66.789  1.00  0.00    -0.310 C  
HETATM    2  N   UNL     1      -9.906  19.128  66.498  1.00  0.00    -0.348 NA 
HETATM    3  N   UNL     1     -10.471  18.745  65.348  1.00  0.00    -0.419 NA 
HETATM    4  N   UNL     1     -10.696  17.446  65.506  1.00  0.00    -0.522 NA 
HETATM    5  C   UNL     1     -10.252  17.112  66.767  1.00  0.00    -0.311 A  
HETATM    6  N   UNL     1      -9.729  18.172  67.419  1.00  0.00    -0.289 NA 
ENDROOT
BRANCH   5   7
HETATM    7  C   UNL     1     -10.386  15.787  67.368  1.00  0.00    -0.282 A  
HETATM    8  N   UNL     1     -10.784  14.755  66.584  1.00  0.00    -0.303 NA 
HETATM    9  C   UNL     1     -10.962  13.553  67.188  1.00  0.00    -0.291 A  
HETATM   10  C   UNL     1     -10.802  13.294  68.556  1.00  0.00    -0.286 A  
HETATM   11  C   UNL     1     -10.158  15.628  68.730  1.00  0.00    -0.211 A  
HETATM   12  C   UNL     1     -10.376  14.387  69.320  1.00  0.00    -0.116 A  
BRANCH  10  13
HETATM   13  C   UNL     1     -11.046  11.962  69.150  1.00  0.00    -0.285 A  
HETATM   14  C   UNL     1     -11.949  11.758  70.206  1.00  0.00    -0.343 A  
HETATM   15  C   UNL     1     -12.152  10.506  70.790  1.00  0.00    -0.470 A  
HETATM   16  F   UNL     1     -12.657  12.781  70.711  1.00  0.00    -0.400 F  
HETATM   17  C   UNL     1     -11.447   9.388  70.348  1.00  0.00    -0.223 A  
HETATM   18  C   UNL     1     -10.383  10.818  68.678  1.00  0.00    -0.208 A  
HETATM   19  C   UNL     1     -10.572   9.559  69.268  1.00  0.00    -0.236 A  
BRANCH  17  20
HETATM   20  N   UNL     1     -11.634   8.118  70.939  1.00  0.00    -0.281 N  
HETATM   21  C   UNL     1     -11.873   7.915  72.335  1.00  0.00    -0.348 C  
HETATM   22  C   UNL     1     -11.376   6.503  72.538  1.00  0.00    -0.262 C  
HETATM   23  O   UNL     1     -11.604   5.886  71.263  1.00  0.00    -0.203 OA 
HETATM   24  O   UNL     1     -11.521   6.623  69.123  1.00  0.00    -0.244 OA 
HETATM   25  C   UNL     1     -11.589   6.881  70.313  1.00  0.00    -0.311 C  
BRANCH  22  26
HETATM   26  C   UNL     1      -9.887   6.421  72.895  1.00  0.00    -0.167 C  
HETATM   27  H   UNL     1      -8.357   5.154  72.676  1.00  0.00     0.000 HD 
HETATM   28  O   UNL     1      -9.280   5.205  72.454  1.00  0.00    -0.133 OA 
ENDBRANCH  22  26
ENDBRANCH  17  20
ENDBRANCH  10  13
ENDBRANCH   5   7
TORSDOF 4
ENDMDL
MODEL       24
REMARK 921   NORMALIZED FREE ENERGY PREDICTED BY IDOCK:   -6.05 KCAL/MOL
REMARK 922        TOTAL FREE ENERGY PREDICTED BY IDOCK:   -8.22 KCAL/MOL
REMARK 923 INTER-LIGAND FREE ENERGY PREDICTED BY IDOCK:   -7.85 KCAL/MOL
REMARK 924 INTRA-LIGAND FREE ENERGY PREDICTED BY IDOCK:   -0.37 KCAL/MOL
REMARK 927      BINDING AFFINITY PREDICTED BY RF-SCORE:    0.00 PKD
ROOT
HETATM    1  C   UNL     1      -9.930  19.413  66.563  1.00  0.00    -0.396 C  
HETATM    2  N   UNL     1     -10.237  18.163  65.919  1.00  0.00    -0.596 NA 
HETATM    3  N   UNL     1     -11.052  18.072  64.864  1.00  0.00    -0.484 NA 
HETATM    4  N   UNL     1     -11.153  16.769  64.633  1.00  0.00    -0.937 NA 
HETATM    5  C   UNL     1     -10.384  16.133  65.583  1.00  0.00    -0.382 A  
HETATM    6  N   UNL     1      -9.776  17.007  66.413  1.00  0.00    -0.280 NA 
ENDROOT
BRANCH   5   7
HETATM    7  C   UNL     1     -10.284  14.683  65.732  1.00  0.00    -0.340 A  
HETATM    8  N   UNL     1      -9.599  14.184  66.790  1.00  0.00    -0.271 NA 
HETATM    9  C   UNL     1      -9.470  12.835  66.862  1.00  0.00    -0.235 A  
HETATM   10  C   UNL     1      -9.953  11.916  65.921  1.00  0.00    -0.261 A  
HETATM   11  C   UNL     1     -10.841  13.856  64.763  1.00  0.00    -0.430 A  
HETATM   12  C   UNL     1     -10.665  12.479  64.855  1.00  0.00    -0.327 A  
BRANCH  10  13
HETATM   13  C   UNL     1      -9.745  10.458  66.048  1.00  0.00    -0.265 A  
HETATM   14  C   UNL     1     -10.476   9.663  66.946  1.00  0.00    -0.212 A  
HETATM   15  C   UNL     1     -10.253   8.293  67.091  1.00  0.00    -0.365 A  
HETATM   16  F   UNL     1     -11.429  10.205  67.722  1.00  0.00    -0.361 F  
HETATM   17  C   UNL     1      -9.270   7.645  66.345  1.00  0.00    -0.175 A  
HETATM   18  C   UNL     1      -8.795   9.784  65.263  1.00  0.00    -0.206 A  
HETATM   19  C   UNL     1      -8.556   8.408  65.413  1.00  0.00    -0.193 A  
BRANCH  17  20
HETATM   20  N   UNL     1      -9.026   6.261  66.493  1.00  0.00    -0.139 N  
HETATM   21  C   UNL     1      -8.060   5.534  65.728  1.00  0.00    -0.112 C  
HETATM   22  C   UNL     1      -8.611   4.128  65.780  1.00  0.00    -0.114 C  
HETATM   23  O   UNL     1      -9.300   4.089  67.037  1.00  0.00    -0.155 OA 
HETATM   24  O   UNL     1     -10.474   5.613  68.233  1.00  0.00    -0.198 OA 
HETATM   25  C   UNL     1      -9.673   5.377  67.345  1.00  0.00    -0.140 C  
BRANCH  22  26
HETATM   26  C   UNL     1      -9.587   3.808  64.642  1.00  0.00    -0.173 C  
HETATM   27  H   UNL     1      -9.955   4.395  62.767  1.00  0.00     0.000 HD 
HETATM   28  O   UNL     1      -9.350   4.593  63.473  1.00  0.00    -0.098 OA 
ENDBRANCH  22  26
ENDBRANCH  17  20
ENDBRANCH  10  13
ENDBRANCH   5   7
TORSDOF 4
ENDMDL
MODEL       25
REMARK 921   NORMALIZED FREE ENERGY PREDICTED BY IDOCK:   -6.04 KCAL/MOL
REMARK 922        TOTAL FREE ENERGY PREDICTED BY IDOCK:   -8.20 KCAL/MOL
REMARK 923 INTER-LIGAND FREE ENERGY PREDICTED BY IDOCK:   -7.44 KCAL/MOL
REMARK 924 INTRA-LIGAND FREE ENERGY PREDICTED BY IDOCK:   -0.76 KCAL/MOL
REMARK 927      BINDING AFFINITY PREDICTED BY RF-SCORE:    0.00 PKD
ROOT
HETATM    1  C   UNL     1     -10.496   5.517  69.778  1.00  0.00    -0.319 C  
HETATM    2  N   UNL     1     -10.627   6.545  68.781  1.00  0.00    -0.218 NA 
HETATM    3  N   UNL     1     -10.788   6.279  67.480  1.00  0.00    -0.316 NA 
HETATM    4  N   UNL     1     -10.769   7.468  66.892  1.00  0.00    -0.328 NA 
HETATM    5  C   UNL     1     -10.588   8.405  67.887  1.00  0.00    -0.154 A  
HETATM    6  N   UNL     1     -10.506   7.838  69.109  1.00  0.00    -0.219 NA 
ENDROOT
BRANCH   5   7
HETATM    7  C   UNL     1     -10.432   9.839  67.655  1.00  0.00    -0.251 A  
HETATM    8  N   UNL     1      -9.310  10.278  67.032  1.00  0.00    -0.153 NA 
HETATM    9  C   UNL     1      -9.167  11.620  66.892  1.00  0.00    -0.184 A  
HETATM   10  C   UNL     1     -10.060  12.592  67.363  1.00  0.00    -0.211 A  
HETATM   11  C   UNL     1     -11.402  10.717  68.123  1.00  0.00    -0.377 A  
HETATM   12  C   UNL     1     -11.209  12.088  67.985  1.00  0.00    -0.316 A  
BRANCH  10  13
HETATM   13  C   UNL     1      -9.821  14.041  67.202  1.00  0.00    -0.240 A  
HETATM   14  C   UNL     1      -9.974  14.703  65.973  1.00  0.00    -0.316 A  
HETATM   15  C   UNL     1      -9.712  16.065  65.815  1.00  0.00    -0.340 A  
HETATM   16  F   UNL     1     -10.375  14.034  64.880  1.00  0.00    -0.362 F  
HETATM   17  C   UNL     1      -9.271  16.838  66.887  1.00  0.00    -0.232 A  
HETATM   18  C   UNL     1      -9.428  14.842  68.287  1.00  0.00    -0.210 A  
HETATM   19  C   UNL     1      -9.151  16.210  68.132  1.00  0.00    -0.189 A  
BRANCH  17  20
HETATM   20  N   UNL     1      -8.990  18.215  66.736  1.00  0.00    -0.274 N  
HETATM   21  C   UNL     1      -7.762  18.727  66.212  1.00  0.00    -0.272 C  
HETATM   22  C   UNL     1      -7.706  20.105  66.829  1.00  0.00    -0.299 C  
HETATM   23  O   UNL     1      -9.088  20.455  66.981  1.00  0.00    -0.359 OA 
HETATM   24  O   UNL     1     -10.964  19.278  67.456  1.00  0.00    -0.465 OA 
HETATM   25  C   UNL     1      -9.804  19.284  67.084  1.00  0.00    -0.339 C  
BRANCH  22  26
HETATM   26  C   UNL     1      -7.008  20.139  68.193  1.00  0.00    -0.291 C  
HETATM   27  H   UNL     1      -5.438  19.298  69.100  1.00  0.00     0.000 HD 
HETATM   28  O   UNL     1      -5.871  19.277  68.255  1.00  0.00    -0.208 OA 
ENDBRANCH  22  26
ENDBRANCH  17  20
ENDBRANCH  10  13
ENDBRANCH   5   7
TORSDOF 4
ENDMDL
MODEL       26
REMARK 921   NORMALIZED FREE ENERGY PREDICTED BY IDOCK:   -5.99 KCAL/MOL
REMARK 922        TOTAL FREE ENERGY PREDICTED BY IDOCK:   -8.14 KCAL/MOL
REMARK 923 INTER-LIGAND FREE ENERGY PREDICTED BY IDOCK:   -7.36 KCAL/MOL
REMARK 924 INTRA-LIGAND FREE ENERGY PREDICTED BY IDOCK:   -0.78 KCAL/MOL
REMARK 927      BINDING AFFINITY PREDICTED BY RF-SCORE:    0.00 PKD
ROOT
HETATM    1  C   UNL     1      -8.653   4.252  65.609  1.00  0.00    -0.118 C  
HETATM    2  N   UNL     1      -9.423   5.319  66.192  1.00  0.00    -0.155 NA 
HETATM    3  N   UNL     1     -10.591   5.116  66.810  1.00  0.00    -0.251 NA 
HETATM    4  N   UNL     1     -11.023   6.334  67.111  1.00  0.00    -0.372 NA 
HETATM    5  C   UNL     1     -10.077   7.222  66.645  1.00  0.00    -0.168 A  
HETATM    6  N   UNL     1      -9.034   6.594  66.061  1.00  0.00    -0.142 NA 
ENDROOT
BRANCH   5   7
HETATM    7  C   UNL     1     -10.206   8.676  66.706  1.00  0.00    -0.291 A  
HETATM    8  N   UNL     1      -9.756   9.412  65.660  1.00  0.00    -0.286 NA 
HETATM    9  C   UNL     1      -9.830  10.762  65.777  1.00  0.00    -0.240 A  
HETATM   10  C   UNL     1     -10.301  11.461  66.897  1.00  0.00    -0.262 A  
HETATM   11  C   UNL     1     -10.731   9.270  67.848  1.00  0.00    -0.248 A  
HETATM   12  C   UNL     1     -10.768  10.657  67.943  1.00  0.00    -0.292 A  
BRANCH  10  13
HETATM   13  C   UNL     1     -10.322  12.938  66.966  1.00  0.00    -0.245 A  
HETATM   14  C   UNL     1      -9.154  13.707  67.085  1.00  0.00    -0.239 A  
HETATM   15  C   UNL     1      -9.178  15.099  67.186  1.00  0.00    -0.226 A  
HETATM   16  F   UNL     1      -7.946  13.120  67.118  1.00  0.00    -0.167 F  
HETATM   17  C   UNL     1     -10.384  15.796  67.183  1.00  0.00    -0.291 A  
HETATM   18  C   UNL     1     -11.528  13.655  66.909  1.00  0.00    -0.369 A  
HETATM   19  C   UNL     1     -11.560  15.054  67.023  1.00  0.00    -0.248 A  
BRANCH  17  20
HETATM   20  N   UNL     1     -10.421  17.204  67.298  1.00  0.00    -0.328 N  
HETATM   21  C   UNL     1     -10.471  18.096  66.181  1.00  0.00    -0.364 C  
HETATM   22  C   UNL     1      -9.870  19.357  66.756  1.00  0.00    -0.362 C  
HETATM   23  O   UNL     1     -10.220  19.285  68.146  1.00  0.00    -0.383 OA 
HETATM   24  O   UNL     1     -10.450  17.583  69.622  1.00  0.00    -0.129 OA 
HETATM   25  C   UNL     1     -10.383  17.956  68.464  1.00  0.00    -0.360 C  
BRANCH  22  26
HETATM   26  C   UNL     1      -8.346  19.435  66.608  1.00  0.00    -0.310 C  
HETATM   27  H   UNL     1      -6.878  18.473  65.653  1.00  0.00     0.000 HD 
HETATM   28  O   UNL     1      -7.822  18.425  65.745  1.00  0.00    -0.510 OA 
ENDBRANCH  22  26
ENDBRANCH  17  20
ENDBRANCH  10  13
ENDBRANCH   5   7
TORSDOF 4
ENDMDL
MODEL       27
REMARK 921   NORMALIZED FREE ENERGY PREDICTED BY IDOCK:   -5.96 KCAL/MOL
REMARK 922        TOTAL FREE ENERGY PREDICTED BY IDOCK:   -8.11 KCAL/MOL
REMARK 923 INTER-LIGAND FREE ENERGY PREDICTED BY IDOCK:   -7.44 KCAL/MOL
REMARK 924 INTRA-LIGAND FREE ENERGY PREDICTED BY IDOCK:   -0.67 KCAL/MOL
REMARK 927      BINDING AFFINITY PREDICTED BY RF-SCORE:    0.00 PKD
ROOT
HETATM    1  C   UNL     1     -10.576  19.152  65.791  1.00  0.00    -0.341 C  
HETATM    2  N   UNL     1     -10.653  17.734  65.557  1.00  0.00    -0.615 NA 
HETATM    3  N   UNL     1     -11.120  17.210  64.419  1.00  0.00    -0.868 NA 
HETATM    4  N   UNL     1     -11.121  15.900  64.632  1.00  0.00    -0.532 NA 
HETATM    5  C   UNL     1     -10.651  15.701  65.912  1.00  0.00    -0.343 A  
HETATM    6  N   UNL     1     -10.332  16.863  66.523  1.00  0.00    -0.311 NA 
ENDROOT
BRANCH   5   7
HETATM    7  C   UNL     1     -10.567  14.400  66.571  1.00  0.00    -0.296 A  
HETATM    8  N   UNL     1     -11.531  13.481  66.318  1.00  0.00    -0.316 NA 
HETATM    9  C   UNL     1     -11.458  12.307  66.996  1.00  0.00    -0.354 A  
HETATM   10  C   UNL     1     -10.493  11.976  67.957  1.00  0.00    -0.224 A  
HETATM   11  C   UNL     1      -9.539  14.156  67.475  1.00  0.00    -0.223 A  
HETATM   12  C   UNL     1      -9.512  12.951  68.171  1.00  0.00    -0.218 A  
BRANCH  10  13
HETATM   13  C   UNL     1     -10.497  10.687  68.681  1.00  0.00    -0.211 A  
HETATM   14  C   UNL     1      -9.592   9.653  68.392  1.00  0.00    -0.144 A  
HETATM   15  C   UNL     1      -9.620   8.423  69.052  1.00  0.00    -0.160 A  
HETATM   16  F   UNL     1      -8.655   9.808  67.442  1.00  0.00    -0.124 F  
HETATM   17  C   UNL     1     -10.570   8.161  70.037  1.00  0.00    -0.239 A  
HETATM   18  C   UNL     1     -11.414  10.431  69.713  1.00  0.00    -0.348 A  
HETATM   19  C   UNL     1     -11.456   9.192  70.372  1.00  0.00    -0.228 A  
BRANCH  17  20
HETATM   20  N   UNL     1     -10.617   6.916  70.702  1.00  0.00    -0.218 N  
HETATM   21  C   UNL     1     -10.529   6.765  72.122  1.00  0.00    -0.206 C  
HETATM   22  C   UNL     1      -9.998   5.357  72.257  1.00  0.00    -0.177 C  
HETATM   23  O   UNL     1     -10.512   4.696  71.093  1.00  0.00    -0.130 OA 
HETATM   24  O   UNL     1     -10.923   5.355  68.965  1.00  0.00    -0.107 OA 
HETATM   25  C   UNL     1     -10.716   5.656  70.128  1.00  0.00    -0.305 C  
BRANCH  22  26
HETATM   26  C   UNL     1      -8.467   5.276  72.266  1.00  0.00    -0.125 C  
HETATM   27  H   UNL     1      -7.037   3.881  72.327  1.00  0.00     0.000 HD 
HETATM   28  O   UNL     1      -7.986   3.932  72.322  1.00  0.00    -0.077 OA 
ENDBRANCH  22  26
ENDBRANCH  17  20
ENDBRANCH  10  13
ENDBRANCH   5   7
TORSDOF 4
ENDMDL
MODEL       28
REMARK 921   NORMALIZED FREE ENERGY PREDICTED BY IDOCK:   -5.95 KCAL/MOL
REMARK 922        TOTAL FREE ENERGY PREDICTED BY IDOCK:   -8.09 KCAL/MOL
REMARK 923 INTER-LIGAND FREE ENERGY PREDICTED BY IDOCK:   -7.64 KCAL/MOL
REMARK 924 INTRA-LIGAND FREE ENERGY PREDICTED BY IDOCK:   -0.44 KCAL/MOL
REMARK 927      BINDING AFFINITY PREDICTED BY RF-SCORE:    0.00 PKD
ROOT
HETATM    1  C   UNL     1      -7.403   3.024  66.734  1.00  0.00    -0.070 C  
HETATM    2  N   UNL     1      -8.331   4.101  66.957  1.00  0.00    -0.100 NA 
HETATM    3  N   UNL     1      -9.580   3.904  67.391  1.00  0.00    -0.192 NA 
HETATM    4  N   UNL     1     -10.133   5.111  67.372  1.00  0.00    -0.180 NA 
HETATM    5  C   UNL     1      -9.171   5.985  66.913  1.00  0.00    -0.126 A  
HETATM    6  N   UNL     1      -8.002   5.363  66.651  1.00  0.00    -0.104 NA 
ENDROOT
BRANCH   5   7
HETATM    7  C   UNL     1      -9.395   7.408  66.667  1.00  0.00    -0.170 A  
HETATM    8  N   UNL     1      -8.564   8.059  65.818  1.00  0.00    -0.149 NA 
HETATM    9  C   UNL     1      -8.760   9.393  65.663  1.00  0.00    -0.154 A  
HETATM   10  C   UNL     1      -9.725  10.161  66.330  1.00  0.00    -0.274 A  
HETATM   11  C   UNL     1     -10.413   8.067  67.347  1.00  0.00    -0.357 A  
HETATM   12  C   UNL     1     -10.568   9.440  67.184  1.00  0.00    -0.294 A  
BRANCH  10  13
HETATM   13  C   UNL     1      -9.858  11.620  66.135  1.00  0.00    -0.250 A  
HETATM   14  C   UNL     1     -10.530  12.180  65.036  1.00  0.00    -0.290 A  
HETATM   15  C   UNL     1     -10.623  13.558  64.835  1.00  0.00    -0.409 A  
HETATM   16  F   UNL     1     -11.107  11.394  64.113  1.00  0.00    -0.397 F  
HETATM   17  C   UNL     1     -10.036  14.453  65.727  1.00  0.00    -0.329 A  
HETATM   18  C   UNL     1      -9.318  12.533  67.056  1.00  0.00    -0.210 A  
HETATM   19  C   UNL     1      -9.398  13.919  66.853  1.00  0.00    -0.265 A  
BRANCH  17  20
HETATM   20  N   UNL     1     -10.113  15.849  65.527  1.00  0.00    -0.344 N  
HETATM   21  C   UNL     1      -9.203  16.791  66.102  1.00  0.00    -0.249 C  
HETATM   22  C   UNL     1     -10.034  18.052  66.137  1.00  0.00    -0.285 C  
HETATM   23  O   UNL     1     -10.921  17.894  65.021  1.00  0.00    -0.776 OA 
HETATM   24  O   UNL     1     -11.940  16.113  64.064  1.00  0.00    -0.897 OA 
HETATM   25  C   UNL     1     -11.065  16.545  64.794  1.00  0.00    -0.186 C  
BRANCH  22  26
HETATM   26  C   UNL     1     -10.846  18.218  67.426  1.00  0.00    -0.251 C  
HETATM   27  H   UNL     1     -10.750  17.668  69.345  1.00  0.00     0.000 HD 
HETATM   28  O   UNL     1     -10.246  17.565  68.546  1.00  0.00    -0.335 OA 
ENDBRANCH  22  26
ENDBRANCH  17  20
ENDBRANCH  10  13
ENDBRANCH   5   7
TORSDOF 4
ENDMDL
MODEL       29
REMARK 921   NORMALIZED FREE ENERGY PREDICTED BY IDOCK:   -5.93 KCAL/MOL
REMARK 922        TOTAL FREE ENERGY PREDICTED BY IDOCK:   -8.07 KCAL/MOL
REMARK 923 INTER-LIGAND FREE ENERGY PREDICTED BY IDOCK:   -7.63 KCAL/MOL
REMARK 924 INTRA-LIGAND FREE ENERGY PREDICTED BY IDOCK:   -0.44 KCAL/MOL
REMARK 927      BINDING AFFINITY PREDICTED BY RF-SCORE:    0.00 PKD
ROOT
HETATM    1  C   UNL     1     -10.289  19.399  66.516  1.00  0.00    -0.469 C  
HETATM    2  N   UNL     1     -10.469  18.131  65.860  1.00  0.00    -0.565 NA 
HETATM    3  N   UNL     1     -11.139  17.998  64.710  1.00  0.00    -0.377 NA 
HETATM    4  N   UNL     1     -11.166  16.689  64.491  1.00  0.00    -0.982 NA 
HETATM    5  C   UNL     1     -10.504  16.093  65.543  1.00  0.00    -0.386 A  
HETATM    6  N   UNL     1     -10.037  16.998  66.428  1.00  0.00    -0.306 NA 
ENDROOT
BRANCH   5   7
HETATM    7  C   UNL     1     -10.375  14.649  65.728  1.00  0.00    -0.332 A  
HETATM    8  N   UNL     1      -9.802  14.189  66.867  1.00  0.00    -0.258 NA 
HETATM    9  C   UNL     1      -9.639  12.847  66.978  1.00  0.00    -0.231 A  
HETATM   10  C   UNL     1      -9.980  11.898  66.004  1.00  0.00    -0.258 A  
HETATM   11  C   UNL     1     -10.790  13.790  64.717  1.00  0.00    -0.410 A  
HETATM   12  C   UNL     1     -10.582  12.422  64.854  1.00  0.00    -0.326 A  
BRANCH  10  13
HETATM   13  C   UNL     1      -9.741  10.450  66.181  1.00  0.00    -0.262 A  
HETATM   14  C   UNL     1      -8.745   9.755  65.477  1.00  0.00    -0.149 A  
HETATM   15  C   UNL     1      -8.545   8.380  65.619  1.00  0.00    -0.197 A  
HETATM   16  F   UNL     1      -7.940  10.396  64.615  1.00  0.00    -0.148 F  
HETATM   17  C   UNL     1      -9.345   7.625  66.474  1.00  0.00    -0.189 A  
HETATM   18  C   UNL     1     -10.505   9.688  67.080  1.00  0.00    -0.317 A  
HETATM   19  C   UNL     1     -10.318   8.304  67.218  1.00  0.00    -0.372 A  
BRANCH  17  20
HETATM   20  N   UNL     1      -9.160   6.232  66.616  1.00  0.00    -0.139 N  
HETATM   21  C   UNL     1     -10.219   5.308  66.887  1.00  0.00    -0.241 C  
HETATM   22  C   UNL     1      -9.481   4.169  67.550  1.00  0.00    -0.184 C  
HETATM   23  O   UNL     1      -8.176   4.230  66.958  1.00  0.00    -0.100 OA 
HETATM   24  O   UNL     1      -6.856   5.924  66.238  1.00  0.00    -0.058 OA 
HETATM   25  C   UNL     1      -7.964   5.529  66.557  1.00  0.00    -0.101 C  
BRANCH  22  26
HETATM   26  C   UNL     1      -9.368   4.312  69.072  1.00  0.00    -0.160 C  
HETATM   27  H   UNL     1      -9.668   3.210  70.712  1.00  0.00     0.000 HD 
HETATM   28  O   UNL     1      -9.738   3.121  69.768  1.00  0.00    -0.114 OA 
ENDBRANCH  22  26
ENDBRANCH  17  20
ENDBRANCH  10  13
ENDBRANCH   5   7
TORSDOF 4
ENDMDL
MODEL       30
REMARK 921   NORMALIZED FREE ENERGY PREDICTED BY IDOCK:   -5.92 KCAL/MOL
REMARK 922        TOTAL FREE ENERGY PREDICTED BY IDOCK:   -8.05 KCAL/MOL
REMARK 923 INTER-LIGAND FREE ENERGY PREDICTED BY IDOCK:   -7.67 KCAL/MOL
REMARK 924 INTRA-LIGAND FREE ENERGY PREDICTED BY IDOCK:   -0.38 KCAL/MOL
REMARK 927      BINDING AFFINITY PREDICTED BY RF-SCORE:    0.00 PKD
ROOT
HETATM    1  C   UNL     1      -7.443  20.215  65.570  1.00  0.00    -0.164 C  
HETATM    2  N   UNL     1      -8.550  19.338  65.845  1.00  0.00    -0.428 NA 
HETATM    3  N   UNL     1      -9.825  19.715  65.709  1.00  0.00    -0.405 NA 
HETATM    4  N   UNL     1     -10.527  18.677  66.146  1.00  0.00    -0.449 NA 
HETATM    5  C   UNL     1      -9.620  17.714  66.534  1.00  0.00    -0.292 A  
HETATM    6  N   UNL     1      -8.344  18.110  66.339  1.00  0.00    -0.359 NA 
ENDROOT
BRANCH   5   7
HETATM    7  C   UNL     1      -9.979  16.438  67.149  1.00  0.00    -0.260 A  
HETATM    8  N   UNL     1      -9.571  16.192  68.418  1.00  0.00    -0.205 NA 
HETATM    9  C   UNL     1      -9.865  14.972  68.936  1.00  0.00    -0.233 A  
HETATM   10  C   UNL     1     -10.525  13.935  68.262  1.00  0.00    -0.252 A  
HETATM   11  C   UNL     1     -10.678  15.493  66.407  1.00  0.00    -0.303 A  
HETATM   12  C   UNL     1     -10.939  14.244  66.961  1.00  0.00    -0.305 A  
BRANCH  10  13
HETATM   13  C   UNL     1     -10.782  12.617  68.880  1.00  0.00    -0.201 A  
HETATM   14  C   UNL     1     -10.012  11.480  68.589  1.00  0.00    -0.199 A  
HETATM   15  C   UNL     1     -10.279  10.228  69.147  1.00  0.00    -0.234 A  
HETATM   16  F   UNL     1      -8.976  11.553  67.737  1.00  0.00    -0.145 F  
HETATM   17  C   UNL     1     -11.346  10.049  70.025  1.00  0.00    -0.275 A  
HETATM   18  C   UNL     1     -11.821  12.436  69.809  1.00  0.00    -0.387 A  
HETATM   19  C   UNL     1     -12.102  11.177  70.363  1.00  0.00    -0.475 A  
BRANCH  17  20
HETATM   20  N   UNL     1     -11.633   8.784  70.585  1.00  0.00    -0.247 N  
HETATM   21  C   UNL     1     -12.418   8.593  71.766  1.00  0.00    -0.346 C  
HETATM   22  C   UNL     1     -11.910   7.263  72.271  1.00  0.00    -0.248 C  
HETATM   23  O   UNL     1     -11.511   6.585  71.072  1.00  0.00    -0.302 OA 
HETATM   24  O   UNL     1     -10.608   7.263  69.109  1.00  0.00    -0.212 OA 
HETATM   25  C   UNL     1     -11.199   7.545  70.137  1.00  0.00    -0.196 C  
BRANCH  22  26
HETATM   26  C   UNL     1     -10.713   7.383  73.221  1.00  0.00    -0.391 C  
HETATM   27  H   UNL     1      -8.969   6.470  73.564  1.00  0.00     0.000 HD 
HETATM   28  O   UNL     1      -9.711   6.396  72.975  1.00  0.00    -0.153 OA 
ENDBRANCH  22  26
ENDBRANCH  17  20
ENDBRANCH  10  13
ENDBRANCH   5   7
TORSDOF 4
ENDMDL
MODEL       31
REMARK 921   NORMALIZED FREE ENERGY PREDICTED BY IDOCK:   -5.89 KCAL/MOL
REMARK 922        TOTAL FREE ENERGY PREDICTED BY IDOCK:   -8.01 KCAL/MOL
REMARK 923 INTER-LIGAND FREE ENERGY PREDICTED BY IDOCK:   -7.31 KCAL/MOL
REMARK 924 INTRA-LIGAND FREE ENERGY PREDICTED BY IDOCK:   -0.71 KCAL/MOL
REMARK 927      BINDING AFFINITY PREDICTED BY RF-SCORE:    0.00 PKD
ROOT
HETATM    1  C   UNL     1     -10.699  19.168  65.483  1.00  0.00    -0.071 C  
HETATM    2  N   UNL     1     -10.766  17.732  65.409  1.00  0.00    -0.569 NA 
HETATM    3  N   UNL     1     -11.255  17.082  64.348  1.00  0.00    -1.077 NA 
HETATM    4  N   UNL     1     -11.236  15.804  64.703  1.00  0.00    -0.423 NA 
HETATM    5  C   UNL     1     -10.733  15.751  65.985  1.00  0.00    -0.306 A  
HETATM    6  N   UNL     1     -10.412  16.975  66.456  1.00  0.00    -0.286 NA 
ENDROOT
BRANCH   5   7
HETATM    7  C   UNL     1     -10.618  14.531  66.780  1.00  0.00    -0.276 A  
HETATM    8  N   UNL     1     -10.969  14.573  68.089  1.00  0.00    -0.245 NA 
HETATM    9  C   UNL     1     -10.789  13.440  68.814  1.00  0.00    -0.246 A  
HETATM   10  C   UNL     1     -10.241  12.241  68.335  1.00  0.00    -0.220 A  
HETATM   11  C   UNL     1     -10.105  13.379  66.195  1.00  0.00    -0.304 A  
HETATM   12  C   UNL     1      -9.909  12.244  66.976  1.00  0.00    -0.211 A  
BRANCH  10  13
HETATM   13  C   UNL     1     -10.043  11.055  69.194  1.00  0.00    -0.167 A  
HETATM   14  C   UNL     1      -8.771  10.553  69.513  1.00  0.00    -0.020 A  
HETATM   15  C   UNL     1      -8.587   9.411  70.294  1.00  0.00    -0.249 A  
HETATM   16  F   UNL     1      -7.662  11.158  69.057  1.00  0.00    -0.116 F  
HETATM   17  C   UNL     1      -9.678   8.703  70.794  1.00  0.00    -0.194 A  
HETATM   18  C   UNL     1     -11.133  10.364  69.749  1.00  0.00    -0.352 A  
HETATM   19  C   UNL     1     -10.956   9.208  70.525  1.00  0.00    -0.307 A  
BRANCH  17  20
HETATM   20  N   UNL     1      -9.505   7.538  71.575  1.00  0.00    -0.150 N  
HETATM   21  C   UNL     1      -9.780   6.214  71.109  1.00  0.00    -0.176 C  
HETATM   22  C   UNL     1     -10.056   5.477  72.398  1.00  0.00    -0.179 C  
HETATM   23  O   UNL     1      -9.254   6.179  73.358  1.00  0.00    -0.132 OA 
HETATM   24  O   UNL     1      -8.650   8.347  73.615  1.00  0.00    -0.290 OA 
HETATM   25  C   UNL     1      -9.086   7.464  72.896  1.00  0.00    -0.148 C  
BRANCH  22  26
HETATM   26  C   UNL     1     -11.527   5.512  72.825  1.00  0.00    -0.280 C  
HETATM   27  H   UNL     1     -13.265   6.251  72.169  1.00  0.00     0.000 HD 
HETATM   28  O   UNL     1     -12.352   6.229  71.905  1.00  0.00    -0.312 OA 
ENDBRANCH  22  26
ENDBRANCH  17  20
ENDBRANCH  10  13
ENDBRANCH   5   7
TORSDOF 4
ENDMDL
MODEL       32
REMARK 921   NORMALIZED FREE ENERGY PREDICTED BY IDOCK:   -5.88 KCAL/MOL
REMARK 922        TOTAL FREE ENERGY PREDICTED BY IDOCK:   -8.01 KCAL/MOL
REMARK 923 INTER-LIGAND FREE ENERGY PREDICTED BY IDOCK:   -7.55 KCAL/MOL
REMARK 924 INTRA-LIGAND FREE ENERGY PREDICTED BY IDOCK:   -0.46 KCAL/MOL
REMARK 927      BINDING AFFINITY PREDICTED BY RF-SCORE:    0.00 PKD
ROOT
HETATM    1  C   UNL     1      -8.411   2.837  65.983  1.00  0.00    -0.103 C  
HETATM    2  N   UNL     1      -8.975   4.039  66.537  1.00  0.00    -0.122 NA 
HETATM    3  N   UNL     1      -9.855   4.031  67.543  1.00  0.00    -0.122 NA 
HETATM    4  N   UNL     1     -10.201   5.303  67.692  1.00  0.00    -0.183 NA 
HETATM    5  C   UNL     1      -9.503   6.023  66.746  1.00  0.00    -0.144 A  
HETATM    6  N   UNL     1      -8.699   5.235  66.001  1.00  0.00    -0.132 NA 
ENDROOT
BRANCH   5   7
HETATM    7  C   UNL     1      -9.654   7.458  66.519  1.00  0.00    -0.164 A  
HETATM    8  N   UNL     1      -8.906   8.045  65.553  1.00  0.00    -0.113 NA 
HETATM    9  C   UNL     1      -9.023   9.390  65.413  1.00  0.00    -0.206 A  
HETATM   10  C   UNL     1      -9.825  10.227  66.200  1.00  0.00    -0.284 A  
HETATM   11  C   UNL     1     -10.514   8.191  67.328  1.00  0.00    -0.379 A  
HETATM   12  C   UNL     1     -10.589   9.572  67.173  1.00  0.00    -0.295 A  
BRANCH  10  13
HETATM   13  C   UNL     1      -9.877  11.692  66.010  1.00  0.00    -0.258 A  
HETATM   14  C   UNL     1      -9.326  12.596  66.933  1.00  0.00    -0.228 A  
HETATM   15  C   UNL     1      -9.409  13.981  66.770  1.00  0.00    -0.289 A  
HETATM   16  F   UNL     1      -8.699  12.154  68.035  1.00  0.00    -0.149 F  
HETATM   17  C   UNL     1     -10.060  14.534  65.669  1.00  0.00    -0.359 A  
HETATM   18  C   UNL     1     -10.483  12.262  64.878  1.00  0.00    -0.321 A  
HETATM   19  C   UNL     1     -10.580  13.652  64.714  1.00  0.00    -0.436 A  
BRANCH  17  20
HETATM   20  N   UNL     1     -10.160  15.933  65.500  1.00  0.00    -0.344 N  
HETATM   21  C   UNL     1      -9.256  16.875  66.083  1.00  0.00    -0.235 C  
HETATM   22  C   UNL     1     -10.104  18.123  66.157  1.00  0.00    -0.336 C  
HETATM   23  O   UNL     1     -11.004  17.976  65.050  1.00  0.00    -0.748 OA 
HETATM   24  O   UNL     1     -12.011  16.201  64.069  1.00  0.00    -0.897 OA 
HETATM   25  C   UNL     1     -11.133  16.630  64.796  1.00  0.00    -0.110 C  
BRANCH  22  26
HETATM   26  C   UNL     1     -10.900  18.250  67.461  1.00  0.00    -0.253 C  
HETATM   27  H   UNL     1     -10.750  17.691  69.374  1.00  0.00     0.000 HD 
HETATM   28  O   UNL     1     -10.257  17.613  68.565  1.00  0.00    -0.345 OA 
ENDBRANCH  22  26
ENDBRANCH  17  20
ENDBRANCH  10  13
ENDBRANCH   5   7
TORSDOF 4
ENDMDL
MODEL       33
REMARK 921   NORMALIZED FREE ENERGY PREDICTED BY IDOCK:   -5.88 KCAL/MOL
REMARK 922        TOTAL FREE ENERGY PREDICTED BY IDOCK:   -8.01 KCAL/MOL
REMARK 923 INTER-LIGAND FREE ENERGY PREDICTED BY IDOCK:   -7.95 KCAL/MOL
REMARK 924 INTRA-LIGAND FREE ENERGY PREDICTED BY IDOCK:   -0.06 KCAL/MOL
REMARK 927      BINDING AFFINITY PREDICTED BY RF-SCORE:    0.00 PKD
ROOT
HETATM    1  C   UNL     1     -10.315  19.932  65.714  1.00  0.00    -0.410 C  
HETATM    2  N   UNL     1     -10.473  19.048  66.838  1.00  0.00    -0.402 NA 
HETATM    3  N   UNL     1     -10.239  19.429  68.098  1.00  0.00    -0.415 NA 
HETATM    4  N   UNL     1     -10.398  18.323  68.814  1.00  0.00    -0.307 NA 
HETATM    5  C   UNL     1     -10.719  17.315  67.931  1.00  0.00    -0.351 A  
HETATM    6  N   UNL     1     -10.786  17.758  66.657  1.00  0.00    -0.199 NA 
ENDROOT
BRANCH   5   7
HETATM    7  C   UNL     1     -10.901  15.914  68.303  1.00  0.00    -0.315 A  
HETATM    8  N   UNL     1     -11.758  15.616  69.310  1.00  0.00    -0.358 NA 
HETATM    9  C   UNL     1     -11.854  14.312  69.674  1.00  0.00    -0.318 A  
HETATM   10  C   UNL     1     -11.121  13.253  69.121  1.00  0.00    -0.259 A  
HETATM   11  C   UNL     1     -10.158  14.933  67.658  1.00  0.00    -0.227 A  
HETATM   12  C   UNL     1     -10.263  13.610  68.075  1.00  0.00    -0.248 A  
BRANCH  10  13
HETATM   13  C   UNL     1     -11.255  11.858  69.592  1.00  0.00    -0.184 A  
HETATM   14  C   UNL     1     -12.184  11.475  70.573  1.00  0.00    -0.377 A  
HETATM   15  C   UNL     1     -12.284  10.164  71.043  1.00  0.00    -0.474 A  
HETATM   16  F   UNL     1     -13.019  12.376  71.115  1.00  0.00    -0.402 F  
HETATM   17  C   UNL     1     -11.445   9.164  70.556  1.00  0.00    -0.229 A  
HETATM   18  C   UNL     1     -10.453  10.830  69.070  1.00  0.00    -0.239 A  
HETATM   19  C   UNL     1     -10.539   9.513  69.547  1.00  0.00    -0.238 A  
BRANCH  17  20
HETATM   20  N   UNL     1     -11.528   7.837  71.034  1.00  0.00    -0.279 N  
HETATM   21  C   UNL     1     -11.717   7.493  72.409  1.00  0.00    -0.290 C  
HETATM   22  C   UNL     1     -11.117   6.108  72.473  1.00  0.00    -0.274 C  
HETATM   23  O   UNL     1     -11.334   5.592  71.152  1.00  0.00    -0.157 OA 
HETATM   24  O   UNL     1     -11.358   6.522  69.087  1.00  0.00    -0.320 OA 
HETATM   25  C   UNL     1     -11.413   6.667  70.296  1.00  0.00    -0.391 C  
BRANCH  22  26
HETATM   26  C   UNL     1      -9.618   6.101  72.793  1.00  0.00    -0.155 C  
HETATM   27  H   UNL     1      -7.969   5.114  72.245  1.00  0.00     0.000 HD 
HETATM   28  O   UNL     1      -8.898   5.118  72.047  1.00  0.00    -0.128 OA 
ENDBRANCH  22  26
ENDBRANCH  17  20
ENDBRANCH  10  13
ENDBRANCH   5   7
TORSDOF 4
ENDMDL
MODEL       34
REMARK 921   NORMALIZED FREE ENERGY PREDICTED BY IDOCK:   -5.85 KCAL/MOL
REMARK 922        TOTAL FREE ENERGY PREDICTED BY IDOCK:   -7.97 KCAL/MOL
REMARK 923 INTER-LIGAND FREE ENERGY PREDICTED BY IDOCK:   -7.63 KCAL/MOL
REMARK 924 INTRA-LIGAND FREE ENERGY PREDICTED BY IDOCK:   -0.34 KCAL/MOL
REMARK 927      BINDING AFFINITY PREDICTED BY RF-SCORE:    0.00 PKD
ROOT
HETATM    1  C   UNL     1      -7.701   3.132  65.597  1.00  0.00    -0.081 C  
HETATM    2  N   UNL     1      -7.523   4.470  66.095  1.00  0.00    -0.084 NA 
HETATM    3  N   UNL     1      -6.324   4.975  66.404  1.00  0.00    -0.035 NA 
HETATM    4  N   UNL     1      -6.589   6.172  66.911  1.00  0.00    -0.056 NA 
HETATM    5  C   UNL     1      -7.958   6.325  66.885  1.00  0.00    -0.109 A  
HETATM    6  N   UNL     1      -8.579   5.251  66.354  1.00  0.00    -0.113 NA 
ENDROOT
BRANCH   5   7
HETATM    7  C   UNL     1      -8.673   7.478  67.427  1.00  0.00    -0.124 A  
HETATM    8  N   UNL     1      -8.198   8.067  68.552  1.00  0.00    -0.125 NA 
HETATM    9  C   UNL     1      -8.922   9.094  69.064  1.00  0.00    -0.143 A  
HETATM   10  C   UNL     1     -10.134   9.577  68.551  1.00  0.00    -0.198 A  
HETATM   11  C   UNL     1      -9.844   7.908  66.813  1.00  0.00    -0.318 A  
HETATM   12  C   UNL     1     -10.574   8.946  67.382  1.00  0.00    -0.305 A  
BRANCH  10  13
HETATM   13  C   UNL     1     -10.886  10.680  69.185  1.00  0.00    -0.279 A  
HETATM   14  C   UNL     1     -10.878  11.991  68.679  1.00  0.00    -0.237 A  
HETATM   15  C   UNL     1     -11.560  13.040  69.299  1.00  0.00    -0.367 A  
HETATM   16  F   UNL     1     -10.191  12.292  67.566  1.00  0.00    -0.198 F  
HETATM   17  C   UNL     1     -12.282  12.829  70.472  1.00  0.00    -0.307 A  
HETATM   18  C   UNL     1     -11.662  10.470  70.336  1.00  0.00    -0.434 A  
HETATM   19  C   UNL     1     -12.339  11.523  70.972  1.00  0.00    -0.434 A  
BRANCH  17  20
HETATM   20  N   UNL     1     -12.965  13.886  71.116  1.00  0.00    -0.331 N  
HETATM   21  C   UNL     1     -12.781  15.268  70.796  1.00  0.00    -0.433 C  
HETATM   22  C   UNL     1     -13.181  15.946  72.085  1.00  0.00    -0.335 C  
HETATM   23  O   UNL     1     -14.149  15.047  72.645  1.00  0.00    -0.448 OA 
HETATM   24  O   UNL     1     -14.388  12.795  72.643  1.00  0.00    -0.362 OA 
HETATM   25  C   UNL     1     -13.877  13.789  72.157  1.00  0.00    -0.554 C  
BRANCH  22  26
HETATM   26  C   UNL     1     -12.019  16.134  73.067  1.00  0.00    -0.489 C  
HETATM   27  H   UNL     1     -11.729  16.700  74.962  1.00  0.00     0.000 HD 
HETATM   28  O   UNL     1     -12.449  16.584  74.353  1.00  0.00    -0.724 OA 
ENDBRANCH  22  26
ENDBRANCH  17  20
ENDBRANCH  10  13
ENDBRANCH   5   7
TORSDOF 4
ENDMDL
MODEL       35
REMARK 921   NORMALIZED FREE ENERGY PREDICTED BY IDOCK:   -5.84 KCAL/MOL
REMARK 922        TOTAL FREE ENERGY PREDICTED BY IDOCK:   -7.96 KCAL/MOL
REMARK 923 INTER-LIGAND FREE ENERGY PREDICTED BY IDOCK:   -7.25 KCAL/MOL
REMARK 924 INTRA-LIGAND FREE ENERGY PREDICTED BY IDOCK:   -0.71 KCAL/MOL
REMARK 927      BINDING AFFINITY PREDICTED BY RF-SCORE:    0.00 PKD
ROOT
HETATM    1  C   UNL     1     -11.271  15.906  64.467  1.00  0.00    -0.312 C  
HETATM    2  N   UNL     1     -11.671  14.589  64.884  1.00  0.00    -0.384 NA 
HETATM    3  N   UNL     1     -12.847  14.048  64.552  1.00  0.00    -0.613 NA 
HETATM    4  N   UNL     1     -12.877  12.891  65.200  1.00  0.00    -0.773 NA 
HETATM    5  C   UNL     1     -11.697  12.797  65.907  1.00  0.00    -0.414 A  
HETATM    6  N   UNL     1     -10.901  13.869  65.711  1.00  0.00    -0.285 NA 
ENDROOT
BRANCH   5   7
HETATM    7  C   UNL     1     -11.362  11.705  66.818  1.00  0.00    -0.286 A  
HETATM    8  N   UNL     1     -11.992  11.644  68.017  1.00  0.00    -0.609 NA 
HETATM    9  C   UNL     1     -11.610  10.656  68.866  1.00  0.00    -0.249 A  
HETATM   10  C   UNL     1     -10.601   9.715  68.623  1.00  0.00    -0.246 A  
HETATM   11  C   UNL     1     -10.376  10.794  66.461  1.00  0.00    -0.300 A  
HETATM   12  C   UNL     1      -9.992   9.810  67.367  1.00  0.00    -0.239 A  
BRANCH  10  13
HETATM   13  C   UNL     1     -10.216   8.685  69.611  1.00  0.00    -0.208 A  
HETATM   14  C   UNL     1     -10.579   7.335  69.480  1.00  0.00    -0.234 A  
HETATM   15  C   UNL     1     -10.246   6.370  70.432  1.00  0.00    -0.233 A  
HETATM   16  F   UNL     1     -11.286   6.916  68.417  1.00  0.00    -0.219 F  
HETATM   17  C   UNL     1      -9.534   6.714  71.580  1.00  0.00    -0.156 A  
HETATM   18  C   UNL     1      -9.451   9.008  70.744  1.00  0.00    -0.308 A  
HETATM   19  C   UNL     1      -9.123   8.046  71.712  1.00  0.00    -0.207 A  
BRANCH  17  20
HETATM   20  N   UNL     1      -9.202   5.748  72.556  1.00  0.00    -0.142 N  
HETATM   21  C   UNL     1      -7.886   5.217  72.741  1.00  0.00    -0.099 C  
HETATM   22  C   UNL     1      -8.173   3.877  73.375  1.00  0.00    -0.088 C  
HETATM   23  O   UNL     1      -9.397   4.104  74.088  1.00  0.00    -0.105 OA 
HETATM   24  O   UNL     1     -11.226   5.382  73.703  1.00  0.00    -0.235 OA 
HETATM   25  C   UNL     1     -10.058   5.134  73.459  1.00  0.00    -0.180 C  
BRANCH  22  26
HETATM   26  C   UNL     1      -8.367   2.745  72.360  1.00  0.00    -0.066 C  
HETATM   27  H   UNL     1      -8.394   2.492  70.377  1.00  0.00     0.000 HD 
HETATM   28  O   UNL     1      -8.274   3.194  71.007  1.00  0.00    -0.060 OA 
ENDBRANCH  22  26
ENDBRANCH  17  20
ENDBRANCH  10  13
ENDBRANCH   5   7
TORSDOF 4
ENDMDL
MODEL       36
REMARK 921   NORMALIZED FREE ENERGY PREDICTED BY IDOCK:   -5.78 KCAL/MOL
REMARK 922        TOTAL FREE ENERGY PREDICTED BY IDOCK:   -7.88 KCAL/MOL
REMARK 923 INTER-LIGAND FREE ENERGY PREDICTED BY IDOCK:   -7.36 KCAL/MOL
REMARK 924 INTRA-LIGAND FREE ENERGY PREDICTED BY IDOCK:   -0.52 KCAL/MOL
REMARK 927      BINDING AFFINITY PREDICTED BY RF-SCORE:    0.00 PKD
ROOT
HETATM    1  C   UNL     1      -9.754  20.286  66.823  1.00  0.00    -0.431 C  
HETATM    2  N   UNL     1     -10.089  18.997  66.279  1.00  0.00    -0.399 NA 
HETATM    3  N   UNL     1     -10.858  18.844  65.196  1.00  0.00    -0.369 NA 
HETATM    4  N   UNL     1     -11.009  17.531  65.079  1.00  0.00    -0.749 NA 
HETATM    5  C   UNL     1     -10.315  16.952  66.120  1.00  0.00    -0.320 A  
HETATM    6  N   UNL     1      -9.706  17.872  66.898  1.00  0.00    -0.296 NA 
ENDROOT
BRANCH   5   7
HETATM    7  C   UNL     1     -10.290  15.519  66.403  1.00  0.00    -0.296 A  
HETATM    8  N   UNL     1     -11.465  14.847  66.458  1.00  0.00    -0.324 NA 
HETATM    9  C   UNL     1     -11.410  13.531  66.787  1.00  0.00    -0.328 A  
HETATM   10  C   UNL     1     -10.247  12.817  67.107  1.00  0.00    -0.235 A  
HETATM   11  C   UNL     1      -9.075  14.895  66.661  1.00  0.00    -0.309 A  
HETATM   12  C   UNL     1      -9.059  13.551  67.021  1.00  0.00    -0.248 A  
BRANCH  10  13
HETATM   13  C   UNL     1     -10.268  11.389  67.490  1.00  0.00    -0.210 A  
HETATM   14  C   UNL     1     -10.615  10.955  68.780  1.00  0.00    -0.201 A  
HETATM   15  C   UNL     1     -10.599   9.609  69.150  1.00  0.00    -0.237 A  
HETATM   16  F   UNL     1     -10.971  11.838  69.727  1.00  0.00    -0.229 F  
HETATM   17  C   UNL     1     -10.222   8.622  68.242  1.00  0.00    -0.198 A  
HETATM   18  C   UNL     1      -9.943  10.380  66.569  1.00  0.00    -0.271 A  
HETATM   19  C   UNL     1      -9.912   9.026  66.937  1.00  0.00    -0.313 A  
BRANCH  17  20
HETATM   20  N   UNL     1     -10.189   7.258  68.609  1.00  0.00    -0.177 N  
HETATM   21  C   UNL     1     -11.325   6.531  69.084  1.00  0.00    -0.261 C  
HETATM   22  C   UNL     1     -10.680   5.431  69.894  1.00  0.00    -0.221 C  
HETATM   23  O   UNL     1      -9.422   5.231  69.236  1.00  0.00    -0.119 OA 
HETATM   24  O   UNL     1      -7.968   6.606  68.175  1.00  0.00    -0.108 OA 
HETATM   25  C   UNL     1      -9.089   6.411  68.610  1.00  0.00    -0.127 C  
BRANCH  22  26
HETATM   26  C   UNL     1     -10.445   5.805  71.362  1.00  0.00    -0.238 C  
HETATM   27  H   UNL     1      -8.914   6.170  72.593  1.00  0.00     0.000 HD 
HETATM   28  O   UNL     1      -9.060   5.938  71.683  1.00  0.00    -0.143 OA 
ENDBRANCH  22  26
ENDBRANCH  17  20
ENDBRANCH  10  13
ENDBRANCH   5   7
TORSDOF 4
ENDMDL
MODEL       37
REMARK 921   NORMALIZED FREE ENERGY PREDICTED BY IDOCK:   -5.74 KCAL/MOL
REMARK 922        TOTAL FREE ENERGY PREDICTED BY IDOCK:   -7.83 KCAL/MOL
REMARK 923 INTER-LIGAND FREE ENERGY PREDICTED BY IDOCK:   -7.25 KCAL/MOL
REMARK 924 INTRA-LIGAND FREE ENERGY PREDICTED BY IDOCK:   -0.58 KCAL/MOL
REMARK 927      BINDING AFFINITY PREDICTED BY RF-SCORE:    0.00 PKD
ROOT
HETATM    1  C   UNL     1      -9.107   2.384  72.497  1.00  0.00    -0.078 C  
HETATM    2  N   UNL     1      -9.434   2.982  71.230  1.00  0.00    -0.140 NA 
HETATM    3  N   UNL     1      -9.527   2.278  70.097  1.00  0.00    -0.105 NA 
HETATM    4  N   UNL     1      -9.743   3.189  69.156  1.00  0.00     0.007 NA 
HETATM    5  C   UNL     1      -9.763   4.416  69.783  1.00  0.00    -0.221 A  
HETATM    6  N   UNL     1      -9.579   4.309  71.116  1.00  0.00    -0.167 NA 
ENDROOT
BRANCH   5   7
HETATM    7  C   UNL     1      -9.896   5.696  69.092  1.00  0.00    -0.162 A  
HETATM    8  N   UNL     1      -9.343   6.799  69.655  1.00  0.00    -0.145 NA 
HETATM    9  C   UNL     1      -9.542   7.982  69.020  1.00  0.00    -0.156 A  
HETATM   10  C   UNL     1     -10.296   8.168  67.853  1.00  0.00    -0.280 A  
HETATM   11  C   UNL     1     -10.628   5.764  67.912  1.00  0.00    -0.304 A  
HETATM   12  C   UNL     1     -10.833   6.998  67.304  1.00  0.00    -0.403 A  
BRANCH  10  13
HETATM   13  C   UNL     1     -10.498   9.495  67.236  1.00  0.00    -0.328 A  
HETATM   14  C   UNL     1     -11.103  10.564  67.916  1.00  0.00    -0.304 A  
HETATM   15  C   UNL     1     -11.325  11.806  67.319  1.00  0.00    -0.379 A  
HETATM   16  F   UNL     1     -11.510  10.424  69.188  1.00  0.00    -0.256 F  
HETATM   17  C   UNL     1     -10.957  12.040  65.995  1.00  0.00    -0.304 A  
HETATM   18  C   UNL     1     -10.082   9.761  65.920  1.00  0.00    -0.314 A  
HETATM   19  C   UNL     1     -10.313  11.003  65.310  1.00  0.00    -0.338 A  
BRANCH  17  20
HETATM   20  N   UNL     1     -11.189  13.289  65.377  1.00  0.00    -0.286 N  
HETATM   21  C   UNL     1     -10.164  14.083  64.771  1.00  0.00    -0.301 C  
HETATM   22  C   UNL     1     -10.750  15.472  64.857  1.00  0.00    -0.392 C  
HETATM   23  O   UNL     1     -12.164  15.239  64.798  1.00  0.00    -0.200 OA 
HETATM   24  O   UNL     1     -13.517  13.591  65.561  1.00  0.00    -0.438 OA 
HETATM   25  C   UNL     1     -12.394  13.969  65.275  1.00  0.00    -0.465 C  
BRANCH  22  26
HETATM   26  C   UNL     1     -10.398  16.209  66.154  1.00  0.00    -0.339 C  
HETATM   27  H   UNL     1      -9.060  17.541  66.810  1.00  0.00     0.000 HD 
HETATM   28  O   UNL     1      -9.278  17.084  66.006  1.00  0.00    -0.457 OA 
ENDBRANCH  22  26
ENDBRANCH  17  20
ENDBRANCH  10  13
ENDBRANCH   5   7
TORSDOF 4
ENDMDL
MODEL       38
REMARK 921   NORMALIZED FREE ENERGY PREDICTED BY IDOCK:   -5.71 KCAL/MOL
REMARK 922        TOTAL FREE ENERGY PREDICTED BY IDOCK:   -7.80 KCAL/MOL
REMARK 923 INTER-LIGAND FREE ENERGY PREDICTED BY IDOCK:   -7.01 KCAL/MOL
REMARK 924 INTRA-LIGAND FREE ENERGY PREDICTED BY IDOCK:   -0.79 KCAL/MOL
REMARK 927      BINDING AFFINITY PREDICTED BY RF-SCORE:    0.00 PKD
ROOT
HETATM    1  C   UNL     1     -10.433   5.425  69.698  1.00  0.00    -0.291 C  
HETATM    2  N   UNL     1     -10.623   6.477  68.735  1.00  0.00    -0.218 NA 
HETATM    3  N   UNL     1     -10.895   6.242  67.448  1.00  0.00    -0.329 NA 
HETATM    4  N   UNL     1     -10.898   7.443  66.883  1.00  0.00    -0.293 NA 
HETATM    5  C   UNL     1     -10.615   8.354  67.878  1.00  0.00    -0.154 A  
HETATM    6  N   UNL     1     -10.447   7.760  69.079  1.00  0.00    -0.217 NA 
ENDROOT
BRANCH   5   7
HETATM    7  C   UNL     1     -10.446   9.789  67.663  1.00  0.00    -0.251 A  
HETATM    8  N   UNL     1      -9.691  10.205  66.616  1.00  0.00    -0.183 NA 
HETATM    9  C   UNL     1      -9.501  11.542  66.484  1.00  0.00    -0.204 A  
HETATM   10  C   UNL     1      -9.990  12.527  67.353  1.00  0.00    -0.207 A  
HETATM   11  C   UNL     1     -11.013  10.687  68.560  1.00  0.00    -0.296 A  
HETATM   12  C   UNL     1     -10.775  12.049  68.408  1.00  0.00    -0.255 A  
BRANCH  10  13
HETATM   13  C   UNL     1      -9.713  13.967  67.163  1.00  0.00    -0.244 A  
HETATM   14  C   UNL     1      -8.755  14.661  67.919  1.00  0.00    -0.169 A  
HETATM   15  C   UNL     1      -8.521  16.028  67.764  1.00  0.00    -0.168 A  
HETATM   16  F   UNL     1      -8.022  14.025  68.847  1.00  0.00    -0.137 F  
HETATM   17  C   UNL     1      -9.248  16.778  66.842  1.00  0.00    -0.232 A  
HETATM   18  C   UNL     1     -10.401  14.722  66.199  1.00  0.00    -0.314 A  
HETATM   19  C   UNL     1     -10.180  16.100  66.046  1.00  0.00    -0.374 A  
BRANCH  17  20
HETATM   20  N   UNL     1      -9.029  18.165  66.684  1.00  0.00    -0.276 N  
HETATM   21  C   UNL     1      -7.832  18.729  66.140  1.00  0.00    -0.238 C  
HETATM   22  C   UNL     1      -7.824  20.108  66.755  1.00  0.00    -0.303 C  
HETATM   23  O   UNL     1      -9.218  20.400  66.930  1.00  0.00    -0.354 OA 
HETATM   24  O   UNL     1     -11.034  19.145  67.436  1.00  0.00    -0.475 OA 
HETATM   25  C   UNL     1      -9.881  19.200  67.046  1.00  0.00    -0.336 C  
BRANCH  22  26
HETATM   26  C   UNL     1      -7.106  20.174  68.108  1.00  0.00    -0.275 C  
HETATM   27  H   UNL     1      -5.835  19.076  69.190  1.00  0.00     0.000 HD 
HETATM   28  O   UNL     1      -6.281  19.034  68.351  1.00  0.00    -0.215 OA 
ENDBRANCH  22  26
ENDBRANCH  17  20
ENDBRANCH  10  13
ENDBRANCH   5   7
TORSDOF 4
ENDMDL
MODEL       39
REMARK 921   NORMALIZED FREE ENERGY PREDICTED BY IDOCK:   -5.70 KCAL/MOL
REMARK 922        TOTAL FREE ENERGY PREDICTED BY IDOCK:   -7.79 KCAL/MOL
REMARK 923 INTER-LIGAND FREE ENERGY PREDICTED BY IDOCK:   -7.07 KCAL/MOL
REMARK 924 INTRA-LIGAND FREE ENERGY PREDICTED BY IDOCK:   -0.71 KCAL/MOL
REMARK 927      BINDING AFFINITY PREDICTED BY RF-SCORE:    0.00 PKD
ROOT
HETATM    1  C   UNL     1     -10.705   4.864  71.087  1.00  0.00     0.072 C  
HETATM    2  N   UNL     1     -10.777   5.794  69.992  1.00  0.00    -0.313 NA 
HETATM    3  N   UNL     1     -10.946   5.409  68.723  1.00  0.00     0.063 NA 
HETATM    4  N   UNL     1     -10.861   6.531  68.020  1.00  0.00    -0.281 NA 
HETATM    5  C   UNL     1     -10.634   7.551  68.919  1.00  0.00    -0.169 A  
HETATM    6  N   UNL     1     -10.588   7.105  70.193  1.00  0.00    -0.223 NA 
ENDROOT
BRANCH   5   7
HETATM    7  C   UNL     1     -10.400   8.945  68.549  1.00  0.00    -0.198 A  
HETATM    8  N   UNL     1     -10.141   9.843  69.531  1.00  0.00    -0.207 NA 
HETATM    9  C   UNL     1      -9.994  11.140  69.158  1.00  0.00    -0.082 A  
HETATM   10  C   UNL     1     -10.119  11.635  67.853  1.00  0.00    -0.198 A  
HETATM   11  C   UNL     1     -10.502   9.325  67.215  1.00  0.00    -0.334 A  
HETATM   12  C   UNL     1     -10.371  10.667  66.874  1.00  0.00    -0.288 A  
BRANCH  10  13
HETATM   13  C   UNL     1      -9.977  13.070  67.526  1.00  0.00    -0.212 A  
HETATM   14  C   UNL     1     -11.062  13.962  67.546  1.00  0.00    -0.286 A  
HETATM   15  C   UNL     1     -10.933  15.309  67.202  1.00  0.00    -0.331 A  
HETATM   16  F   UNL     1     -12.289  13.541  67.890  1.00  0.00    -0.356 F  
HETATM   17  C   UNL     1      -9.703  15.833  66.809  1.00  0.00    -0.238 A  
HETATM   18  C   UNL     1      -8.732  13.622  67.182  1.00  0.00    -0.224 A  
HETATM   19  C   UNL     1      -8.599  14.973  66.823  1.00  0.00    -0.279 A  
BRANCH  17  20
HETATM   20  N   UNL     1      -9.564  17.192  66.447  1.00  0.00    -0.272 N  
HETATM   21  C   UNL     1      -8.633  18.090  67.058  1.00  0.00    -0.245 C  
HETATM   22  C   UNL     1      -9.285  19.431  66.817  1.00  0.00    -0.333 C  
HETATM   23  O   UNL     1     -10.008  19.232  65.594  1.00  0.00    -0.409 OA 
HETATM   24  O   UNL     1     -11.099  17.469  64.683  1.00  0.00    -0.978 OA 
HETATM   25  C   UNL     1     -10.295  17.890  65.496  1.00  0.00     0.083 C  
BRANCH  22  26
HETATM   26  C   UNL     1     -10.253  19.854  67.928  1.00  0.00    -0.434 C  
HETATM   27  H   UNL     1     -10.591  19.457  69.858  1.00  0.00     0.000 HD 
HETATM   28  O   UNL     1      -9.991  19.195  69.169  1.00  0.00    -0.400 OA 
ENDBRANCH  22  26
ENDBRANCH  17  20
ENDBRANCH  10  13
ENDBRANCH   5   7
TORSDOF 4
ENDMDL
MODEL       40
REMARK 921   NORMALIZED FREE ENERGY PREDICTED BY IDOCK:   -5.64 KCAL/MOL
REMARK 922        TOTAL FREE ENERGY PREDICTED BY IDOCK:   -7.71 KCAL/MOL
REMARK 923 INTER-LIGAND FREE ENERGY PREDICTED BY IDOCK:   -7.05 KCAL/MOL
REMARK 924 INTRA-LIGAND FREE ENERGY PREDICTED BY IDOCK:   -0.66 KCAL/MOL
REMARK 927      BINDING AFFINITY PREDICTED BY RF-SCORE:    0.00 PKD
ROOT
HETATM    1  C   UNL     1     -13.047  15.600  71.937  1.00  0.00    -0.464 C  
HETATM    2  N   UNL     1     -13.048  14.182  71.697  1.00  0.00    -0.333 NA 
HETATM    3  N   UNL     1     -13.672  13.311  72.496  1.00  0.00    -0.695 NA 
HETATM    4  N   UNL     1     -13.358  12.121  72.000  1.00  0.00    -0.467 NA 
HETATM    5  C   UNL     1     -12.543  12.342  70.911  1.00  0.00    -0.246 A  
HETATM    6  N   UNL     1     -12.338  13.658  70.689  1.00  0.00    -0.361 NA 
ENDROOT
BRANCH   5   7
HETATM    7  C   UNL     1     -11.910  11.287  70.123  1.00  0.00    -0.364 A  
HETATM    8  N   UNL     1     -11.905  11.400  68.772  1.00  0.00    -0.399 NA 
HETATM    9  C   UNL     1     -11.368  10.371  68.068  1.00  0.00    -0.204 A  
HETATM   10  C   UNL     1     -10.847   9.191  68.615  1.00  0.00    -0.092 A  
HETATM   11  C   UNL     1     -11.379  10.176  70.768  1.00  0.00    -0.436 A  
HETATM   12  C   UNL     1     -10.860   9.129  70.013  1.00  0.00    -0.256 A  
BRANCH  10  13
HETATM   13  C   UNL     1     -10.306   8.096  67.781  1.00  0.00    -0.295 A  
HETATM   14  C   UNL     1     -10.775   6.775  67.868  1.00  0.00    -0.256 A  
HETATM   15  C   UNL     1     -10.238   5.736  67.106  1.00  0.00    -0.250 A  
HETATM   16  F   UNL     1     -11.767   6.454  68.713  1.00  0.00    -0.345 F  
HETATM   17  C   UNL     1      -9.190   5.967  66.217  1.00  0.00    -0.154 A  
HETATM   18  C   UNL     1      -9.287   8.327  66.842  1.00  0.00    -0.222 A  
HETATM   19  C   UNL     1      -8.734   7.284  66.082  1.00  0.00    -0.170 A  
BRANCH  17  20
HETATM   20  N   UNL     1      -8.630   4.921  65.450  1.00  0.00    -0.133 N  
HETATM   21  C   UNL     1      -8.742   4.825  64.028  1.00  0.00    -0.138 C  
HETATM   22  C   UNL     1      -8.583   3.340  63.798  1.00  0.00    -0.089 C  
HETATM   23  O   UNL     1      -7.741   2.926  64.883  1.00  0.00    -0.075 OA 
HETATM   24  O   UNL     1      -7.522   3.582  67.040  1.00  0.00    -0.073 OA 
HETATM   25  C   UNL     1      -7.927   3.818  65.915  1.00  0.00    -0.093 C  
BRANCH  22  26
HETATM   26  C   UNL     1      -9.905   2.566  63.842  1.00  0.00    -0.145 C  
HETATM   27  H   UNL     1     -11.866   2.943  63.924  1.00  0.00     0.000 HD 
HETATM   28  O   UNL     1     -11.046   3.423  63.897  1.00  0.00    -0.296 OA 
ENDBRANCH  22  26
ENDBRANCH  17  20
ENDBRANCH  10  13
ENDBRANCH   5   7
TORSDOF 4
ENDMDL
MODEL       41
REMARK 921   NORMALIZED FREE ENERGY PREDICTED BY IDOCK:   -5.63 KCAL/MOL
REMARK 922        TOTAL FREE ENERGY PREDICTED BY IDOCK:   -7.70 KCAL/MOL
REMARK 923 INTER-LIGAND FREE ENERGY PREDICTED BY IDOCK:   -7.15 KCAL/MOL
REMARK 924 INTRA-LIGAND FREE ENERGY PREDICTED BY IDOCK:   -0.56 KCAL/MOL
REMARK 927      BINDING AFFINITY PREDICTED BY RF-SCORE:    0.00 PKD
ROOT
HETATM    1  C   UNL     1     -10.824   2.174  73.147  1.00  0.00    -0.163 C  
HETATM    2  N   UNL     1     -10.716   3.607  73.225  1.00  0.00    -0.188 NA 
HETATM    3  N   UNL     1     -10.869   4.285  74.367  1.00  0.00    -0.248 NA 
HETATM    4  N   UNL     1     -10.796   5.560  74.009  1.00  0.00    -0.172 NA 
HETATM    5  C   UNL     1     -10.605   5.583  72.644  1.00  0.00    -0.226 A  
HETATM    6  N   UNL     1     -10.538   4.341  72.119  1.00  0.00    -0.062 NA 
ENDROOT
BRANCH   5   7
HETATM    7  C   UNL     1     -10.550   6.799  71.836  1.00  0.00    -0.209 A  
HETATM    8  N   UNL     1     -10.642   7.999  72.461  1.00  0.00    -0.303 NA 
HETATM    9  C   UNL     1     -10.652   9.106  71.675  1.00  0.00    -0.357 A  
HETATM   10  C   UNL     1     -10.609   9.114  70.274  1.00  0.00    -0.261 A  
HETATM   11  C   UNL     1     -10.459   6.698  70.452  1.00  0.00    -0.249 A  
HETATM   12  C   UNL     1     -10.499   7.853  69.677  1.00  0.00    -0.226 A  
BRANCH  10  13
HETATM   13  C   UNL     1     -10.658  10.361  69.481  1.00  0.00    -0.274 A  
HETATM   14  C   UNL     1      -9.566  10.825  68.731  1.00  0.00    -0.189 A  
HETATM   15  C   UNL     1      -9.602  12.022  68.012  1.00  0.00    -0.199 A  
HETATM   16  F   UNL     1      -8.419  10.128  68.686  1.00  0.00    -0.105 F  
HETATM   17  C   UNL     1     -10.741  12.825  68.017  1.00  0.00    -0.230 A  
HETATM   18  C   UNL     1     -11.818  11.151  69.433  1.00  0.00    -0.415 A  
HETATM   19  C   UNL     1     -11.857  12.362  68.723  1.00  0.00    -0.358 A  
BRANCH  17  20
HETATM   20  N   UNL     1     -10.785  14.044  67.304  1.00  0.00    -0.276 N  
HETATM   21  C   UNL     1     -10.327  14.199  65.957  1.00  0.00    -0.309 C  
HETATM   22  C   UNL     1      -9.995  15.672  65.904  1.00  0.00    -0.351 C  
HETATM   23  O   UNL     1     -10.907  16.250  66.848  1.00  0.00    -0.271 OA 
HETATM   24  O   UNL     1     -11.794  15.547  68.810  1.00  0.00    -0.356 OA 
HETATM   25  C   UNL     1     -11.227  15.276  67.765  1.00  0.00    -0.326 C  
BRANCH  22  26
HETATM   26  C   UNL     1      -8.553  15.993  66.313  1.00  0.00    -0.328 C  
HETATM   27  H   UNL     1      -7.304  17.553  66.317  1.00  0.00     0.000 HD 
HETATM   28  O   UNL     1      -8.198  17.353  66.063  1.00  0.00    -0.494 OA 
ENDBRANCH  22  26
ENDBRANCH  17  20
ENDBRANCH  10  13
ENDBRANCH   5   7
TORSDOF 4
ENDMDL
MODEL       42
REMARK 921   NORMALIZED FREE ENERGY PREDICTED BY IDOCK:   -5.60 KCAL/MOL
REMARK 922        TOTAL FREE ENERGY PREDICTED BY IDOCK:   -7.67 KCAL/MOL
REMARK 923 INTER-LIGAND FREE ENERGY PREDICTED BY IDOCK:   -6.95 KCAL/MOL
REMARK 924 INTRA-LIGAND FREE ENERGY PREDICTED BY IDOCK:   -0.72 KCAL/MOL
REMARK 927      BINDING AFFINITY PREDICTED BY RF-SCORE:    0.00 PKD
ROOT
HETATM    1  C   UNL     1      -8.505   4.624  65.960  1.00  0.00    -0.115 C  
HETATM    2  N   UNL     1      -9.316   5.728  66.399  1.00  0.00    -0.153 NA 
HETATM    3  N   UNL     1     -10.611   5.600  66.705  1.00  0.00    -0.297 NA 
HETATM    4  N   UNL     1     -11.016   6.837  66.961  1.00  0.00    -0.401 NA 
HETATM    5  C   UNL     1      -9.925   7.661  66.787  1.00  0.00    -0.247 A  
HETATM    6  N   UNL     1      -8.819   6.971  66.437  1.00  0.00    -0.141 NA 
ENDROOT
BRANCH   5   7
HETATM    7  C   UNL     1      -9.961   9.118  66.896  1.00  0.00    -0.238 A  
HETATM    8  N   UNL     1      -8.916   9.832  66.411  1.00  0.00    -0.148 NA 
HETATM    9  C   UNL     1      -8.952  11.177  66.587  1.00  0.00    -0.170 A  
HETATM   10  C   UNL     1      -9.958  11.888  67.255  1.00  0.00    -0.200 A  
HETATM   11  C   UNL     1     -11.032   9.729  67.538  1.00  0.00    -0.205 A  
HETATM   12  C   UNL     1     -11.022  11.108  67.724  1.00  0.00    -0.315 A  
BRANCH  10  13
HETATM   13  C   UNL     1      -9.913  13.354  67.438  1.00  0.00    -0.230 A  
HETATM   14  C   UNL     1      -9.932  14.253  66.360  1.00  0.00    -0.292 A  
HETATM   15  C   UNL     1      -9.853  15.636  66.533  1.00  0.00    -0.278 A  
HETATM   16  F   UNL     1     -10.017  13.806  65.096  1.00  0.00    -0.334 F  
HETATM   17  C   UNL     1      -9.740  16.193  67.805  1.00  0.00    -0.229 A  
HETATM   18  C   UNL     1      -9.855  13.929  68.718  1.00  0.00    -0.117 A  
HETATM   19  C   UNL     1      -9.762  15.318  68.899  1.00  0.00    -0.220 A  
BRANCH  17  20
HETATM   20  N   UNL     1      -9.646  17.590  67.992  1.00  0.00    -0.274 N  
HETATM   21  C   UNL     1     -10.729  18.499  67.778  1.00  0.00    -0.339 C  
HETATM   22  C   UNL     1     -10.004  19.791  67.484  1.00  0.00    -0.409 C  
HETATM   23  O   UNL     1      -8.784  19.661  68.227  1.00  0.00    -0.326 OA 
HETATM   24  O   UNL     1      -7.440  17.915  68.748  1.00  0.00    -0.274 OA 
HETATM   25  C   UNL     1      -8.525  18.317  68.367  1.00  0.00    -0.303 C  
BRANCH  22  26
HETATM   26  C   UNL     1      -9.687  19.994  65.998  1.00  0.00    -0.362 C  
HETATM   27  H   UNL     1     -10.589  19.785  64.227  1.00  0.00     0.000 HD 
HETATM   28  O   UNL     1     -10.785  19.659  65.148  1.00  0.00    -0.330 OA 
ENDBRANCH  22  26
ENDBRANCH  17  20
ENDBRANCH  10  13
ENDBRANCH   5   7
TORSDOF 4
ENDMDL
MODEL       43
REMARK 921   NORMALIZED FREE ENERGY PREDICTED BY IDOCK:   -5.60 KCAL/MOL
REMARK 922        TOTAL FREE ENERGY PREDICTED BY IDOCK:   -7.66 KCAL/MOL
REMARK 923 INTER-LIGAND FREE ENERGY PREDICTED BY IDOCK:   -6.87 KCAL/MOL
REMARK 924 INTRA-LIGAND FREE ENERGY PREDICTED BY IDOCK:   -0.80 KCAL/MOL
REMARK 927      BINDING AFFINITY PREDICTED BY RF-SCORE:    0.00 PKD
ROOT
HETATM    1  C   UNL     1     -10.392  20.023  66.081  1.00  0.00    -0.458 C  
HETATM    2  N   UNL     1     -10.432  18.898  66.977  1.00  0.00    -0.406 NA 
HETATM    3  N   UNL     1     -10.332  19.024  68.304  1.00  0.00    -0.367 NA 
HETATM    4  N   UNL     1     -10.311  17.777  68.756  1.00  0.00    -0.362 NA 
HETATM    5  C   UNL     1     -10.396  16.950  67.656  1.00  0.00    -0.317 A  
HETATM    6  N   UNL     1     -10.486  17.646  66.503  1.00  0.00    -0.318 NA 
ENDROOT
BRANCH   5   7
HETATM    7  C   UNL     1     -10.327  15.492  67.709  1.00  0.00    -0.263 A  
HETATM    8  N   UNL     1     -11.209  14.828  68.497  1.00  0.00    -0.263 NA 
HETATM    9  C   UNL     1     -11.075  13.480  68.574  1.00  0.00    -0.272 A  
HETATM   10  C   UNL     1     -10.086  12.718  67.936  1.00  0.00    -0.231 A  
HETATM   11  C   UNL     1      -9.334  14.827  66.999  1.00  0.00    -0.245 A  
HETATM   12  C   UNL     1      -9.211  13.447  67.123  1.00  0.00    -0.240 A  
BRANCH  10  13
HETATM   13  C   UNL     1      -9.982  11.252  68.094  1.00  0.00    -0.191 A  
HETATM   14  C   UNL     1     -10.333  10.354  67.073  1.00  0.00    -0.240 A  
HETATM   15  C   UNL     1     -10.269   8.969  67.236  1.00  0.00    -0.323 A  
HETATM   16  F   UNL     1     -10.763  10.802  65.883  1.00  0.00    -0.293 F  
HETATM   17  C   UNL     1      -9.855   8.409  68.444  1.00  0.00    -0.176 A  
HETATM   18  C   UNL     1      -9.515  10.676  69.287  1.00  0.00    -0.152 A  
HETATM   19  C   UNL     1      -9.460   9.284  69.462  1.00  0.00    -0.178 A  
BRANCH  17  20
HETATM   20  N   UNL     1      -9.798   7.008  68.624  1.00  0.00    -0.145 N  
HETATM   21  C   UNL     1      -8.751   6.178  68.113  1.00  0.00    -0.114 C  
HETATM   22  C   UNL     1      -9.438   4.837  68.001  1.00  0.00    -0.140 C  
HETATM   23  O   UNL     1     -10.420   4.881  69.046  1.00  0.00    -0.102 OA 
HETATM   24  O   UNL     1     -11.694   6.528  69.936  1.00  0.00    -0.406 OA 
HETATM   25  C   UNL     1     -10.725   6.204  69.273  1.00  0.00    -0.318 C  
BRANCH  22  26
HETATM   26  C   UNL     1     -10.126   4.609  66.651  1.00  0.00    -0.234 C  
HETATM   27  H   UNL     1      -9.987   5.255  64.765  1.00  0.00     0.000 HD 
HETATM   28  O   UNL     1      -9.560   5.397  65.602  1.00  0.00    -0.114 OA 
ENDBRANCH  22  26
ENDBRANCH  17  20
ENDBRANCH  10  13
ENDBRANCH   5   7
TORSDOF 4
ENDMDL
MODEL       44
REMARK 921   NORMALIZED FREE ENERGY PREDICTED BY IDOCK:   -5.55 KCAL/MOL
REMARK 922        TOTAL FREE ENERGY PREDICTED BY IDOCK:   -7.60 KCAL/MOL
REMARK 923 INTER-LIGAND FREE ENERGY PREDICTED BY IDOCK:   -6.98 KCAL/MOL
REMARK 924 INTRA-LIGAND FREE ENERGY PREDICTED BY IDOCK:   -0.62 KCAL/MOL
REMARK 927      BINDING AFFINITY PREDICTED BY RF-SCORE:    0.00 PKD
ROOT
HETATM    1  C   UNL     1     -12.633  16.203  74.069  1.00  0.00    -0.574 C  
HETATM    2  N   UNL     1     -12.917  15.634  72.779  1.00  0.00    -0.435 NA 
HETATM    3  N   UNL     1     -14.161  15.415  72.340  1.00  0.00    -0.555 NA 
HETATM    4  N   UNL     1     -13.999  14.801  71.175  1.00  0.00    -0.351 NA 
HETATM    5  C   UNL     1     -12.642  14.675  70.973  1.00  0.00    -0.329 A  
HETATM    6  N   UNL     1     -11.925  15.213  71.983  1.00  0.00    -0.376 NA 
ENDROOT
BRANCH   5   7
HETATM    7  C   UNL     1     -12.035  13.982  69.839  1.00  0.00    -0.336 A  
HETATM    8  N   UNL     1     -11.916  12.633  69.889  1.00  0.00    -0.323 NA 
HETATM    9  C   UNL     1     -11.288  12.028  68.849  1.00  0.00    -0.278 A  
HETATM   10  C   UNL     1     -10.724  12.680  67.743  1.00  0.00    -0.239 A  
HETATM   11  C   UNL     1     -11.547  14.722  68.767  1.00  0.00    -0.347 A  
HETATM   12  C   UNL     1     -10.886  14.070  67.730  1.00  0.00    -0.257 A  
BRANCH  10  13
HETATM   13  C   UNL     1     -10.025  11.956  66.661  1.00  0.00    -0.220 A  
HETATM   14  C   UNL     1     -10.579  11.786  65.382  1.00  0.00    -0.277 A  
HETATM   15  C   UNL     1      -9.933  11.070  64.372  1.00  0.00    -0.368 A  
HETATM   16  F   UNL     1     -11.780  12.305  65.081  1.00  0.00    -0.373 F  
HETATM   17  C   UNL     1      -8.693  10.476  64.597  1.00  0.00    -0.183 A  
HETATM   18  C   UNL     1      -8.751  11.399  66.858  1.00  0.00    -0.165 A  
HETATM   19  C   UNL     1      -8.101  10.668  65.852  1.00  0.00    -0.159 A  
BRANCH  17  20
HETATM   20  N   UNL     1      -8.035   9.739  63.587  1.00  0.00    -0.136 N  
HETATM   21  C   UNL     1      -8.659   8.710  62.814  1.00  0.00    -0.086 C  
HETATM   22  C   UNL     1      -7.477   7.866  62.399  1.00  0.00    -0.104 C  
HETATM   23  O   UNL     1      -6.401   8.812  62.338  1.00  0.00    -0.095 OA 
HETATM   24  O   UNL     1      -5.873  10.669  63.522  1.00  0.00    -0.130 OA 
HETATM   25  C   UNL     1      -6.708   9.845  63.194  1.00  0.00    -0.125 C  
BRANCH  22  26
HETATM   26  C   UNL     1      -7.135   6.754  63.397  1.00  0.00    -0.060 C  
HETATM   27  H   UNL     1      -8.005   5.760  64.896  1.00  0.00     0.000 HD 
HETATM   28  O   UNL     1      -8.217   6.449  64.278  1.00  0.00    -0.100 OA 
ENDBRANCH  22  26
ENDBRANCH  17  20
ENDBRANCH  10  13
ENDBRANCH   5   7
TORSDOF 4
ENDMDL
MODEL       45
REMARK 921   NORMALIZED FREE ENERGY PREDICTED BY IDOCK:   -5.52 KCAL/MOL
REMARK 922        TOTAL FREE ENERGY PREDICTED BY IDOCK:   -7.57 KCAL/MOL
REMARK 923 INTER-LIGAND FREE ENERGY PREDICTED BY IDOCK:   -7.28 KCAL/MOL
REMARK 924 INTRA-LIGAND FREE ENERGY PREDICTED BY IDOCK:   -0.29 KCAL/MOL
REMARK 927      BINDING AFFINITY PREDICTED BY RF-SCORE:    0.00 PKD
ROOT
HETATM    1  C   UNL     1      -9.445   2.742  69.724  1.00  0.00    -0.085 C  
HETATM    2  N   UNL     1      -9.633   3.679  68.648  1.00  0.00    -0.137 NA 
HETATM    3  N   UNL     1      -9.655   3.312  67.363  1.00  0.00    -0.151 NA 
HETATM    4  N   UNL     1      -9.749   4.454  66.693  1.00  0.00    -0.201 NA 
HETATM    5  C   UNL     1      -9.772   5.467  67.628  1.00  0.00    -0.134 A  
HETATM    6  N   UNL     1      -9.712   4.994  68.891  1.00  0.00    -0.154 NA 
ENDROOT
BRANCH   5   7
HETATM    7  C   UNL     1      -9.790   6.892  67.305  1.00  0.00    -0.152 A  
HETATM    8  N   UNL     1     -10.294   7.758  68.218  1.00  0.00    -0.201 NA 
HETATM    9  C   UNL     1     -10.356   9.066  67.860  1.00  0.00    -0.235 A  
HETATM   10  C   UNL     1      -9.975   9.593  66.618  1.00  0.00    -0.301 A  
HETATM   11  C   UNL     1      -9.345   7.316  66.059  1.00  0.00    -0.030 A  
HETATM   12  C   UNL     1      -9.448   8.661  65.717  1.00  0.00    -0.192 A  
BRANCH  10  13
HETATM   13  C   UNL     1     -10.103  11.028  66.287  1.00  0.00    -0.282 A  
HETATM   14  C   UNL     1     -10.522  11.480  65.025  1.00  0.00    -0.290 A  
HETATM   15  C   UNL     1     -10.607  12.835  64.703  1.00  0.00    -0.371 A  
HETATM   16  F   UNL     1     -10.852  10.607  64.059  1.00  0.00    -0.378 F  
HETATM   17  C   UNL     1     -10.265  13.815  65.633  1.00  0.00    -0.313 A  
HETATM   18  C   UNL     1      -9.814  12.025  67.233  1.00  0.00    -0.200 A  
HETATM   19  C   UNL     1      -9.885  13.389  66.911  1.00  0.00    -0.256 A  
BRANCH  17  20
HETATM   20  N   UNL     1     -10.335  15.190  65.314  1.00  0.00    -0.385 N  
HETATM   21  C   UNL     1      -9.374  16.159  65.740  1.00  0.00    -0.185 C  
HETATM   22  C   UNL     1     -10.181  17.436  65.717  1.00  0.00    -0.191 C  
HETATM   23  O   UNL     1     -11.145  17.198  64.682  1.00  0.00    -1.036 OA 
HETATM   24  O   UNL     1     -12.254  15.361  63.959  1.00  0.00    -0.629 OA 
HETATM   25  C   UNL     1     -11.325  15.837  64.588  1.00  0.00    -0.337 C  
BRANCH  22  26
HETATM   26  C   UNL     1     -10.900  17.733  67.038  1.00  0.00    -0.080 C  
HETATM   27  H   UNL     1     -10.764  19.009  68.569  1.00  0.00     0.000 HD 
HETATM   28  O   UNL     1     -10.318  18.825  67.751  1.00  0.00    -0.371 OA 
ENDBRANCH  22  26
ENDBRANCH  17  20
ENDBRANCH  10  13
ENDBRANCH   5   7
TORSDOF 4
ENDMDL
MODEL       46
REMARK 921   NORMALIZED FREE ENERGY PREDICTED BY IDOCK:   -5.52 KCAL/MOL
REMARK 922        TOTAL FREE ENERGY PREDICTED BY IDOCK:   -7.56 KCAL/MOL
REMARK 923 INTER-LIGAND FREE ENERGY PREDICTED BY IDOCK:   -6.76 KCAL/MOL
REMARK 924 INTRA-LIGAND FREE ENERGY PREDICTED BY IDOCK:   -0.80 KCAL/MOL
REMARK 927      BINDING AFFINITY PREDICTED BY RF-SCORE:    0.00 PKD
ROOT
HETATM    1  C   UNL     1     -13.336  15.624  71.807  1.00  0.00    -0.455 C  
HETATM    2  N   UNL     1     -13.233  14.194  71.695  1.00  0.00    -0.334 NA 
HETATM    3  N   UNL     1     -13.763  13.356  72.593  1.00  0.00    -0.722 NA 
HETATM    4  N   UNL     1     -13.372  12.152  72.195  1.00  0.00    -0.466 NA 
HETATM    5  C   UNL     1     -12.609  12.332  71.061  1.00  0.00    -0.257 A  
HETATM    6  N   UNL     1     -12.515  13.633  70.713  1.00  0.00    -0.359 NA 
ENDROOT
BRANCH   5   7
HETATM    7  C   UNL     1     -11.920  11.259  70.348  1.00  0.00    -0.380 A  
HETATM    8  N   UNL     1     -11.683  11.408  69.022  1.00  0.00    -0.314 NA 
HETATM    9  C   UNL     1     -11.100  10.366  68.378  1.00  0.00    -0.268 A  
HETATM   10  C   UNL     1     -10.751   9.137  68.957  1.00  0.00    -0.176 A  
HETATM   11  C   UNL     1     -11.575  10.097  71.029  1.00  0.00    -0.462 A  
HETATM   12  C   UNL     1     -11.002   9.039  70.330  1.00  0.00    -0.283 A  
BRANCH  10  13
HETATM   13  C   UNL     1     -10.148   8.032  68.182  1.00  0.00    -0.234 A  
HETATM   14  C   UNL     1      -8.760   7.882  68.033  1.00  0.00    -0.125 A  
HETATM   15  C   UNL     1      -8.193   6.858  67.271  1.00  0.00    -0.118 A  
HETATM   16  F   UNL     1      -7.910   8.741  68.618  1.00  0.00    -0.095 F  
HETATM   17  C   UNL     1      -8.995   5.932  66.607  1.00  0.00    -0.125 A  
HETATM   18  C   UNL     1     -10.944   7.060  67.554  1.00  0.00    -0.299 A  
HETATM   19  C   UNL     1     -10.381   6.036  66.777  1.00  0.00    -0.296 A  
BRANCH  17  20
HETATM   20  N   UNL     1      -8.432   4.900  65.823  1.00  0.00    -0.118 N  
HETATM   21  C   UNL     1      -8.408   4.905  64.393  1.00  0.00    -0.133 C  
HETATM   22  C   UNL     1      -8.326   3.431  64.073  1.00  0.00    -0.090 C  
HETATM   23  O   UNL     1      -7.626   2.887  65.200  1.00  0.00    -0.077 OA 
HETATM   24  O   UNL     1      -7.579   3.383  67.410  1.00  0.00    -0.075 OA 
HETATM   25  C   UNL     1      -7.854   3.720  66.271  1.00  0.00    -0.089 C  
BRANCH  22  26
HETATM   26  C   UNL     1      -9.694   2.754  63.936  1.00  0.00    -0.142 C  
HETATM   27  H   UNL     1     -11.614   3.272  63.734  1.00  0.00     0.000 HD 
HETATM   28  O   UNL     1     -10.766   3.692  63.819  1.00  0.00    -0.266 OA 
ENDBRANCH  22  26
ENDBRANCH  17  20
ENDBRANCH  10  13
ENDBRANCH   5   7
TORSDOF 4
ENDMDL
MODEL       47
REMARK 921   NORMALIZED FREE ENERGY PREDICTED BY IDOCK:   -5.50 KCAL/MOL
REMARK 922        TOTAL FREE ENERGY PREDICTED BY IDOCK:   -7.54 KCAL/MOL
REMARK 923 INTER-LIGAND FREE ENERGY PREDICTED BY IDOCK:   -7.01 KCAL/MOL
REMARK 924 INTRA-LIGAND FREE ENERGY PREDICTED BY IDOCK:   -0.52 KCAL/MOL
REMARK 927      BINDING AFFINITY PREDICTED BY RF-SCORE:    0.00 PKD
ROOT
HETATM    1  C   UNL     1     -10.102  20.203  65.983  1.00  0.00    -0.383 C  
HETATM    2  N   UNL     1     -10.254  19.208  67.011  1.00  0.00    -0.364 NA 
HETATM    3  N   UNL     1     -10.206  19.499  68.315  1.00  0.00    -0.433 NA 
HETATM    4  N   UNL     1     -10.286  18.322  68.922  1.00  0.00    -0.277 NA 
HETATM    5  C   UNL     1     -10.374  17.366  67.933  1.00  0.00    -0.369 A  
HETATM    6  N   UNL     1     -10.368  17.911  66.698  1.00  0.00    -0.365 NA 
ENDROOT
BRANCH   5   7
HETATM    7  C   UNL     1     -10.402  15.925  68.174  1.00  0.00    -0.256 A  
HETATM    8  N   UNL     1      -9.225  15.264  68.296  1.00  0.00    -0.186 NA 
HETATM    9  C   UNL     1      -9.286  13.917  68.454  1.00  0.00    -0.201 A  
HETATM   10  C   UNL     1     -10.458  13.148  68.468  1.00  0.00    -0.262 A  
HETATM   11  C   UNL     1     -11.624  15.262  68.217  1.00  0.00    -0.357 A  
HETATM   12  C   UNL     1     -11.646  13.878  68.354  1.00  0.00    -0.368 A  
BRANCH  10  13
HETATM   13  C   UNL     1     -10.445  11.677  68.612  1.00  0.00    -0.234 A  
HETATM   14  C   UNL     1      -9.946  10.823  67.615  1.00  0.00    -0.173 A  
HETATM   15  C   UNL     1      -9.968   9.432  67.737  1.00  0.00    -0.228 A  
HETATM   16  F   UNL     1      -9.430  11.322  66.480  1.00  0.00    -0.184 F  
HETATM   17  C   UNL     1     -10.504   8.821  68.868  1.00  0.00    -0.197 A  
HETATM   18  C   UNL     1     -10.932  11.051  69.771  1.00  0.00    -0.258 A  
HETATM   19  C   UNL     1     -10.969   9.653  69.894  1.00  0.00    -0.281 A  
BRANCH  17  20
HETATM   20  N   UNL     1     -10.543   7.415  68.997  1.00  0.00    -0.211 N  
HETATM   21  C   UNL     1     -10.290   6.716  70.219  1.00  0.00    -0.202 C  
HETATM   22  C   UNL     1      -9.832   5.365  69.722  1.00  0.00    -0.201 C  
HETATM   23  O   UNL     1     -10.526   5.220  68.475  1.00  0.00    -0.157 OA 
HETATM   24  O   UNL     1     -11.156   6.666  66.850  1.00  0.00    -0.400 OA 
HETATM   25  C   UNL     1     -10.789   6.483  67.998  1.00  0.00    -0.295 C  
BRANCH  22  26
HETATM   26  C   UNL     1      -8.320   5.276  69.489  1.00  0.00    -0.095 C  
HETATM   27  H   UNL     1      -7.037   4.295  68.311  1.00  0.00     0.000 HD 
HETATM   28  O   UNL     1      -7.975   4.351  68.456  1.00  0.00    -0.077 OA 
ENDBRANCH  22  26
ENDBRANCH  17  20
ENDBRANCH  10  13
ENDBRANCH   5   7
TORSDOF 4
ENDMDL
MODEL       48
REMARK 921   NORMALIZED FREE ENERGY PREDICTED BY IDOCK:   -5.45 KCAL/MOL
REMARK 922        TOTAL FREE ENERGY PREDICTED BY IDOCK:   -7.48 KCAL/MOL
REMARK 923 INTER-LIGAND FREE ENERGY PREDICTED BY IDOCK:   -6.83 KCAL/MOL
REMARK 924 INTRA-LIGAND FREE ENERGY PREDICTED BY IDOCK:   -0.65 KCAL/MOL
REMARK 927      BINDING AFFINITY PREDICTED BY RF-SCORE:    0.00 PKD
ROOT
HETATM    1  C   UNL     1      -9.512   2.502  70.990  1.00  0.00    -0.152 C  
HETATM    2  N   UNL     1      -9.674   3.470  69.938  1.00  0.00    -0.140 NA 
HETATM    3  N   UNL     1      -9.602   3.151  68.642  1.00  0.00    -0.116 NA 
HETATM    4  N   UNL     1      -9.702   4.312  68.007  1.00  0.00    -0.139 NA 
HETATM    5  C   UNL     1      -9.825   5.287  68.973  1.00  0.00    -0.167 A  
HETATM    6  N   UNL     1      -9.823   4.771  70.221  1.00  0.00    -0.224 NA 
ENDROOT
BRANCH   5   7
HETATM    7  C   UNL     1      -9.884   6.721  68.699  1.00  0.00    -0.142 A  
HETATM    8  N   UNL     1      -9.486   7.584  69.666  1.00  0.00    -0.157 NA 
HETATM    9  C   UNL     1      -9.615   8.909  69.403  1.00  0.00    -0.163 A  
HETATM   10  C   UNL     1     -10.153   9.462  68.233  1.00  0.00    -0.210 A  
HETATM   11  C   UNL     1     -10.394   7.165  67.485  1.00  0.00    -0.303 A  
HETATM   12  C   UNL     1     -10.535   8.531  67.260  1.00  0.00    -0.366 A  
BRANCH  10  13
HETATM   13  C   UNL     1     -10.293  10.919  68.030  1.00  0.00    -0.212 A  
HETATM   14  C   UNL     1     -11.429  11.636  68.439  1.00  0.00    -0.297 A  
HETATM   15  C   UNL     1     -11.575  13.006  68.213  1.00  0.00    -0.375 A  
HETATM   16  F   UNL     1     -12.443  11.016  69.063  1.00  0.00    -0.383 F  
HETATM   17  C   UNL     1     -10.586  13.732  67.553  1.00  0.00    -0.244 A  
HETATM   18  C   UNL     1      -9.279  11.673  67.414  1.00  0.00    -0.168 A  
HETATM   19  C   UNL     1      -9.425  13.048  67.173  1.00  0.00    -0.230 A  
BRANCH  17  20
HETATM   20  N   UNL     1     -10.728  15.116  67.308  1.00  0.00    -0.298 N  
HETATM   21  C   UNL     1     -10.705  15.704  66.004  1.00  0.00    -0.317 C  
HETATM   22  C   UNL     1     -10.259  17.116  66.302  1.00  0.00    -0.334 C  
HETATM   23  O   UNL     1     -10.765  17.350  67.624  1.00  0.00    -0.363 OA 
HETATM   24  O   UNL     1     -11.055  16.041  69.449  1.00  0.00    -0.284 OA 
HETATM   25  C   UNL     1     -10.877  16.128  68.247  1.00  0.00    -0.326 C  
BRANCH  22  26
HETATM   26  C   UNL     1      -8.738  17.297  66.289  1.00  0.00    -0.224 C  
HETATM   27  H   UNL     1      -7.397  18.720  65.874  1.00  0.00     0.000 HD 
HETATM   28  O   UNL     1      -8.340  18.607  65.882  1.00  0.00    -0.494 OA 
ENDBRANCH  22  26
ENDBRANCH  17  20
ENDBRANCH  10  13
ENDBRANCH   5   7
TORSDOF 4
ENDMDL
MODEL       49
REMARK 921   NORMALIZED FREE ENERGY PREDICTED BY IDOCK:   -5.42 KCAL/MOL
REMARK 922        TOTAL FREE ENERGY PREDICTED BY IDOCK:   -7.44 KCAL/MOL
REMARK 923 INTER-LIGAND FREE ENERGY PREDICTED BY IDOCK:   -7.05 KCAL/MOL
REMARK 924 INTRA-LIGAND FREE ENERGY PREDICTED BY IDOCK:   -0.39 KCAL/MOL
REMARK 927      BINDING AFFINITY PREDICTED BY RF-SCORE:    0.00 PKD
ROOT
HETATM    1  C   UNL     1     -11.401  15.971  64.478  1.00  0.00    -0.295 C  
HETATM    2  N   UNL     1     -11.713  14.614  64.841  1.00  0.00    -0.388 NA 
HETATM    3  N   UNL     1     -12.850  14.009  64.477  1.00  0.00    -0.613 NA 
HETATM    4  N   UNL     1     -12.804  12.828  65.079  1.00  0.00    -0.821 NA 
HETATM    5  C   UNL     1     -11.625  12.785  65.791  1.00  0.00    -0.376 A  
HETATM    6  N   UNL     1     -10.901  13.915  65.644  1.00  0.00    -0.287 NA 
ENDROOT
BRANCH   5   7
HETATM    7  C   UNL     1     -11.222  11.682  66.661  1.00  0.00    -0.299 A  
HETATM    8  N   UNL     1     -10.458  10.690  66.142  1.00  0.00    -0.225 NA 
HETATM    9  C   UNL     1     -10.158   9.649  66.959  1.00  0.00    -0.214 A  
HETATM   10  C   UNL     1     -10.595   9.496  68.282  1.00  0.00    -0.260 A  
HETATM   11  C   UNL     1     -11.674  11.649  67.976  1.00  0.00    -0.351 A  
HETATM   12  C   UNL     1     -11.367  10.553  68.777  1.00  0.00    -0.310 A  
BRANCH  10  13
HETATM   13  C   UNL     1     -10.254   8.315  69.104  1.00  0.00    -0.223 A  
HETATM   14  C   UNL     1      -9.498   8.406  70.284  1.00  0.00    -0.164 A  
HETATM   15  C   UNL     1      -9.145   7.286  71.039  1.00  0.00    -0.153 A  
HETATM   16  F   UNL     1      -9.066   9.596  70.732  1.00  0.00    -0.279 F  
HETATM   17  C   UNL     1      -9.528   6.006  70.642  1.00  0.00    -0.168 A  
HETATM   18  C   UNL     1     -10.680   7.026  68.744  1.00  0.00    -0.226 A  
HETATM   19  C   UNL     1     -10.319   5.894  69.492  1.00  0.00    -0.314 A  
BRANCH  17  20
HETATM   20  N   UNL     1      -9.167   4.864  71.391  1.00  0.00    -0.142 N  
HETATM   21  C   UNL     1      -9.906   3.640  71.389  1.00  0.00    -0.149 C  
HETATM   22  C   UNL     1      -9.532   3.042  72.725  1.00  0.00    -0.103 C  
HETATM   23  O   UNL     1      -8.210   3.549  72.955  1.00  0.00    -0.079 OA 
HETATM   24  O   UNL     1      -7.166   5.496  72.460  1.00  0.00    -0.088 OA 
HETATM   25  C   UNL     1      -8.093   4.731  72.260  1.00  0.00    -0.107 C  
BRANCH  22  26
HETATM   26  C   UNL     1     -10.457   3.469  73.870  1.00  0.00    -0.184 C  
HETATM   27  H   UNL     1     -12.222   4.373  74.119  1.00  0.00     0.000 HD 
HETATM   28  O   UNL     1     -11.648   4.109  73.409  1.00  0.00    -0.231 OA 
ENDBRANCH  22  26
ENDBRANCH  17  20
ENDBRANCH  10  13
ENDBRANCH   5   7
TORSDOF 4
ENDMDL
MODEL       50
REMARK 921   NORMALIZED FREE ENERGY PREDICTED BY IDOCK:   -5.41 KCAL/MOL
REMARK 922        TOTAL FREE ENERGY PREDICTED BY IDOCK:   -7.42 KCAL/MOL
REMARK 923 INTER-LIGAND FREE ENERGY PREDICTED BY IDOCK:   -6.78 KCAL/MOL
REMARK 924 INTRA-LIGAND FREE ENERGY PREDICTED BY IDOCK:   -0.64 KCAL/MOL
REMARK 927      BINDING AFFINITY PREDICTED BY RF-SCORE:    0.00 PKD
ROOT
HETATM    1  C   UNL     1     -10.943   1.637  73.563  1.00  0.00    -0.147 C  
HETATM    2  N   UNL     1     -10.828   3.062  73.399  1.00  0.00    -0.196 NA 
HETATM    3  N   UNL     1     -11.100   3.929  74.380  1.00  0.00    -0.007 NA 
HETATM    4  N   UNL     1     -10.972   5.122  73.813  1.00  0.00    -0.287 NA 
HETATM    5  C   UNL     1     -10.629   4.906  72.496  1.00  0.00    -0.210 A  
HETATM    6  N   UNL     1     -10.518   3.591  72.209  1.00  0.00    -0.052 NA 
ENDROOT
BRANCH   5   7
HETATM    7  C   UNL     1     -10.468   5.961  71.498  1.00  0.00    -0.233 A  
HETATM    8  N   UNL     1     -10.020   7.175  71.903  1.00  0.00    -0.168 NA 
HETATM    9  C   UNL     1      -9.944   8.150  70.963  1.00  0.00    -0.187 A  
HETATM   10  C   UNL     1     -10.320   8.022  69.618  1.00  0.00    -0.220 A  
HETATM   11  C   UNL     1     -10.827   5.714  70.178  1.00  0.00    -0.356 A  
HETATM   12  C   UNL     1     -10.761   6.746  69.247  1.00  0.00    -0.288 A  
BRANCH  10  13
HETATM   13  C   UNL     1     -10.241   9.141  68.656  1.00  0.00    -0.225 A  
HETATM   14  C   UNL     1     -11.141  10.219  68.672  1.00  0.00    -0.239 A  
HETATM   15  C   UNL     1     -11.087  11.257  67.740  1.00  0.00    -0.328 A  
HETATM   16  F   UNL     1     -12.114  10.286  69.595  1.00  0.00    -0.265 F  
HETATM   17  C   UNL     1     -10.126  11.264  66.731  1.00  0.00    -0.219 A  
HETATM   18  C   UNL     1      -9.243   9.188  67.669  1.00  0.00    -0.143 A  
HETATM   19  C   UNL     1      -9.191  10.222  66.721  1.00  0.00    -0.180 A  
BRANCH  17  20
HETATM   20  N   UNL     1     -10.070  12.302  65.775  1.00  0.00    -0.248 N  
HETATM   21  C   UNL     1     -10.054  13.694  66.107  1.00  0.00    -0.306 C  
HETATM   22  C   UNL     1     -10.619  14.323  64.855  1.00  0.00    -0.431 C  
HETATM   23  O   UNL     1     -10.216  13.417  63.819  1.00  0.00    -0.116 OA 
HETATM   24  O   UNL     1      -9.947  11.171  63.714  1.00  0.00    -0.283 OA 
HETATM   25  C   UNL     1     -10.055  12.176  64.393  1.00  0.00    -0.274 C  
BRANCH  22  26
HETATM   26  C   UNL     1     -12.146  14.452  64.868  1.00  0.00    -0.436 C  
HETATM   27  H   UNL     1     -13.659  14.518  63.563  1.00  0.00     0.000 HD 
HETATM   28  O   UNL     1     -12.712  14.438  63.556  1.00  0.00    -0.742 OA 
ENDBRANCH  22  26
ENDBRANCH  17  20
ENDBRANCH  10  13
ENDBRANCH   5   7
TORSDOF 4
ENDMDL
MODEL       51
REMARK 921   NORMALIZED FREE ENERGY PREDICTED BY IDOCK:   -5.37 KCAL/MOL
REMARK 922        TOTAL FREE ENERGY PREDICTED BY IDOCK:   -7.38 KCAL/MOL
REMARK 923 INTER-LIGAND FREE ENERGY PREDICTED BY IDOCK:   -6.77 KCAL/MOL
REMARK 924 INTRA-LIGAND FREE ENERGY PREDICTED BY IDOCK:   -0.61 KCAL/MOL
REMARK 927      BINDING AFFINITY PREDICTED BY RF-SCORE:    0.00 PKD
ROOT
HETATM    1  C   UNL     1      -6.800  20.203  65.490  1.00  0.00    -0.298 C  
HETATM    2  N   UNL     1      -7.801  19.189  65.691  1.00  0.00    -0.414 NA 
HETATM    3  N   UNL     1      -9.099  19.471  65.840  1.00  0.00    -0.400 NA 
HETATM    4  N   UNL     1      -9.667  18.300  66.096  1.00  0.00    -0.507 NA 
HETATM    5  C   UNL     1      -8.661  17.358  66.094  1.00  0.00    -0.156 A  
HETATM    6  N   UNL     1      -7.455  17.902  65.824  1.00  0.00    -0.548 NA 
ENDROOT
BRANCH   5   7
HETATM    7  C   UNL     1      -8.849  15.944  66.413  1.00  0.00    -0.333 A  
HETATM    8  N   UNL     1      -7.945  15.334  67.218  1.00  0.00    -0.186 NA 
HETATM    9  C   UNL     1      -8.114  14.005  67.440  1.00  0.00    -0.185 A  
HETATM   10  C   UNL     1      -9.121  13.204  66.884  1.00  0.00    -0.231 A  
HETATM   11  C   UNL     1      -9.911  15.250  65.843  1.00  0.00    -0.368 A  
HETATM   12  C   UNL     1     -10.037  13.884  66.073  1.00  0.00    -0.324 A  
BRANCH  10  13
HETATM   13  C   UNL     1      -9.223  11.753  67.146  1.00  0.00    -0.179 A  
HETATM   14  C   UNL     1      -9.403  10.809  66.122  1.00  0.00    -0.183 A  
HETATM   15  C   UNL     1      -9.535   9.442  66.375  1.00  0.00    -0.259 A  
HETATM   16  F   UNL     1      -9.469  11.195  64.838  1.00  0.00    -0.218 F  
HETATM   17  C   UNL     1      -9.502   8.949  67.678  1.00  0.00    -0.138 A  
HETATM   18  C   UNL     1      -9.136  11.238  68.450  1.00  0.00    -0.170 A  
HETATM   19  C   UNL     1      -9.281   9.866  68.712  1.00  0.00    -0.147 A  
BRANCH  17  20
HETATM   20  N   UNL     1      -9.648   7.570  67.946  1.00  0.00    -0.141 N  
HETATM   21  C   UNL     1     -10.897   6.874  67.903  1.00  0.00    -0.218 C  
HETATM   22  C   UNL     1     -10.642   5.710  68.831  1.00  0.00    -0.233 C  
HETATM   23  O   UNL     1      -9.232   5.483  68.698  1.00  0.00    -0.119 OA 
HETATM   24  O   UNL     1      -7.448   6.838  68.362  1.00  0.00    -0.091 OA 
HETATM   25  C   UNL     1      -8.655   6.674  68.321  1.00  0.00    -0.119 C  
BRANCH  22  26
HETATM   26  C   UNL     1     -10.984   6.005  70.296  1.00  0.00    -0.342 C  
HETATM   27  H   UNL     1     -12.510   6.724  71.368  1.00  0.00     0.000 HD 
HETATM   28  O   UNL     1     -12.298   6.542  70.460  1.00  0.00    -0.259 OA 
ENDBRANCH  22  26
ENDBRANCH  17  20
ENDBRANCH  10  13
ENDBRANCH   5   7
TORSDOF 4
ENDMDL
MODEL       52
REMARK 921   NORMALIZED FREE ENERGY PREDICTED BY IDOCK:   -5.35 KCAL/MOL
REMARK 922        TOTAL FREE ENERGY PREDICTED BY IDOCK:   -7.36 KCAL/MOL
REMARK 923 INTER-LIGAND FREE ENERGY PREDICTED BY IDOCK:   -6.65 KCAL/MOL
REMARK 924 INTRA-LIGAND FREE ENERGY PREDICTED BY IDOCK:   -0.71 KCAL/MOL
REMARK 927      BINDING AFFINITY PREDICTED BY RF-SCORE:    0.00 PKD
ROOT
HETATM    1  C   UNL     1     -10.757   5.495  69.636  1.00  0.00    -0.278 C  
HETATM    2  N   UNL     1     -10.714   6.617  68.736  1.00  0.00    -0.237 NA 
HETATM    3  N   UNL     1     -10.828   6.488  67.410  1.00  0.00    -0.332 NA 
HETATM    4  N   UNL     1     -10.641   7.714  66.939  1.00  0.00    -0.341 NA 
HETATM    5  C   UNL     1     -10.413   8.530  68.026  1.00  0.00    -0.191 A  
HETATM    6  N   UNL     1     -10.467   7.852  69.192  1.00  0.00    -0.220 NA 
ENDROOT
BRANCH   5   7
HETATM    7  C   UNL     1     -10.082   9.951  67.940  1.00  0.00    -0.173 A  
HETATM    8  N   UNL     1      -8.827  10.346  68.263  1.00  0.00    -0.131 NA 
HETATM    9  C   UNL     1      -8.572  11.679  68.235  1.00  0.00    -0.162 A  
HETATM   10  C   UNL     1      -9.503  12.683  67.933  1.00  0.00    -0.204 A  
HETATM   11  C   UNL     1     -11.070  10.863  67.584  1.00  0.00    -0.376 A  
HETATM   12  C   UNL     1     -10.780  12.223  67.592  1.00  0.00    -0.250 A  
BRANCH  10  13
HETATM   13  C   UNL     1      -9.161  14.121  67.955  1.00  0.00    -0.191 A  
HETATM   14  C   UNL     1      -9.791  15.037  68.813  1.00  0.00    -0.233 A  
HETATM   15  C   UNL     1      -9.493  16.401  68.807  1.00  0.00    -0.247 A  
HETATM   16  F   UNL     1     -10.733  14.629  69.679  1.00  0.00    -0.241 F  
HETATM   17  C   UNL     1      -8.546  16.922  67.927  1.00  0.00    -0.208 A  
HETATM   18  C   UNL     1      -8.170  14.650  67.112  1.00  0.00    -0.227 A  
HETATM   19  C   UNL     1      -7.874  16.022  67.092  1.00  0.00    -0.244 A  
BRANCH  17  20
HETATM   20  N   UNL     1      -8.245  18.302  67.903  1.00  0.00    -0.248 N  
HETATM   21  C   UNL     1      -8.889  19.246  67.043  1.00  0.00    -0.293 C  
HETATM   22  C   UNL     1      -7.848  20.335  66.932  1.00  0.00    -0.309 C  
HETATM   23  O   UNL     1      -7.154  20.257  68.185  1.00  0.00    -0.293 OA 
HETATM   24  O   UNL     1      -6.604  18.554  69.573  1.00  0.00    -0.252 OA 
HETATM   25  C   UNL     1      -7.285  18.969  68.652  1.00  0.00    -0.316 C  
BRANCH  22  26
HETATM   26  C   UNL     1      -6.861  20.126  65.778  1.00  0.00    -0.274 C  
HETATM   27  H   UNL     1      -4.926  20.432  65.382  1.00  0.00     0.000 HD 
HETATM   28  O   UNL     1      -5.538  20.562  66.097  1.00  0.00    -0.173 OA 
ENDBRANCH  22  26
ENDBRANCH  17  20
ENDBRANCH  10  13
ENDBRANCH   5   7
TORSDOF 4
ENDMDL
MODEL       53
REMARK 921   NORMALIZED FREE ENERGY PREDICTED BY IDOCK:   -5.30 KCAL/MOL
REMARK 922        TOTAL FREE ENERGY PREDICTED BY IDOCK:   -7.29 KCAL/MOL
REMARK 923 INTER-LIGAND FREE ENERGY PREDICTED BY IDOCK:   -6.67 KCAL/MOL
REMARK 924 INTRA-LIGAND FREE ENERGY PREDICTED BY IDOCK:   -0.62 KCAL/MOL
REMARK 927      BINDING AFFINITY PREDICTED BY RF-SCORE:    0.00 PKD
ROOT
HETATM    1  C   UNL     1     -10.302  18.623  67.764  1.00  0.00    -0.410 C  
HETATM    2  N   UNL     1     -10.225  17.516  66.848  1.00  0.00    -0.319 NA 
HETATM    3  N   UNL     1     -10.609  17.603  65.571  1.00  0.00    -0.615 NA 
HETATM    4  N   UNL     1     -10.477  16.370  65.099  1.00  0.00    -0.657 NA 
HETATM    5  C   UNL     1     -10.017  15.590  66.138  1.00  0.00    -0.309 A  
HETATM    6  N   UNL     1      -9.835  16.306  67.269  1.00  0.00    -0.239 NA 
ENDROOT
BRANCH   5   7
HETATM    7  C   UNL     1      -9.811  14.146  66.062  1.00  0.00    -0.309 A  
HETATM    8  N   UNL     1     -10.508  13.438  65.140  1.00  0.00    -0.330 NA 
HETATM    9  C   UNL     1     -10.342  12.091  65.140  1.00  0.00    -0.276 A  
HETATM   10  C   UNL     1      -9.538  11.366  66.030  1.00  0.00    -0.247 A  
HETATM   11  C   UNL     1      -8.952  13.528  66.965  1.00  0.00    -0.237 A  
HETATM   12  C   UNL     1      -8.827  12.143  66.952  1.00  0.00    -0.202 A  
BRANCH  10  13
HETATM   13  C   UNL     1      -9.431   9.892  65.990  1.00  0.00    -0.258 A  
HETATM   14  C   UNL     1     -10.218   9.054  66.797  1.00  0.00    -0.271 A  
HETATM   15  C   UNL     1     -10.090   7.664  66.784  1.00  0.00    -0.325 A  
HETATM   16  F   UNL     1     -11.131   9.569  67.635  1.00  0.00    -0.334 F  
HETATM   17  C   UNL     1      -9.154   7.038  65.963  1.00  0.00    -0.069 A  
HETATM   18  C   UNL     1      -8.530   9.247  65.127  1.00  0.00    -0.173 A  
HETATM   19  C   UNL     1      -8.388   7.851  65.119  1.00  0.00    -0.128 A  
BRANCH  17  20
HETATM   20  N   UNL     1      -9.007   5.633  65.952  1.00  0.00    -0.155 N  
HETATM   21  C   UNL     1      -7.762   4.958  66.153  1.00  0.00    -0.091 C  
HETATM   22  C   UNL     1      -7.997   3.645  65.444  1.00  0.00    -0.093 C  
HETATM   23  O   UNL     1      -9.411   3.445  65.578  1.00  0.00    -0.160 OA 
HETATM   24  O   UNL     1     -11.198   4.836  65.616  1.00  0.00    -0.103 OA 
HETATM   25  C   UNL     1      -9.993   4.684  65.719  1.00  0.00    -0.230 C  
BRANCH  22  26
HETATM   26  C   UNL     1      -7.615   3.671  63.959  1.00  0.00    -0.075 C  
HETATM   27  H   UNL     1      -7.244   2.379  62.481  1.00  0.00     0.000 HD 
HETATM   28  O   UNL     1      -7.480   2.363  63.401  1.00  0.00    -0.051 OA 
ENDBRANCH  22  26
ENDBRANCH  17  20
ENDBRANCH  10  13
ENDBRANCH   5   7
TORSDOF 4
ENDMDL
MODEL       54
REMARK 921   NORMALIZED FREE ENERGY PREDICTED BY IDOCK:   -5.29 KCAL/MOL
REMARK 922        TOTAL FREE ENERGY PREDICTED BY IDOCK:   -7.28 KCAL/MOL
REMARK 923 INTER-LIGAND FREE ENERGY PREDICTED BY IDOCK:   -6.55 KCAL/MOL
REMARK 924 INTRA-LIGAND FREE ENERGY PREDICTED BY IDOCK:   -0.73 KCAL/MOL
REMARK 927      BINDING AFFINITY PREDICTED BY RF-SCORE:    0.00 PKD
ROOT
HETATM    1  C   UNL     1      -9.346   2.649  64.732  1.00  0.00    -0.139 C  
HETATM    2  N   UNL     1      -9.432   3.704  65.706  1.00  0.00    -0.170 NA 
HETATM    3  N   UNL     1      -9.708   3.481  66.995  1.00  0.00    -0.110 NA 
HETATM    4  N   UNL     1      -9.794   4.691  67.532  1.00  0.00    -0.169 NA 
HETATM    5  C   UNL     1      -9.569   5.597  66.517  1.00  0.00    -0.155 A  
HETATM    6  N   UNL     1      -9.322   4.987  65.338  1.00  0.00    -0.145 NA 
ENDROOT
BRANCH   5   7
HETATM    7  C   UNL     1      -9.651   7.047  66.669  1.00  0.00    -0.167 A  
HETATM    8  N   UNL     1     -10.516   7.557  67.580  1.00  0.00    -0.254 NA 
HETATM    9  C   UNL     1     -10.615   8.909  67.648  1.00  0.00    -0.224 A  
HETATM   10  C   UNL     1      -9.927   9.822  66.838  1.00  0.00    -0.270 A  
HETATM   11  C   UNL     1      -8.888   7.866  65.843  1.00  0.00    -0.183 A  
HETATM   12  C   UNL     1      -9.036   9.247  65.924  1.00  0.00    -0.225 A  
BRANCH  10  13
HETATM   13  C   UNL     1     -10.111  11.284  66.948  1.00  0.00    -0.246 A  
HETATM   14  C   UNL     1     -10.945  12.010  66.082  1.00  0.00    -0.302 A  
HETATM   15  C   UNL     1     -11.089  13.397  66.164  1.00  0.00    -0.299 A  
HETATM   16  F   UNL     1     -11.638  11.387  65.115  1.00  0.00    -0.247 F  
HETATM   17  C   UNL     1     -10.393  14.133  67.121  1.00  0.00    -0.265 A  
HETATM   18  C   UNL     1      -9.457  12.031  67.942  1.00  0.00    -0.196 A  
HETATM   19  C   UNL     1      -9.588  13.426  68.022  1.00  0.00    -0.219 A  
BRANCH  17  20
HETATM   20  N   UNL     1     -10.522  15.537  67.205  1.00  0.00    -0.273 N  
HETATM   21  C   UNL     1      -9.973  16.449  66.250  1.00  0.00    -0.323 C  
HETATM   22  C   UNL     1      -9.817  17.709  67.068  1.00  0.00    -0.307 C  
HETATM   23  O   UNL     1     -10.870  17.605  68.038  1.00  0.00    -0.369 OA 
HETATM   24  O   UNL     1     -11.829  15.872  69.135  1.00  0.00    -0.389 OA 
HETATM   25  C   UNL     1     -11.147  16.268  68.206  1.00  0.00    -0.346 C  
BRANCH  22  26
HETATM   26  C   UNL     1      -8.464  17.816  67.781  1.00  0.00    -0.236 C  
HETATM   27  H   UNL     1      -7.450  19.134  68.889  1.00  0.00     0.000 HD 
HETATM   28  O   UNL     1      -8.288  19.068  68.447  1.00  0.00    -0.322 OA 
ENDBRANCH  22  26
ENDBRANCH  17  20
ENDBRANCH  10  13
ENDBRANCH   5   7
TORSDOF 4
ENDMDL
MODEL       55
REMARK 921   NORMALIZED FREE ENERGY PREDICTED BY IDOCK:   -5.27 KCAL/MOL
REMARK 922        TOTAL FREE ENERGY PREDICTED BY IDOCK:   -7.26 KCAL/MOL
REMARK 923 INTER-LIGAND FREE ENERGY PREDICTED BY IDOCK:   -6.62 KCAL/MOL
REMARK 924 INTRA-LIGAND FREE ENERGY PREDICTED BY IDOCK:   -0.63 KCAL/MOL
REMARK 927      BINDING AFFINITY PREDICTED BY RF-SCORE:    0.00 PKD
ROOT
HETATM    1  C   UNL     1      -9.586   3.459  70.565  1.00  0.00    -0.161 C  
HETATM    2  N   UNL     1      -9.780   4.396  69.491  1.00  0.00    -0.205 NA 
HETATM    3  N   UNL     1      -9.766   4.038  68.203  1.00  0.00    -0.120 NA 
HETATM    4  N   UNL     1      -9.879   5.181  67.538  1.00  0.00    -0.152 NA 
HETATM    5  C   UNL     1      -9.951   6.186  68.479  1.00  0.00    -0.147 A  
HETATM    6  N   UNL     1      -9.902   5.707  69.740  1.00  0.00    -0.172 NA 
ENDROOT
BRANCH   5   7
HETATM    7  C   UNL     1     -10.004   7.612  68.164  1.00  0.00    -0.175 A  
HETATM    8  N   UNL     1      -9.592   8.022  66.940  1.00  0.00    -0.187 NA 
HETATM    9  C   UNL     1      -9.593   9.359  66.704  1.00  0.00    -0.192 A  
HETATM   10  C   UNL     1      -9.952  10.352  67.626  1.00  0.00    -0.205 A  
HETATM   11  C   UNL     1     -10.421   8.512  69.138  1.00  0.00    -0.217 A  
HETATM   12  C   UNL     1     -10.384   9.877  68.869  1.00  0.00    -0.221 A  
BRANCH  10  13
HETATM   13  C   UNL     1      -9.896  11.794  67.307  1.00  0.00    -0.198 A  
HETATM   14  C   UNL     1     -11.044  12.601  67.240  1.00  0.00    -0.278 A  
HETATM   15  C   UNL     1     -10.993  13.954  66.903  1.00  0.00    -0.300 A  
HETATM   16  F   UNL     1     -12.259  12.086  67.490  1.00  0.00    -0.303 F  
HETATM   17  C   UNL     1      -9.780  14.573  66.606  1.00  0.00    -0.273 A  
HETATM   18  C   UNL     1      -8.675  12.442  67.059  1.00  0.00    -0.207 A  
HETATM   19  C   UNL     1      -8.617  13.800  66.708  1.00  0.00    -0.058 A  
BRANCH  17  20
HETATM   20  N   UNL     1      -9.718  15.939  66.252  1.00  0.00    -0.282 N  
HETATM   21  C   UNL     1      -8.843  16.886  66.871  1.00  0.00    -0.225 C  
HETATM   22  C   UNL     1      -9.571  18.189  66.635  1.00  0.00    -0.306 C  
HETATM   23  O   UNL     1     -10.276  17.956  65.408  1.00  0.00    -0.523 OA 
HETATM   24  O   UNL     1     -11.260  16.138  64.483  1.00  0.00    -0.583 OA 
HETATM   25  C   UNL     1     -10.484  16.600  65.301  1.00  0.00    -0.173 C  
BRANCH  22  26
HETATM   26  C   UNL     1     -10.565  18.549  67.745  1.00  0.00    -0.385 C  
HETATM   27  H   UNL     1     -10.740  18.356  69.726  1.00  0.00     0.000 HD 
HETATM   28  O   UNL     1     -10.124  18.133  69.038  1.00  0.00    -0.377 OA 
ENDBRANCH  22  26
ENDBRANCH  17  20
ENDBRANCH  10  13
ENDBRANCH   5   7
TORSDOF 4
ENDMDL
MODEL       56
REMARK 921   NORMALIZED FREE ENERGY PREDICTED BY IDOCK:   -5.26 KCAL/MOL
REMARK 922        TOTAL FREE ENERGY PREDICTED BY IDOCK:   -7.24 KCAL/MOL
REMARK 923 INTER-LIGAND FREE ENERGY PREDICTED BY IDOCK:   -6.52 KCAL/MOL
REMARK 924 INTRA-LIGAND FREE ENERGY PREDICTED BY IDOCK:   -0.72 KCAL/MOL
REMARK 927      BINDING AFFINITY PREDICTED BY RF-SCORE:    0.00 PKD
ROOT
HETATM    1  C   UNL     1     -10.163   5.021  69.672  1.00  0.00    -0.236 C  
HETATM    2  N   UNL     1     -10.364   6.179  68.842  1.00  0.00    -0.186 NA 
HETATM    3  N   UNL     1     -10.986   6.126  67.660  1.00  0.00    -0.331 NA 
HETATM    4  N   UNL     1     -10.881   7.356  67.173  1.00  0.00    -0.323 NA 
HETATM    5  C   UNL     1     -10.183   8.097  68.102  1.00  0.00    -0.209 A  
HETATM    6  N   UNL     1      -9.850   7.367  69.188  1.00  0.00    -0.165 NA 
ENDROOT
BRANCH   5   7
HETATM    7  C   UNL     1      -9.782   9.490  67.918  1.00  0.00    -0.147 A  
HETATM    8  N   UNL     1      -8.956  10.054  68.833  1.00  0.00    -0.143 NA 
HETATM    9  C   UNL     1      -8.656  11.367  68.668  1.00  0.00    -0.126 A  
HETATM   10  C   UNL     1      -9.152  12.198  67.653  1.00  0.00    -0.181 A  
HETATM   11  C   UNL     1     -10.296  10.214  66.848  1.00  0.00    -0.298 A  
HETATM   12  C   UNL     1      -9.988  11.565  66.726  1.00  0.00    -0.235 A  
BRANCH  10  13
HETATM   13  C   UNL     1      -8.806  13.632  67.555  1.00  0.00    -0.205 A  
HETATM   14  C   UNL     1      -7.493  14.082  67.349  1.00  0.00    -0.127 A  
HETATM   15  C   UNL     1      -7.163  15.438  67.294  1.00  0.00    -0.229 A  
HETATM   16  F   UNL     1      -6.482  13.209  67.208  1.00  0.00    -0.166 F  
HETATM   17  C   UNL     1      -8.140  16.419  67.452  1.00  0.00    -0.153 A  
HETATM   18  C   UNL     1      -9.790  14.629  67.658  1.00  0.00    -0.218 A  
HETATM   19  C   UNL     1      -9.464  15.994  67.616  1.00  0.00    -0.216 A  
BRANCH  17  20
HETATM   20  N   UNL     1      -7.816  17.794  67.410  1.00  0.00    -0.205 N  
HETATM   21  C   UNL     1      -7.967  18.684  68.519  1.00  0.00    -0.337 C  
HETATM   22  C   UNL     1      -8.116  20.021  67.832  1.00  0.00    -0.264 C  
HETATM   23  O   UNL     1      -7.358  19.859  66.625  1.00  0.00    -0.233 OA 
HETATM   24  O   UNL     1      -6.977  18.113  65.233  1.00  0.00    -0.484 OA 
HETATM   25  C   UNL     1      -7.343  18.516  66.323  1.00  0.00    -0.258 C  
BRANCH  22  26
HETATM   26  C   UNL     1      -9.566  20.380  67.490  1.00  0.00    -0.420 C  
HETATM   27  H   UNL     1     -11.414  19.882  68.068  1.00  0.00     0.000 HD 
HETATM   28  O   UNL     1     -10.514  19.660  68.280  1.00  0.00    -0.424 OA 
ENDBRANCH  22  26
ENDBRANCH  17  20
ENDBRANCH  10  13
ENDBRANCH   5   7
TORSDOF 4
ENDMDL
MODEL       57
REMARK 921   NORMALIZED FREE ENERGY PREDICTED BY IDOCK:   -5.22 KCAL/MOL
REMARK 922        TOTAL FREE ENERGY PREDICTED BY IDOCK:   -7.19 KCAL/MOL
REMARK 923 INTER-LIGAND FREE ENERGY PREDICTED BY IDOCK:   -6.73 KCAL/MOL
REMARK 924 INTRA-LIGAND FREE ENERGY PREDICTED BY IDOCK:   -0.46 KCAL/MOL
REMARK 927      BINDING AFFINITY PREDICTED BY RF-SCORE:    0.00 PKD
ROOT
HETATM    1  C   UNL     1      -9.005  20.081  66.287  1.00  0.00    -0.306 C  
HETATM    2  N   UNL     1      -9.586  18.799  65.988  1.00  0.00    -0.487 NA 
HETATM    3  N   UNL     1     -10.724  18.661  65.301  1.00  0.00    -0.453 NA 
HETATM    4  N   UNL     1     -10.970  17.357  65.324  1.00  0.00    -0.462 NA 
HETATM    5  C   UNL     1      -9.951  16.769  66.042  1.00  0.00    -0.313 A  
HETATM    6  N   UNL     1      -9.044  17.673  66.469  1.00  0.00    -0.274 NA 
ENDROOT
BRANCH   5   7
HETATM    7  C   UNL     1      -9.884  15.347  66.371  1.00  0.00    -0.281 A  
HETATM    8  N   UNL     1     -10.989  14.585  66.188  1.00  0.00    -0.315 NA 
HETATM    9  C   UNL     1     -10.912  13.283  66.565  1.00  0.00    -0.286 A  
HETATM   10  C   UNL     1      -9.800  12.668  67.156  1.00  0.00    -0.212 A  
HETATM   11  C   UNL     1      -8.714  14.825  66.911  1.00  0.00    -0.264 A  
HETATM   12  C   UNL     1      -8.679  13.493  67.310  1.00  0.00    -0.228 A  
BRANCH  10  13
HETATM   13  C   UNL     1      -9.799  11.250  67.572  1.00  0.00    -0.195 A  
HETATM   14  C   UNL     1     -10.393  10.810  68.767  1.00  0.00    -0.192 A  
HETATM   15  C   UNL     1     -10.360   9.476  69.176  1.00  0.00    -0.218 A  
HETATM   16  F   UNL     1     -11.015  11.676  69.582  1.00  0.00    -0.266 F  
HETATM   17  C   UNL     1      -9.717   8.507  68.406  1.00  0.00    -0.155 A  
HETATM   18  C   UNL     1      -9.203  10.256  66.779  1.00  0.00    -0.180 A  
HETATM   19  C   UNL     1      -9.155   8.914  67.191  1.00  0.00    -0.160 A  
BRANCH  17  20
HETATM   20  N   UNL     1      -9.666   7.156  68.817  1.00  0.00    -0.144 N  
HETATM   21  C   UNL     1      -8.596   6.263  68.495  1.00  0.00    -0.114 C  
HETATM   22  C   UNL     1      -9.275   4.916  68.575  1.00  0.00    -0.120 C  
HETATM   23  O   UNL     1     -10.303   5.121  69.553  1.00  0.00    -0.251 OA 
HETATM   24  O   UNL     1     -11.619   6.880  70.105  1.00  0.00    -0.322 OA 
HETATM   25  C   UNL     1     -10.620   6.460  69.547  1.00  0.00    -0.253 C  
BRANCH  22  26
HETATM   26  C   UNL     1      -9.901   4.463  67.251  1.00  0.00    -0.162 C  
HETATM   27  H   UNL     1      -9.398   4.319  65.322  1.00  0.00     0.000 HD 
HETATM   28  O   UNL     1      -9.010   4.599  66.143  1.00  0.00    -0.116 OA 
ENDBRANCH  22  26
ENDBRANCH  17  20
ENDBRANCH  10  13
ENDBRANCH   5   7
TORSDOF 4
ENDMDL
MODEL       58
REMARK 921   NORMALIZED FREE ENERGY PREDICTED BY IDOCK:   -5.11 KCAL/MOL
REMARK 922        TOTAL FREE ENERGY PREDICTED BY IDOCK:   -7.06 KCAL/MOL
REMARK 923 INTER-LIGAND FREE ENERGY PREDICTED BY IDOCK:   -6.33 KCAL/MOL
REMARK 924 INTRA-LIGAND FREE ENERGY PREDICTED BY IDOCK:   -0.73 KCAL/MOL
REMARK 927      BINDING AFFINITY PREDICTED BY RF-SCORE:    0.00 PKD
ROOT
HETATM    1  C   UNL     1     -11.561  16.214  64.274  1.00  0.00    -0.062 C  
HETATM    2  N   UNL     1     -11.790  14.819  64.542  1.00  0.00    -0.433 NA 
HETATM    3  N   UNL     1     -12.895  14.177  64.149  1.00  0.00    -0.420 NA 
HETATM    4  N   UNL     1     -12.773  12.960  64.665  1.00  0.00    -0.709 NA 
HETATM    5  C   UNL     1     -11.583  12.936  65.359  1.00  0.00    -0.350 A  
HETATM    6  N   UNL     1     -10.927  14.113  65.285  1.00  0.00    -0.319 NA 
ENDROOT
BRANCH   5   7
HETATM    7  C   UNL     1     -11.105  11.800  66.144  1.00  0.00    -0.307 A  
HETATM    8  N   UNL     1     -10.514  10.766  65.497  1.00  0.00    -0.230 NA 
HETATM    9  C   UNL     1     -10.142   9.699  66.249  1.00  0.00    -0.252 A  
HETATM   10  C   UNL     1     -10.345   9.560  67.629  1.00  0.00    -0.299 A  
HETATM   11  C   UNL     1     -11.316  11.782  67.518  1.00  0.00    -0.377 A  
HETATM   12  C   UNL     1     -10.945  10.660  68.252  1.00  0.00    -0.314 A  
BRANCH  10  13
HETATM   13  C   UNL     1      -9.941   8.351  68.377  1.00  0.00    -0.208 A  
HETATM   14  C   UNL     1     -10.456   7.075  68.091  1.00  0.00    -0.201 A  
HETATM   15  C   UNL     1     -10.101   5.941  68.823  1.00  0.00    -0.220 A  
HETATM   16  F   UNL     1     -11.335   6.899  67.092  1.00  0.00    -0.421 F  
HETATM   17  C   UNL     1      -9.212   6.028  69.892  1.00  0.00    -0.148 A  
HETATM   18  C   UNL     1      -9.005   8.416  69.422  1.00  0.00    -0.153 A  
HETATM   19  C   UNL     1      -8.653   7.281  70.169  1.00  0.00    -0.140 A  
BRANCH  17  20
HETATM   20  N   UNL     1      -8.855   4.888  70.648  1.00  0.00    -0.115 N  
HETATM   21  C   UNL     1      -7.983   3.858  70.176  1.00  0.00    -0.047 C  
HETATM   22  C   UNL     1      -8.422   2.670  70.999  1.00  0.00    -0.058 C  
HETATM   23  O   UNL     1      -8.891   3.267  72.216  1.00  0.00    -0.085 OA 
HETATM   24  O   UNL     1      -9.950   5.207  72.708  1.00  0.00    -0.156 OA 
HETATM   25  C   UNL     1      -9.293   4.550  71.921  1.00  0.00    -0.140 C  
BRANCH  22  26
HETATM   26  C   UNL     1      -9.549   1.857  70.353  1.00  0.00    -0.038 C  
HETATM   27  H   UNL     1     -10.298   1.508  68.533  1.00  0.00     0.000 HD 
HETATM   28  O   UNL     1      -9.599   2.013  68.934  1.00  0.00    -0.134 OA 
ENDBRANCH  22  26
ENDBRANCH  17  20
ENDBRANCH  10  13
ENDBRANCH   5   7
TORSDOF 4
ENDMDL
MODEL       59
REMARK 921   NORMALIZED FREE ENERGY PREDICTED BY IDOCK:   -5.08 KCAL/MOL
REMARK 922        TOTAL FREE ENERGY PREDICTED BY IDOCK:   -7.02 KCAL/MOL
REMARK 923 INTER-LIGAND FREE ENERGY PREDICTED BY IDOCK:   -6.49 KCAL/MOL
REMARK 924 INTRA-LIGAND FREE ENERGY PREDICTED BY IDOCK:   -0.53 KCAL/MOL
REMARK 927      BINDING AFFINITY PREDICTED BY RF-SCORE:    0.00 PKD
ROOT
HETATM    1  C   UNL     1      -7.801  19.313  66.213  1.00  0.00    -0.299 C  
HETATM    2  N   UNL     1      -8.618  18.131  66.144  1.00  0.00    -0.490 NA 
HETATM    3  N   UNL     1      -9.885  18.150  65.718  1.00  0.00    -0.501 NA 
HETATM    4  N   UNL     1     -10.315  16.907  65.897  1.00  0.00    -0.458 NA 
HETATM    5  C   UNL     1      -9.266  16.194  66.437  1.00  0.00    -0.300 A  
HETATM    6  N   UNL     1      -8.162  16.955  66.594  1.00  0.00    -0.229 NA 
ENDROOT
BRANCH   5   7
HETATM    7  C   UNL     1      -9.344  14.798  66.859  1.00  0.00    -0.240 A  
HETATM    8  N   UNL     1     -10.546  14.172  66.815  1.00  0.00    -0.276 NA 
HETATM    9  C   UNL     1     -10.595  12.897  67.276  1.00  0.00    -0.234 A  
HETATM   10  C   UNL     1      -9.520  12.182  67.823  1.00  0.00    -0.192 A  
HETATM   11  C   UNL     1      -8.205  14.165  67.343  1.00  0.00    -0.207 A  
HETATM   12  C   UNL     1      -8.299  12.866  67.832  1.00  0.00    -0.170 A  
BRANCH  10  13
HETATM   13  C   UNL     1      -9.658  10.803  68.336  1.00  0.00    -0.177 A  
HETATM   14  C   UNL     1     -10.373   9.807  67.652  1.00  0.00    -0.230 A  
HETATM   15  C   UNL     1     -10.532   8.515  68.157  1.00  0.00    -0.236 A  
HETATM   16  F   UNL     1     -10.952  10.069  66.469  1.00  0.00    -0.197 F  
HETATM   17  C   UNL     1      -9.986   8.155  69.387  1.00  0.00    -0.188 A  
HETATM   18  C   UNL     1      -9.066  10.412  69.549  1.00  0.00    -0.129 A  
HETATM   19  C   UNL     1      -9.233   9.119  70.068  1.00  0.00    -0.209 A  
BRANCH  17  20
HETATM   20  N   UNL     1     -10.151   6.854  69.913  1.00  0.00    -0.185 N  
HETATM   21  C   UNL     1     -11.387   6.352  70.429  1.00  0.00    -0.389 C  
HETATM   22  C   UNL     1     -10.919   5.281  71.386  1.00  0.00    -0.006 C  
HETATM   23  O   UNL     1      -9.687   4.834  70.804  1.00  0.00    -0.168 OA 
HETATM   24  O   UNL     1      -8.034   5.859  69.643  1.00  0.00    -0.098 OA 
HETATM   25  C   UNL     1      -9.180   5.872  70.056  1.00  0.00    -0.148 C  
BRANCH  22  26
HETATM   26  C   UNL     1     -10.664   5.796  72.807  1.00  0.00    -0.241 C  
HETATM   27  H   UNL     1     -10.763   5.127  74.688  1.00  0.00     0.000 HD 
HETATM   28  O   UNL     1     -10.921   4.808  73.807  1.00  0.00    -0.292 OA 
ENDBRANCH  22  26
ENDBRANCH  17  20
ENDBRANCH  10  13
ENDBRANCH   5   7
TORSDOF 4
ENDMDL
MODEL       60
REMARK 921   NORMALIZED FREE ENERGY PREDICTED BY IDOCK:   -5.02 KCAL/MOL
REMARK 922        TOTAL FREE ENERGY PREDICTED BY IDOCK:   -6.94 KCAL/MOL
REMARK 923 INTER-LIGAND FREE ENERGY PREDICTED BY IDOCK:   -6.14 KCAL/MOL
REMARK 924 INTRA-LIGAND FREE ENERGY PREDICTED BY IDOCK:   -0.80 KCAL/MOL
REMARK 927      BINDING AFFINITY PREDICTED BY RF-SCORE:    0.00 PKD
ROOT
HETATM    1  C   UNL     1     -12.917  15.608  71.619  1.00  0.00    -0.476 C  
HETATM    2  N   UNL     1     -13.043  14.175  71.589  1.00  0.00    -0.333 NA 
HETATM    3  N   UNL     1     -13.919  13.509  72.349  1.00  0.00    -0.703 NA 
HETATM    4  N   UNL     1     -13.660  12.229  72.109  1.00  0.00    -0.396 NA 
HETATM    5  C   UNL     1     -12.620  12.193  71.206  1.00  0.00    -0.238 A  
HETATM    6  N   UNL     1     -12.214  13.430  70.848  1.00  0.00    -0.339 NA 
ENDROOT
BRANCH   5   7
HETATM    7  C   UNL     1     -11.975  10.969  70.735  1.00  0.00    -0.333 A  
HETATM    8  N   UNL     1     -11.330  10.993  69.543  1.00  0.00    -0.262 NA 
HETATM    9  C   UNL     1     -10.799   9.823  69.105  1.00  0.00    -0.207 A  
HETATM   10  C   UNL     1     -10.888   8.588  69.761  1.00  0.00    -0.177 A  
HETATM   11  C   UNL     1     -12.084   9.805  71.487  1.00  0.00    -0.493 A  
HETATM   12  C   UNL     1     -11.550   8.619  70.994  1.00  0.00    -0.325 A  
BRANCH  10  13
HETATM   13  C   UNL     1     -10.311   7.345  69.206  1.00  0.00    -0.204 A  
HETATM   14  C   UNL     1      -9.100   6.802  69.662  1.00  0.00    -0.143 A  
HETATM   15  C   UNL     1      -8.539   5.648  69.111  1.00  0.00    -0.105 A  
HETATM   16  F   UNL     1      -8.416   7.390  70.657  1.00  0.00    -0.127 F  
HETATM   17  C   UNL     1      -9.164   4.980  68.060  1.00  0.00    -0.119 A  
HETATM   18  C   UNL     1     -10.959   6.632  68.183  1.00  0.00    -0.323 A  
HETATM   19  C   UNL     1     -10.394   5.479  67.616  1.00  0.00    -0.256 A  
BRANCH  17  20
HETATM   20  N   UNL     1      -8.599   3.819  67.486  1.00  0.00    -0.099 N  
HETATM   21  C   UNL     1      -8.947   2.487  67.872  1.00  0.00    -0.155 C  
HETATM   22  C   UNL     1      -7.707   1.713  67.489  1.00  0.00    -0.059 C  
HETATM   23  O   UNL     1      -7.186   2.454  66.376  1.00  0.00    -0.058 OA 
HETATM   24  O   UNL     1      -7.137   4.654  65.839  1.00  0.00    -0.071 OA 
HETATM   25  C   UNL     1      -7.617   3.754  66.507  1.00  0.00    -0.084 C  
BRANCH  22  26
HETATM   26  C   UNL     1      -6.657   1.642  68.602  1.00  0.00    -0.029 C  
HETATM   27  H   UNL     1      -6.586   1.556  70.598  1.00  0.00     0.000 HD 
HETATM   28  O   UNL     1      -7.237   1.600  69.907  1.00  0.00    -0.033 OA 
ENDBRANCH  22  26
ENDBRANCH  17  20
ENDBRANCH  10  13
ENDBRANCH   5   7
TORSDOF 4
ENDMDL
MODEL       61
REMARK 921   NORMALIZED FREE ENERGY PREDICTED BY IDOCK:   -5.01 KCAL/MOL
REMARK 922        TOTAL FREE ENERGY PREDICTED BY IDOCK:   -6.94 KCAL/MOL
REMARK 923 INTER-LIGAND FREE ENERGY PREDICTED BY IDOCK:   -6.26 KCAL/MOL
REMARK 924 INTRA-LIGAND FREE ENERGY PREDICTED BY IDOCK:   -0.67 KCAL/MOL
REMARK 927      BINDING AFFINITY PREDICTED BY RF-SCORE:    0.00 PKD
ROOT
HETATM    1  C   UNL     1     -13.468  15.629  72.037  1.00  0.00    -0.447 C  
HETATM    2  N   UNL     1     -13.359  14.209  71.835  1.00  0.00    -0.363 NA 
HETATM    3  N   UNL     1     -13.896  13.314  72.671  1.00  0.00    -0.716 NA 
HETATM    4  N   UNL     1     -13.497  12.139  72.201  1.00  0.00    -0.429 NA 
HETATM    5  C   UNL     1     -12.721  12.394  71.091  1.00  0.00    -0.240 A  
HETATM    6  N   UNL     1     -12.628  13.714  70.828  1.00  0.00    -0.340 NA 
ENDROOT
BRANCH   5   7
HETATM    7  C   UNL     1     -12.020  11.370  70.318  1.00  0.00    -0.373 A  
HETATM    8  N   UNL     1     -11.769  11.605  69.007  1.00  0.00    -0.298 NA 
HETATM    9  C   UNL     1     -11.175  10.607  68.304  1.00  0.00    -0.301 A  
HETATM   10  C   UNL     1     -10.829   9.346  68.808  1.00  0.00    -0.147 A  
HETATM   11  C   UNL     1     -11.679  10.168  70.927  1.00  0.00    -0.468 A  
HETATM   12  C   UNL     1     -11.095   9.159  70.169  1.00  0.00    -0.248 A  
BRANCH  10  13
HETATM   13  C   UNL     1     -10.213   8.294  67.971  1.00  0.00    -0.265 A  
HETATM   14  C   UNL     1      -8.843   8.279  67.660  1.00  0.00    -0.136 A  
HETATM   15  C   UNL     1      -8.270   7.305  66.840  1.00  0.00    -0.117 A  
HETATM   16  F   UNL     1      -8.021   9.226  68.138  1.00  0.00    -0.096 F  
HETATM   17  C   UNL     1      -9.048   6.294  66.278  1.00  0.00    -0.153 A  
HETATM   18  C   UNL     1     -10.975   7.239  67.444  1.00  0.00    -0.257 A  
HETATM   19  C   UNL     1     -10.408   6.264  66.609  1.00  0.00    -0.235 A  
BRANCH  17  20
HETATM   20  N   UNL     1      -8.480   5.311  65.437  1.00  0.00    -0.139 N  
HETATM   21  C   UNL     1      -8.293   3.945  65.817  1.00  0.00    -0.109 C  
HETATM   22  C   UNL     1      -7.155   3.520  64.919  1.00  0.00    -0.065 C  
HETATM   23  O   UNL     1      -7.327   4.343  63.757  1.00  0.00    -0.053 OA 
HETATM   24  O   UNL     1      -8.058   6.460  63.425  1.00  0.00    -0.105 OA 
HETATM   25  C   UNL     1      -7.987   5.484  64.151  1.00  0.00    -0.120 C  
BRANCH  22  26
HETATM   26  C   UNL     1      -5.769   3.763  65.527  1.00  0.00    -0.018 C  
HETATM   27  H   UNL     1      -4.962   4.659  67.120  1.00  0.00     0.000 HD 
HETATM   28  O   UNL     1      -5.821   4.509  66.744  1.00  0.00    -0.024 OA 
ENDBRANCH  22  26
ENDBRANCH  17  20
ENDBRANCH  10  13
ENDBRANCH   5   7
TORSDOF 4
ENDMDL
MODEL       62
REMARK 921   NORMALIZED FREE ENERGY PREDICTED BY IDOCK:   -4.99 KCAL/MOL
REMARK 922        TOTAL FREE ENERGY PREDICTED BY IDOCK:   -6.91 KCAL/MOL
REMARK 923 INTER-LIGAND FREE ENERGY PREDICTED BY IDOCK:   -6.32 KCAL/MOL
REMARK 924 INTRA-LIGAND FREE ENERGY PREDICTED BY IDOCK:   -0.59 KCAL/MOL
REMARK 927      BINDING AFFINITY PREDICTED BY RF-SCORE:    0.00 PKD
ROOT
HETATM    1  C   UNL     1     -13.002  15.831  71.323  1.00  0.00    -0.393 C  
HETATM    2  N   UNL     1     -13.079  14.405  71.500  1.00  0.00    -0.323 NA 
HETATM    3  N   UNL     1     -13.743  13.834  72.510  1.00  0.00    -0.668 NA 
HETATM    4  N   UNL     1     -13.495  12.537  72.379  1.00  0.00    -0.438 NA 
HETATM    5  C   UNL     1     -12.675  12.394  71.281  1.00  0.00    -0.248 A  
HETATM    6  N   UNL     1     -12.404  13.578  70.692  1.00  0.00    -0.360 NA 
ENDROOT
BRANCH   5   7
HETATM    7  C   UNL     1     -12.103  11.126  70.834  1.00  0.00    -0.322 A  
HETATM    8  N   UNL     1     -12.070  10.086  71.703  1.00  0.00    -0.378 NA 
HETATM    9  C   UNL     1     -11.473   8.944  71.278  1.00  0.00    -0.299 A  
HETATM   10  C   UNL     1     -10.859   8.757  70.032  1.00  0.00    -0.231 A  
HETATM   11  C   UNL     1     -11.561  11.032  69.557  1.00  0.00    -0.384 A  
HETATM   12  C   UNL     1     -10.933   9.854  69.165  1.00  0.00    -0.233 A  
BRANCH  10  13
HETATM   13  C   UNL     1     -10.198   7.492  69.650  1.00  0.00    -0.205 A  
HETATM   14  C   UNL     1     -10.792   6.235  69.849  1.00  0.00    -0.335 A  
HETATM   15  C   UNL     1     -10.150   5.040  69.521  1.00  0.00    -0.301 A  
HETATM   16  F   UNL     1     -12.019   6.135  70.384  1.00  0.00    -0.394 F  
HETATM   17  C   UNL     1      -8.866   5.042  68.980  1.00  0.00    -0.092 A  
HETATM   18  C   UNL     1      -8.926   7.483  69.054  1.00  0.00    -0.131 A  
HETATM   19  C   UNL     1      -8.270   6.284  68.733  1.00  0.00    -0.120 A  
BRANCH  17  20
HETATM   20  N   UNL     1      -8.202   3.838  68.656  1.00  0.00    -0.073 N  
HETATM   21  C   UNL     1      -7.168   3.255  69.455  1.00  0.00    -0.045 C  
HETATM   22  C   UNL     1      -6.405   2.440  68.438  1.00  0.00    -0.029 C  
HETATM   23  O   UNL     1      -7.410   2.084  67.478  1.00  0.00    -0.053 OA 
HETATM   24  O   UNL     1      -9.250   3.128  66.671  1.00  0.00    -0.159 OA 
HETATM   25  C   UNL     1      -8.394   3.044  67.533  1.00  0.00    -0.083 C  
BRANCH  22  26
HETATM   26  C   UNL     1      -5.279   3.216  67.746  1.00  0.00    -0.012 C  
HETATM   27  H   UNL     1      -4.464   3.382  65.928  1.00  0.00     0.000 HD 
HETATM   28  O   UNL     1      -5.162   2.900  66.357  1.00  0.00    -0.010 OA 
ENDBRANCH  22  26
ENDBRANCH  17  20
ENDBRANCH  10  13
ENDBRANCH   5   7
TORSDOF 4
ENDMDL
MODEL       63
REMARK 921   NORMALIZED FREE ENERGY PREDICTED BY IDOCK:   -4.90 KCAL/MOL
REMARK 922        TOTAL FREE ENERGY PREDICTED BY IDOCK:   -6.80 KCAL/MOL
REMARK 923 INTER-LIGAND FREE ENERGY PREDICTED BY IDOCK:   -6.23 KCAL/MOL
REMARK 924 INTRA-LIGAND FREE ENERGY PREDICTED BY IDOCK:   -0.57 KCAL/MOL
REMARK 927      BINDING AFFINITY PREDICTED BY RF-SCORE:    0.00 PKD
ROOT
HETATM    1  C   UNL     1      -9.247   2.621  69.337  1.00  0.00    -0.128 C  
HETATM    2  N   UNL     1      -9.635   3.794  68.600  1.00  0.00    -0.142 NA 
HETATM    3  N   UNL     1      -9.875   3.777  67.284  1.00  0.00    -0.089 NA 
HETATM    4  N   UNL     1     -10.101   5.047  66.972  1.00  0.00    -0.205 NA 
HETATM    5  C   UNL     1      -9.977   5.775  68.136  1.00  0.00    -0.148 A  
HETATM    6  N   UNL     1      -9.690   4.991  69.197  1.00  0.00    -0.158 NA 
ENDROOT
BRANCH   5   7
HETATM    7  C   UNL     1     -10.074   7.231  68.217  1.00  0.00    -0.170 A  
HETATM    8  N   UNL     1     -10.498   7.915  67.126  1.00  0.00    -0.326 NA 
HETATM    9  C   UNL     1     -10.513   9.269  67.214  1.00  0.00    -0.264 A  
HETATM   10  C   UNL     1     -10.098  10.022  68.321  1.00  0.00    -0.182 A  
HETATM   11  C   UNL     1      -9.679   7.879  69.382  1.00  0.00    -0.170 A  
HETATM   12  C   UNL     1      -9.683   9.269  69.426  1.00  0.00    -0.175 A  
BRANCH  10  13
HETATM   13  C   UNL     1     -10.111  11.500  68.332  1.00  0.00    -0.207 A  
HETATM   14  C   UNL     1      -9.071  12.271  67.790  1.00  0.00    -0.191 A  
HETATM   15  C   UNL     1      -9.069  13.667  67.834  1.00  0.00    -0.198 A  
HETATM   16  F   UNL     1      -8.013  11.684  67.208  1.00  0.00    -0.127 F  
HETATM   17  C   UNL     1     -10.113  14.366  68.437  1.00  0.00    -0.244 A  
HETATM   18  C   UNL     1     -11.184  12.217  68.888  1.00  0.00    -0.320 A  
HETATM   19  C   UNL     1     -11.182  13.619  68.947  1.00  0.00    -0.309 A  
BRANCH  17  20
HETATM   20  N   UNL     1     -10.115  15.777  68.498  1.00  0.00    -0.212 N  
HETATM   21  C   UNL     1     -11.269  16.586  68.255  1.00  0.00    -0.265 C  
HETATM   22  C   UNL     1     -10.652  17.894  67.820  1.00  0.00    -0.389 C  
HETATM   23  O   UNL     1      -9.398  17.917  68.517  1.00  0.00    -0.285 OA 
HETATM   24  O   UNL     1      -7.911  16.321  69.125  1.00  0.00    -0.235 OA 
HETATM   25  C   UNL     1      -9.036  16.611  68.760  1.00  0.00    -0.256 C  
BRANCH  22  26
HETATM   26  C   UNL     1     -10.407  17.987  66.309  1.00  0.00    -0.382 C  
HETATM   27  H   UNL     1      -9.518  19.210  65.003  1.00  0.00     0.000 HD 
HETATM   28  O   UNL     1      -9.670  19.153  65.939  1.00  0.00    -0.453 OA 
ENDBRANCH  22  26
ENDBRANCH  17  20
ENDBRANCH  10  13
ENDBRANCH   5   7
TORSDOF 4
ENDMDL
MODEL       64
REMARK 921   NORMALIZED FREE ENERGY PREDICTED BY IDOCK:   -4.83 KCAL/MOL
REMARK 922        TOTAL FREE ENERGY PREDICTED BY IDOCK:   -6.70 KCAL/MOL
REMARK 923 INTER-LIGAND FREE ENERGY PREDICTED BY IDOCK:   -5.94 KCAL/MOL
REMARK 924 INTRA-LIGAND FREE ENERGY PREDICTED BY IDOCK:   -0.76 KCAL/MOL
REMARK 927      BINDING AFFINITY PREDICTED BY RF-SCORE:    0.00 PKD
ROOT
HETATM    1  C   UNL     1      -8.977   2.352  65.649  1.00  0.00    -0.121 C  
HETATM    2  N   UNL     1      -8.938   3.461  66.566  1.00  0.00    -0.141 NA 
HETATM    3  N   UNL     1      -8.973   3.306  67.893  1.00  0.00    -0.132 NA 
HETATM    4  N   UNL     1      -9.019   4.543  68.371  1.00  0.00    -0.107 NA 
HETATM    5  C   UNL     1      -9.015   5.393  67.285  1.00  0.00    -0.111 A  
HETATM    6  N   UNL     1      -8.951   4.722  66.115  1.00  0.00    -0.119 NA 
ENDROOT
BRANCH   5   7
HETATM    7  C   UNL     1      -9.135   6.846  67.371  1.00  0.00    -0.122 A  
HETATM    8  N   UNL     1      -8.153   7.544  67.993  1.00  0.00    -0.122 NA 
HETATM    9  C   UNL     1      -8.328   8.884  68.112  1.00  0.00    -0.125 A  
HETATM   10  C   UNL     1      -9.449   9.605  67.678  1.00  0.00    -0.155 A  
HETATM   11  C   UNL     1     -10.271   7.470  66.866  1.00  0.00    -0.359 A  
HETATM   12  C   UNL     1     -10.428   8.842  67.030  1.00  0.00    -0.326 A  
BRANCH  10  13
HETATM   13  C   UNL     1      -9.585  11.064  67.873  1.00  0.00    -0.180 A  
HETATM   14  C   UNL     1     -10.485  11.625  68.793  1.00  0.00    -0.204 A  
HETATM   15  C   UNL     1     -10.638  13.004  68.950  1.00  0.00    -0.157 A  
HETATM   16  F   UNL     1     -11.257  10.841  69.563  1.00  0.00    -0.233 F  
HETATM   17  C   UNL     1      -9.898  13.898  68.179  1.00  0.00    -0.240 A  
HETATM   18  C   UNL     1      -8.805  11.975  67.142  1.00  0.00    -0.188 A  
HETATM   19  C   UNL     1      -8.963  13.362  67.285  1.00  0.00    -0.221 A  
BRANCH  17  20
HETATM   20  N   UNL     1     -10.053  15.295  68.320  1.00  0.00    -0.223 N  
HETATM   21  C   UNL     1     -11.209  16.018  67.888  1.00  0.00    -0.276 C  
HETATM   22  C   UNL     1     -10.650  17.404  67.667  1.00  0.00    -0.350 C  
HETATM   23  O   UNL     1      -9.573  17.480  68.611  1.00  0.00    -0.288 OA 
HETATM   24  O   UNL     1      -8.088  15.976  69.425  1.00  0.00    -0.233 OA 
HETATM   25  C   UNL     1      -9.140  16.196  68.850  1.00  0.00    -0.246 C  
BRANCH  22  26
HETATM   26  C   UNL     1     -10.115  17.633  66.249  1.00  0.00    -0.341 C  
HETATM   27  H   UNL     1     -10.328  16.860  64.419  1.00  0.00     0.000 HD 
HETATM   28  O   UNL     1     -10.660  16.718  65.298  1.00  0.00    -0.621 OA 
ENDBRANCH  22  26
ENDBRANCH  17  20
ENDBRANCH  10  13
ENDBRANCH   5   7
TORSDOF 4
ENDMDL
MODEL       65
REMARK 921   NORMALIZED FREE ENERGY PREDICTED BY IDOCK:   -4.79 KCAL/MOL
REMARK 922        TOTAL FREE ENERGY PREDICTED BY IDOCK:   -6.66 KCAL/MOL
REMARK 923 INTER-LIGAND FREE ENERGY PREDICTED BY IDOCK:   -5.94 KCAL/MOL
REMARK 924 INTRA-LIGAND FREE ENERGY PREDICTED BY IDOCK:   -0.71 KCAL/MOL
REMARK 927      BINDING AFFINITY PREDICTED BY RF-SCORE:    0.00 PKD
ROOT
HETATM    1  C   UNL     1     -11.900  15.870  69.991  1.00  0.00    -0.311 C  
HETATM    2  N   UNL     1     -11.990  14.434  70.035  1.00  0.00    -0.313 NA 
HETATM    3  N   UNL     1     -12.506  13.772  71.075  1.00  0.00    -0.367 NA 
HETATM    4  N   UNL     1     -12.319  12.491  70.779  1.00  0.00    -0.357 NA 
HETATM    5  C   UNL     1     -11.684  12.451  69.557  1.00  0.00    -0.322 A  
HETATM    6  N   UNL     1     -11.472  13.685  69.053  1.00  0.00    -0.280 NA 
ENDROOT
BRANCH   5   7
HETATM    7  C   UNL     1     -11.225  11.228  68.903  1.00  0.00    -0.253 A  
HETATM    8  N   UNL     1     -11.538  11.032  67.598  1.00  0.00    -0.562 NA 
HETATM    9  C   UNL     1     -11.153   9.857  67.040  1.00  0.00     0.112 A  
HETATM   10  C   UNL     1     -10.489   8.815  67.703  1.00  0.00    -0.310 A  
HETATM   11  C   UNL     1     -10.532  10.276  69.641  1.00  0.00    -0.286 A  
HETATM   12  C   UNL     1     -10.176   9.071  69.043  1.00  0.00    -0.216 A  
BRANCH  10  13
HETATM   13  C   UNL     1     -10.130   7.545  67.037  1.00  0.00    -0.332 A  
HETATM   14  C   UNL     1      -8.977   7.404  66.247  1.00  0.00    -0.162 A  
HETATM   15  C   UNL     1      -8.659   6.215  65.589  1.00  0.00    -0.148 A  
HETATM   16  F   UNL     1      -8.128   8.431  66.083  1.00  0.00    -0.094 F  
HETATM   17  C   UNL     1      -9.490   5.100  65.681  1.00  0.00    -0.115 A  
HETATM   18  C   UNL     1     -10.931   6.399  67.167  1.00  0.00    -0.476 A  
HETATM   19  C   UNL     1     -10.623   5.204  66.497  1.00  0.00    -0.320 A  
BRANCH  17  20
HETATM   20  N   UNL     1      -9.184   3.896  65.009  1.00  0.00    -0.140 N  
HETATM   21  C   UNL     1      -8.082   3.050  65.348  1.00  0.00    -0.086 C  
HETATM   22  C   UNL     1      -7.821   2.334  64.043  1.00  0.00    -0.072 C  
HETATM   23  O   UNL     1      -9.115   2.290  63.426  1.00  0.00    -0.091 OA 
HETATM   24  O   UNL     1     -10.892   3.694  63.400  1.00  0.00    -0.237 OA 
HETATM   25  C   UNL     1      -9.846   3.347  63.919  1.00  0.00    -0.166 C  
BRANCH  22  26
HETATM   26  C   UNL     1      -6.834   3.065  63.127  1.00  0.00    -0.031 C  
HETATM   27  H   UNL     1      -4.861   3.183  62.832  1.00  0.00     0.000 HD 
HETATM   28  O   UNL     1      -5.473   2.729  63.400  1.00  0.00    -0.008 OA 
ENDBRANCH  22  26
ENDBRANCH  17  20
ENDBRANCH  10  13
ENDBRANCH   5   7
TORSDOF 4
ENDMDL
MODEL       66
REMARK 921   NORMALIZED FREE ENERGY PREDICTED BY IDOCK:   -4.76 KCAL/MOL
REMARK 922        TOTAL FREE ENERGY PREDICTED BY IDOCK:   -6.62 KCAL/MOL
REMARK 923 INTER-LIGAND FREE ENERGY PREDICTED BY IDOCK:   -5.85 KCAL/MOL
REMARK 924 INTRA-LIGAND FREE ENERGY PREDICTED BY IDOCK:   -0.77 KCAL/MOL
REMARK 927      BINDING AFFINITY PREDICTED BY RF-SCORE:    0.00 PKD
ROOT
HETATM    1  C   UNL     1      -6.478  20.749  64.971  1.00  0.00    -0.224 C  
HETATM    2  N   UNL     1      -7.306  19.849  65.728  1.00  0.00    -0.319 NA 
HETATM    3  N   UNL     1      -8.101  20.259  66.722  1.00  0.00    -0.294 NA 
HETATM    4  N   UNL     1      -8.610  19.140  67.223  1.00  0.00    -0.279 NA 
HETATM    5  C   UNL     1      -8.080  18.097  66.494  1.00  0.00    -0.269 A  
HETATM    6  N   UNL     1      -7.250  18.527  65.521  1.00  0.00    -0.532 NA 
ENDROOT
BRANCH   5   7
HETATM    7  C   UNL     1      -8.325  16.684  66.773  1.00  0.00    -0.235 A  
HETATM    8  N   UNL     1      -9.016  15.953  65.865  1.00  0.00    -0.293 NA 
HETATM    9  C   UNL     1      -9.282  14.661  66.185  1.00  0.00    -0.175 A  
HETATM   10  C   UNL     1      -8.932  14.027  67.385  1.00  0.00    -0.208 A  
HETATM   11  C   UNL     1      -7.893  16.140  67.977  1.00  0.00    -0.150 A  
HETATM   12  C   UNL     1      -8.207  14.819  68.283  1.00  0.00    -0.142 A  
BRANCH  10  13
HETATM   13  C   UNL     1      -9.286  12.622  67.679  1.00  0.00    -0.191 A  
HETATM   14  C   UNL     1     -10.547  12.244  68.166  1.00  0.00    -0.214 A  
HETATM   15  C   UNL     1     -10.867  10.921  68.477  1.00  0.00    -0.262 A  
HETATM   16  F   UNL     1     -11.508  13.160  68.366  1.00  0.00    -0.270 F  
HETATM   17  C   UNL     1      -9.928   9.903  68.323  1.00  0.00    -0.151 A  
HETATM   18  C   UNL     1      -8.367  11.579  67.476  1.00  0.00    -0.143 A  
HETATM   19  C   UNL     1      -8.677  10.249  67.799  1.00  0.00    -0.121 A  
BRANCH  17  20
HETATM   20  N   UNL     1     -10.237   8.562  68.647  1.00  0.00    -0.195 N  
HETATM   21  C   UNL     1     -10.307   8.059  69.984  1.00  0.00    -0.218 C  
HETATM   22  C   UNL     1     -10.025   6.589  69.783  1.00  0.00    -0.166 C  
HETATM   23  O   UNL     1     -10.529   6.333  68.465  1.00  0.00    -0.180 OA 
HETATM   24  O   UNL     1     -10.629   7.550  66.557  1.00  0.00    -0.170 OA 
HETATM   25  C   UNL     1     -10.485   7.518  67.767  1.00  0.00    -0.223 C  
BRANCH  22  26
HETATM   26  C   UNL     1      -8.535   6.234  69.847  1.00  0.00    -0.130 C  
HETATM   27  H   UNL     1      -6.813   7.076  70.410  1.00  0.00     0.000 HD 
HETATM   28  O   UNL     1      -7.736   7.296  70.370  1.00  0.00    -0.090 OA 
ENDBRANCH  22  26
ENDBRANCH  17  20
ENDBRANCH  10  13
ENDBRANCH   5   7
TORSDOF 4
ENDMDL
MODEL       67
REMARK 921   NORMALIZED FREE ENERGY PREDICTED BY IDOCK:   -4.74 KCAL/MOL
REMARK 922        TOTAL FREE ENERGY PREDICTED BY IDOCK:   -6.59 KCAL/MOL
REMARK 923 INTER-LIGAND FREE ENERGY PREDICTED BY IDOCK:   -5.95 KCAL/MOL
REMARK 924 INTRA-LIGAND FREE ENERGY PREDICTED BY IDOCK:   -0.64 KCAL/MOL
REMARK 927      BINDING AFFINITY PREDICTED BY RF-SCORE:    0.00 PKD
ROOT
HETATM    1  C   UNL     1     -13.883  15.684  72.988  1.00  0.00    -0.394 C  
HETATM    2  N   UNL     1     -13.240  15.113  71.834  1.00  0.00    -0.353 NA 
HETATM    3  N   UNL     1     -13.220  15.718  70.642  1.00  0.00    -0.403 NA 
HETATM    4  N   UNL     1     -12.631  14.843  69.836  1.00  0.00    -0.221 NA 
HETATM    5  C   UNL     1     -12.329  13.735  70.599  1.00  0.00    -0.375 A  
HETATM    6  N   UNL     1     -12.699  13.889  71.888  1.00  0.00    -0.301 NA 
ENDROOT
BRANCH   5   7
HETATM    7  C   UNL     1     -11.740  12.505  70.075  1.00  0.00    -0.221 A  
HETATM    8  N   UNL     1     -10.824  12.595  69.080  1.00  0.00    -0.192 NA 
HETATM    9  C   UNL     1     -10.347  11.431  68.572  1.00  0.00    -0.205 A  
HETATM   10  C   UNL     1     -10.741  10.144  68.965  1.00  0.00    -0.249 A  
HETATM   11  C   UNL     1     -12.169  11.278  70.568  1.00  0.00    -0.474 A  
HETATM   12  C   UNL     1     -11.676  10.104  70.005  1.00  0.00    -0.294 A  
BRANCH  10  13
HETATM   13  C   UNL     1     -10.200   8.918  68.341  1.00  0.00    -0.231 A  
HETATM   14  C   UNL     1     -10.123   8.746  66.950  1.00  0.00    -0.278 A  
HETATM   15  C   UNL     1      -9.645   7.573  66.363  1.00  0.00    -0.194 A  
HETATM   16  F   UNL     1     -10.526   9.718  66.115  1.00  0.00    -0.307 F  
HETATM   17  C   UNL     1      -9.225   6.500  67.147  1.00  0.00    -0.128 A  
HETATM   18  C   UNL     1      -9.722   7.852  69.120  1.00  0.00    -0.162 A  
HETATM   19  C   UNL     1      -9.253   6.664  68.537  1.00  0.00    -0.127 A  
BRANCH  17  20
HETATM   20  N   UNL     1      -8.752   5.303  66.564  1.00  0.00    -0.115 N  
HETATM   21  C   UNL     1      -9.598   4.226  66.151  1.00  0.00    -0.194 C  
HETATM   22  C   UNL     1      -8.660   3.044  66.221  1.00  0.00    -0.121 C  
HETATM   23  O   UNL     1      -7.377   3.624  65.949  1.00  0.00    -0.073 OA 
HETATM   24  O   UNL     1      -6.422   5.621  66.428  1.00  0.00    -0.041 OA 
HETATM   25  C   UNL     1      -7.432   4.947  66.325  1.00  0.00    -0.086 C  
BRANCH  22  26
HETATM   26  C   UNL     1      -8.640   2.355  67.590  1.00  0.00    -0.101 C  
HETATM   27  H   UNL     1      -9.729   2.306  69.264  1.00  0.00     0.000 HD 
HETATM   28  O   UNL     1      -9.741   2.734  68.416  1.00  0.00    -0.114 OA 
ENDBRANCH  22  26
ENDBRANCH  17  20
ENDBRANCH  10  13
ENDBRANCH   5   7
TORSDOF 4
ENDMDL
MODEL       68
REMARK 921   NORMALIZED FREE ENERGY PREDICTED BY IDOCK:   -4.73 KCAL/MOL
REMARK 922        TOTAL FREE ENERGY PREDICTED BY IDOCK:   -6.59 KCAL/MOL
REMARK 923 INTER-LIGAND FREE ENERGY PREDICTED BY IDOCK:   -5.89 KCAL/MOL
REMARK 924 INTRA-LIGAND FREE ENERGY PREDICTED BY IDOCK:   -0.70 KCAL/MOL
REMARK 927      BINDING AFFINITY PREDICTED BY RF-SCORE:    0.00 PKD
ROOT
HETATM    1  C   UNL     1     -10.721  18.756  65.623  1.00  0.00    -0.111 C  
HETATM    2  N   UNL     1     -10.750  17.338  65.380  1.00  0.00    -0.573 NA 
HETATM    3  N   UNL     1     -11.400  16.791  64.348  1.00  0.00    -1.077 NA 
HETATM    4  N   UNL     1     -11.272  15.483  64.529  1.00  0.00    -0.367 NA 
HETATM    5  C   UNL     1     -10.542  15.308  65.685  1.00  0.00    -0.362 A  
HETATM    6  N   UNL     1     -10.185  16.484  66.244  1.00  0.00    -0.319 NA 
ENDROOT
BRANCH   5   7
HETATM    7  C   UNL     1     -10.242  14.010  66.286  1.00  0.00    -0.296 A  
HETATM    8  N   UNL     1      -9.495  13.975  67.416  1.00  0.00    -0.218 NA 
HETATM    9  C   UNL     1      -9.180  12.751  67.911  1.00  0.00    -0.205 A  
HETATM   10  C   UNL     1      -9.532  11.522  67.337  1.00  0.00    -0.171 A  
HETATM   11  C   UNL     1     -10.679  12.849  65.659  1.00  0.00    -0.295 A  
HETATM   12  C   UNL     1     -10.315  11.611  66.181  1.00  0.00    -0.280 A  
BRANCH  10  13
HETATM   13  C   UNL     1      -9.123  10.224  67.916  1.00  0.00    -0.133 A  
HETATM   14  C   UNL     1      -7.873   9.640  67.658  1.00  0.00    -0.095 A  
HETATM   15  C   UNL     1      -7.503   8.397  68.177  1.00  0.00    -0.097 A  
HETATM   16  F   UNL     1      -6.973  10.260  66.878  1.00  0.00    -0.082 F  
HETATM   17  C   UNL     1      -8.378   7.667  68.979  1.00  0.00    -0.128 A  
HETATM   18  C   UNL     1      -9.975   9.505  68.770  1.00  0.00    -0.185 A  
HETATM   19  C   UNL     1      -9.614   8.249  69.285  1.00  0.00    -0.164 A  
BRANCH  17  20
HETATM   20  N   UNL     1      -8.020   6.403  69.499  1.00  0.00    -0.111 N  
HETATM   21  C   UNL     1      -7.660   5.280  68.690  1.00  0.00    -0.082 C  
HETATM   22  C   UNL     1      -7.995   4.118  69.596  1.00  0.00    -0.056 C  
HETATM   23  O   UNL     1      -7.799   4.658  70.911  1.00  0.00    -0.073 OA 
HETATM   24  O   UNL     1      -8.112   6.702  71.833  1.00  0.00    -0.103 OA 
HETATM   25  C   UNL     1      -7.984   6.019  70.832  1.00  0.00    -0.115 C  
BRANCH  22  26
HETATM   26  C   UNL     1      -9.437   3.620  69.450  1.00  0.00    -0.179 C  
HETATM   27  H   UNL     1     -10.827   2.698  70.550  1.00  0.00     0.000 HD 
HETATM   28  O   UNL     1      -9.933   3.007  70.640  1.00  0.00    -0.011 OA 
ENDBRANCH  22  26
ENDBRANCH  17  20
ENDBRANCH  10  13
ENDBRANCH   5   7
TORSDOF 4
ENDMDL
MODEL       69
REMARK 921   NORMALIZED FREE ENERGY PREDICTED BY IDOCK:   -4.72 KCAL/MOL
REMARK 922        TOTAL FREE ENERGY PREDICTED BY IDOCK:   -6.57 KCAL/MOL
REMARK 923 INTER-LIGAND FREE ENERGY PREDICTED BY IDOCK:   -5.92 KCAL/MOL
REMARK 924 INTRA-LIGAND FREE ENERGY PREDICTED BY IDOCK:   -0.65 KCAL/MOL
REMARK 927      BINDING AFFINITY PREDICTED BY RF-SCORE:    0.00 PKD
ROOT
HETATM    1  C   UNL     1      -8.858   4.210  65.861  1.00  0.00    -0.121 C  
HETATM    2  N   UNL     1      -8.667   5.580  65.466  1.00  0.00    -0.153 NA 
HETATM    3  N   UNL     1      -8.035   5.929  64.340  1.00  0.00    -0.125 NA 
HETATM    4  N   UNL     1      -7.980   7.254  64.388  1.00  0.00    -0.128 NA 
HETATM    5  C   UNL     1      -8.587   7.639  65.564  1.00  0.00    -0.092 A  
HETATM    6  N   UNL     1      -9.047   6.583  66.268  1.00  0.00    -0.156 NA 
ENDROOT
BRANCH   5   7
HETATM    7  C   UNL     1      -8.670   9.018  66.040  1.00  0.00    -0.160 A  
HETATM    8  N   UNL     1      -9.889   9.529  66.342  1.00  0.00    -0.233 NA 
HETATM    9  C   UNL     1      -9.937  10.832  66.719  1.00  0.00    -0.206 A  
HETATM   10  C   UNL     1      -8.841  11.703  66.791  1.00  0.00    -0.184 A  
HETATM   11  C   UNL     1      -7.513   9.785  66.120  1.00  0.00    -0.101 A  
HETATM   12  C   UNL     1      -7.604  11.124  66.484  1.00  0.00    -0.135 A  
BRANCH  10  13
HETATM   13  C   UNL     1      -8.975  13.123  67.179  1.00  0.00    -0.228 A  
HETATM   14  C   UNL     1      -9.534  14.091  66.329  1.00  0.00    -0.227 A  
HETATM   15  C   UNL     1      -9.626  15.439  66.683  1.00  0.00    -0.276 A  
HETATM   16  F   UNL     1     -10.000  13.752  65.116  1.00  0.00    -0.334 F  
HETATM   17  C   UNL     1      -9.150  15.890  67.912  1.00  0.00    -0.190 A  
HETATM   18  C   UNL     1      -8.548  13.581  68.436  1.00  0.00    -0.142 A  
HETATM   19  C   UNL     1      -8.626  14.936  68.793  1.00  0.00    -0.177 A  
BRANCH  17  20
HETATM   20  N   UNL     1      -9.226  17.253  68.275  1.00  0.00    -0.257 N  
HETATM   21  C   UNL     1     -10.437  17.911  68.660  1.00  0.00    -0.262 C  
HETATM   22  C   UNL     1     -10.134  19.352  68.322  1.00  0.00    -0.433 C  
HETATM   23  O   UNL     1      -8.712  19.439  68.492  1.00  0.00    -0.352 OA 
HETATM   24  O   UNL     1      -6.997  18.002  68.142  1.00  0.00    -0.212 OA 
HETATM   25  C   UNL     1      -8.193  18.180  68.293  1.00  0.00    -0.290 C  
BRANCH  22  26
HETATM   26  C   UNL     1     -10.511  19.740  66.888  1.00  0.00    -0.472 C  
HETATM   27  H   UNL     1     -11.135  18.858  65.207  1.00  0.00     0.000 HD 
HETATM   28  O   UNL     1     -10.901  18.617  66.096  1.00  0.00    -0.277 OA 
ENDBRANCH  22  26
ENDBRANCH  17  20
ENDBRANCH  10  13
ENDBRANCH   5   7
TORSDOF 4
ENDMDL
MODEL       70
REMARK 921   NORMALIZED FREE ENERGY PREDICTED BY IDOCK:   -4.64 KCAL/MOL
REMARK 922        TOTAL FREE ENERGY PREDICTED BY IDOCK:   -6.48 KCAL/MOL
REMARK 923 INTER-LIGAND FREE ENERGY PREDICTED BY IDOCK:   -5.74 KCAL/MOL
REMARK 924 INTRA-LIGAND FREE ENERGY PREDICTED BY IDOCK:   -0.74 KCAL/MOL
REMARK 927      BINDING AFFINITY PREDICTED BY RF-SCORE:    0.00 PKD
ROOT
HETATM    1  C   UNL     1      -8.857   3.221  66.120  1.00  0.00    -0.139 C  
HETATM    2  N   UNL     1      -8.663   4.539  65.577  1.00  0.00    -0.123 NA 
HETATM    3  N   UNL     1      -7.977   4.766  64.452  1.00  0.00    -0.095 NA 
HETATM    4  N   UNL     1      -7.940   6.089  64.346  1.00  0.00    -0.120 NA 
HETATM    5  C   UNL     1      -8.612   6.597  65.437  1.00  0.00    -0.056 A  
HETATM    6  N   UNL     1      -9.096   5.622  66.236  1.00  0.00    -0.145 NA 
ENDROOT
BRANCH   5   7
HETATM    7  C   UNL     1      -8.736   8.020  65.744  1.00  0.00    -0.146 A  
HETATM    8  N   UNL     1      -9.870   8.460  66.343  1.00  0.00    -0.257 NA 
HETATM    9  C   UNL     1      -9.980   9.796  66.554  1.00  0.00    -0.239 A  
HETATM   10  C   UNL     1      -9.038  10.763  66.177  1.00  0.00    -0.193 A  
HETATM   11  C   UNL     1      -7.721   8.892  65.367  1.00  0.00    -0.092 A  
HETATM   12  C   UNL     1      -7.880  10.258  65.575  1.00  0.00    -0.152 A  
BRANCH  10  13
HETATM   13  C   UNL     1      -9.242  12.209  66.410  1.00  0.00    -0.207 A  
HETATM   14  C   UNL     1      -8.630  12.899  67.469  1.00  0.00    -0.188 A  
HETATM   15  C   UNL     1      -8.852  14.256  67.710  1.00  0.00    -0.185 A  
HETATM   16  F   UNL     1      -7.803  12.263  68.314  1.00  0.00    -0.120 F  
HETATM   17  C   UNL     1      -9.713  14.995  66.900  1.00  0.00    -0.238 A  
HETATM   18  C   UNL     1     -10.063  12.977  65.568  1.00  0.00    -0.270 A  
HETATM   19  C   UNL     1     -10.301  14.339  65.812  1.00  0.00    -0.341 A  
BRANCH  17  20
HETATM   20  N   UNL     1      -9.955  16.366  67.141  1.00  0.00    -0.254 N  
HETATM   21  C   UNL     1      -9.295  17.428  66.446  1.00  0.00    -0.252 C  
HETATM   22  C   UNL     1      -9.393  18.563  67.439  1.00  0.00    -0.279 C  
HETATM   23  O   UNL     1     -10.605  18.276  68.151  1.00  0.00    -0.361 OA 
HETATM   24  O   UNL     1     -11.635  16.363  68.790  1.00  0.00    -0.308 OA 
HETATM   25  C   UNL     1     -10.814  16.918  68.081  1.00  0.00    -0.351 C  
BRANCH  22  26
HETATM   26  C   UNL     1      -8.217  18.624  68.420  1.00  0.00    -0.334 C  
HETATM   27  H   UNL     1      -6.648  19.798  68.814  1.00  0.00     0.000 HD 
HETATM   28  O   UNL     1      -7.377  19.760  68.206  1.00  0.00    -0.300 OA 
ENDBRANCH  22  26
ENDBRANCH  17  20
ENDBRANCH  10  13
ENDBRANCH   5   7
TORSDOF 4
ENDMDL
MODEL       71
REMARK 921   NORMALIZED FREE ENERGY PREDICTED BY IDOCK:   -4.61 KCAL/MOL
REMARK 922        TOTAL FREE ENERGY PREDICTED BY IDOCK:   -6.44 KCAL/MOL
REMARK 923 INTER-LIGAND FREE ENERGY PREDICTED BY IDOCK:   -6.59 KCAL/MOL
REMARK 924 INTRA-LIGAND FREE ENERGY PREDICTED BY IDOCK:    0.15 KCAL/MOL
REMARK 927      BINDING AFFINITY PREDICTED BY RF-SCORE:    0.00 PKD
ROOT
HETATM    1  C   UNL     1     -12.702  16.089  73.591  1.00  0.00    -0.600 C  
HETATM    2  N   UNL     1     -12.943  14.963  72.729  1.00  0.00    -0.410 NA 
HETATM    3  N   UNL     1     -13.940  14.096  72.929  1.00  0.00    -0.514 NA 
HETATM    4  N   UNL     1     -13.766  13.167  71.997  1.00  0.00    -0.448 NA 
HETATM    5  C   UNL     1     -12.648  13.528  71.276  1.00  0.00    -0.341 A  
HETATM    6  N   UNL     1     -12.108  14.684  71.719  1.00  0.00    -0.341 NA 
ENDROOT
BRANCH   5   7
HETATM    7  C   UNL     1     -12.062  12.729  70.202  1.00  0.00    -0.298 A  
HETATM    8  N   UNL     1     -11.936  11.392  70.381  1.00  0.00    -0.362 NA 
HETATM    9  C   UNL     1     -11.329  10.690  69.391  1.00  0.00    -0.284 A  
HETATM   10  C   UNL     1     -10.792  11.232  68.215  1.00  0.00    -0.249 A  
HETATM   11  C   UNL     1     -11.602  13.362  69.052  1.00  0.00    -0.358 A  
HETATM   12  C   UNL     1     -10.961  12.614  68.070  1.00  0.00    -0.266 A  
BRANCH  10  13
HETATM   13  C   UNL     1     -10.114  10.408  67.193  1.00  0.00    -0.254 A  
HETATM   14  C   UNL     1     -10.108   9.004  67.233  1.00  0.00    -0.234 A  
HETATM   15  C   UNL     1      -9.435   8.228  66.288  1.00  0.00    -0.271 A  
HETATM   16  F   UNL     1     -10.751   8.343  68.210  1.00  0.00    -0.241 F  
HETATM   17  C   UNL     1      -8.721   8.823  65.250  1.00  0.00    -0.182 A  
HETATM   18  C   UNL     1      -9.436  10.995  66.111  1.00  0.00    -0.230 A  
HETATM   19  C   UNL     1      -8.748  10.221  65.164  1.00  0.00    -0.189 A  
BRANCH  17  20
HETATM   20  N   UNL     1      -8.027   8.048  64.295  1.00  0.00    -0.143 N  
HETATM   21  C   UNL     1      -8.040   6.618  64.264  1.00  0.00    -0.044 C  
HETATM   22  C   UNL     1      -6.741   6.306  63.558  1.00  0.00    -0.040 C  
HETATM   23  O   UNL     1      -6.550   7.440  62.701  1.00  0.00    -0.063 OA 
HETATM   24  O   UNL     1      -7.021   9.648  62.888  1.00  0.00    -0.099 OA 
HETATM   25  C   UNL     1      -7.208   8.506  63.271  1.00  0.00    -0.092 C  
BRANCH  22  26
HETATM   26  C   UNL     1      -5.545   6.163  64.505  1.00  0.00    -0.021 C  
HETATM   27  H   UNL     1      -4.825   4.851  65.830  1.00  0.00     0.000 HD 
HETATM   28  O   UNL     1      -5.567   4.940  65.243  1.00  0.00    -0.013 OA 
ENDBRANCH  22  26
ENDBRANCH  17  20
ENDBRANCH  10  13
ENDBRANCH   5   7
TORSDOF 4
ENDMDL
MODEL       72
REMARK 921   NORMALIZED FREE ENERGY PREDICTED BY IDOCK:   -4.61 KCAL/MOL
REMARK 922        TOTAL FREE ENERGY PREDICTED BY IDOCK:   -6.44 KCAL/MOL
REMARK 923 INTER-LIGAND FREE ENERGY PREDICTED BY IDOCK:   -5.74 KCAL/MOL
REMARK 924 INTRA-LIGAND FREE ENERGY PREDICTED BY IDOCK:   -0.70 KCAL/MOL
REMARK 927      BINDING AFFINITY PREDICTED BY RF-SCORE:    0.00 PKD
ROOT
HETATM    1  C   UNL     1     -11.398  15.878  64.314  1.00  0.00    -0.171 C  
HETATM    2  N   UNL     1     -11.716  14.578  64.842  1.00  0.00    -0.384 NA 
HETATM    3  N   UNL     1     -12.873  13.957  64.591  1.00  0.00    -0.656 NA 
HETATM    4  N   UNL     1     -12.823  12.852  65.324  1.00  0.00    -0.715 NA 
HETATM    5  C   UNL     1     -11.619  12.870  65.994  1.00  0.00    -0.375 A  
HETATM    6  N   UNL     1     -10.885  13.962  65.692  1.00  0.00    -0.287 NA 
ENDROOT
BRANCH   5   7
HETATM    7  C   UNL     1     -11.201  11.868  66.972  1.00  0.00    -0.323 A  
HETATM    8  N   UNL     1     -10.202  11.013  66.641  1.00  0.00    -0.226 NA 
HETATM    9  C   UNL     1      -9.884  10.054  67.546  1.00  0.00    -0.175 A  
HETATM   10  C   UNL     1     -10.519   9.850  68.779  1.00  0.00    -0.234 A  
HETATM   11  C   UNL     1     -11.868  11.779  68.189  1.00  0.00    -0.324 A  
HETATM   12  C   UNL     1     -11.532  10.767  69.082  1.00  0.00    -0.368 A  
BRANCH  10  13
HETATM   13  C   UNL     1     -10.138   8.760  69.702  1.00  0.00    -0.204 A  
HETATM   14  C   UNL     1     -10.903   7.592  69.852  1.00  0.00    -0.240 A  
HETATM   15  C   UNL     1     -10.562   6.580  70.751  1.00  0.00    -0.278 A  
HETATM   16  F   UNL     1     -12.021   7.407  69.130  1.00  0.00     0.432 F  
HETATM   17  C   UNL     1      -9.432   6.691  71.559  1.00  0.00    -0.156 A  
HETATM   18  C   UNL     1      -8.973   8.836  70.482  1.00  0.00    -0.203 A  
HETATM   19  C   UNL     1      -8.630   7.828  71.397  1.00  0.00    -0.131 A  
BRANCH  17  20
HETATM   20  N   UNL     1      -9.084   5.679  72.481  1.00  0.00    -0.136 N  
HETATM   21  C   UNL     1      -9.180   5.824  73.901  1.00  0.00    -0.127 C  
HETATM   22  C   UNL     1      -8.159   4.825  74.390  1.00  0.00    -0.095 C  
HETATM   23  O   UNL     1      -8.163   3.820  73.367  1.00  0.00    -0.085 OA 
HETATM   24  O   UNL     1      -8.444   3.867  71.120  1.00  0.00    -0.074 OA 
HETATM   25  C   UNL     1      -8.571   4.421  72.198  1.00  0.00    -0.113 C  
BRANCH  22  26
HETATM   26  C   UNL     1      -6.749   5.409  74.539  1.00  0.00    -0.077 C  
HETATM   27  H   UNL     1      -4.864   4.915  74.097  1.00  0.00     0.000 HD 
HETATM   28  O   UNL     1      -5.737   4.553  74.005  1.00  0.00    -0.012 OA 
ENDBRANCH  22  26
ENDBRANCH  17  20
ENDBRANCH  10  13
ENDBRANCH   5   7
TORSDOF 4
ENDMDL
MODEL       73
REMARK 921   NORMALIZED FREE ENERGY PREDICTED BY IDOCK:   -4.60 KCAL/MOL
REMARK 922        TOTAL FREE ENERGY PREDICTED BY IDOCK:   -6.43 KCAL/MOL
REMARK 923 INTER-LIGAND FREE ENERGY PREDICTED BY IDOCK:   -5.87 KCAL/MOL
REMARK 924 INTRA-LIGAND FREE ENERGY PREDICTED BY IDOCK:   -0.56 KCAL/MOL
REMARK 927      BINDING AFFINITY PREDICTED BY RF-SCORE:    0.00 PKD
ROOT
HETATM    1  C   UNL     1     -10.028   4.350  70.573  1.00  0.00    -0.185 C  
HETATM    2  N   UNL     1     -10.068   5.350  69.538  1.00  0.00    -0.217 NA 
HETATM    3  N   UNL     1     -10.158   5.046  68.239  1.00  0.00    -0.133 NA 
HETATM    4  N   UNL     1     -10.068   6.215  67.618  1.00  0.00    -0.140 NA 
HETATM    5  C   UNL     1      -9.919   7.177  68.593  1.00  0.00    -0.159 A  
HETATM    6  N   UNL     1      -9.929   6.648  69.835  1.00  0.00    -0.170 NA 
ENDROOT
BRANCH   5   7
HETATM    7  C   UNL     1      -9.706   8.598  68.328  1.00  0.00    -0.155 A  
HETATM    8  N   UNL     1      -9.807   9.473  69.358  1.00  0.00    -0.177 NA 
HETATM    9  C   UNL     1      -9.669  10.791  69.065  1.00  0.00    -0.187 A  
HETATM   10  C   UNL     1      -9.463  11.328  67.786  1.00  0.00    -0.173 A  
HETATM   11  C   UNL     1      -9.461   9.022  67.026  1.00  0.00    -0.212 A  
HETATM   12  C   UNL     1      -9.351  10.383  66.760  1.00  0.00    -0.181 A  
BRANCH  10  13
HETATM   13  C   UNL     1      -9.354  12.781  67.538  1.00  0.00    -0.189 A  
HETATM   14  C   UNL     1     -10.039  13.425  66.495  1.00  0.00    -0.280 A  
HETATM   15  C   UNL     1      -9.906  14.791  66.240  1.00  0.00    -0.316 A  
HETATM   16  F   UNL     1     -10.853  12.735  65.681  1.00  0.00    -0.278 F  
HETATM   17  C   UNL     1      -9.067  15.586  67.018  1.00  0.00    -0.230 A  
HETATM   18  C   UNL     1      -8.554  13.603  68.349  1.00  0.00    -0.151 A  
HETATM   19  C   UNL     1      -8.406  14.975  68.090  1.00  0.00    -0.142 A  
BRANCH  17  20
HETATM   20  N   UNL     1      -8.915  16.967  66.761  1.00  0.00    -0.233 N  
HETATM   21  C   UNL     1      -7.727  17.554  66.222  1.00  0.00    -0.298 C  
HETATM   22  C   UNL     1      -7.820  18.975  66.726  1.00  0.00    -0.251 C  
HETATM   23  O   UNL     1      -9.234  19.200  66.821  1.00  0.00    -0.296 OA 
HETATM   24  O   UNL     1     -11.001  17.887  67.352  1.00  0.00    -0.281 OA 
HETATM   25  C   UNL     1      -9.836  17.976  67.005  1.00  0.00    -0.318 C  
BRANCH  22  26
HETATM   26  C   UNL     1      -7.168  19.185  68.097  1.00  0.00    -0.266 C  
HETATM   27  H   UNL     1      -5.803  20.373  68.945  1.00  0.00     0.000 HD 
HETATM   28  O   UNL     1      -6.207  20.242  68.095  1.00  0.00    -0.249 OA 
ENDBRANCH  22  26
ENDBRANCH  17  20
ENDBRANCH  10  13
ENDBRANCH   5   7
TORSDOF 4
ENDMDL
MODEL       74
REMARK 921   NORMALIZED FREE ENERGY PREDICTED BY IDOCK:   -4.58 KCAL/MOL
REMARK 922        TOTAL FREE ENERGY PREDICTED BY IDOCK:   -6.40 KCAL/MOL
REMARK 923 INTER-LIGAND FREE ENERGY PREDICTED BY IDOCK:   -5.75 KCAL/MOL
REMARK 924 INTRA-LIGAND FREE ENERGY PREDICTED BY IDOCK:   -0.65 KCAL/MOL
REMARK 927      BINDING AFFINITY PREDICTED BY RF-SCORE:    0.00 PKD
ROOT
HETATM    1  C   UNL     1     -10.346  17.768  67.046  1.00  0.00    -0.344 C  
HETATM    2  N   UNL     1     -10.267  16.542  66.298  1.00  0.00    -0.319 NA 
HETATM    3  N   UNL     1     -10.598  16.457  65.006  1.00  0.00    -0.685 NA 
HETATM    4  N   UNL     1     -10.485  15.167  64.717  1.00  0.00    -0.307 NA 
HETATM    5  C   UNL     1     -10.092  14.530  65.875  1.00  0.00    -0.326 A  
HETATM    6  N   UNL     1      -9.933  15.393  66.901  1.00  0.00    -0.239 NA 
ENDROOT
BRANCH   5   7
HETATM    7  C   UNL     1      -9.928  13.084  66.010  1.00  0.00    -0.276 A  
HETATM    8  N   UNL     1     -10.928  12.275  65.583  1.00  0.00    -0.289 NA 
HETATM    9  C   UNL     1     -10.772  10.942  65.783  1.00  0.00    -0.109 A  
HETATM   10  C   UNL     1      -9.682  10.333  66.421  1.00  0.00    -0.252 A  
HETATM   11  C   UNL     1      -8.784  12.579  66.618  1.00  0.00    -0.101 A  
HETATM   12  C   UNL     1      -8.670  11.209  66.830  1.00  0.00    -0.157 A  
BRANCH  10  13
HETATM   13  C   UNL     1      -9.596   8.873  66.634  1.00  0.00    -0.281 A  
HETATM   14  C   UNL     1      -8.479   8.115  66.245  1.00  0.00    -0.131 A  
HETATM   15  C   UNL     1      -8.415   6.730  66.413  1.00  0.00    -0.126 A  
HETATM   16  F   UNL     1      -7.416   8.704  65.674  1.00  0.00    -0.080 F  
HETATM   17  C   UNL     1      -9.479   6.028  66.976  1.00  0.00    -0.127 A  
HETATM   18  C   UNL     1     -10.638   8.160  67.250  1.00  0.00    -0.344 A  
HETATM   19  C   UNL     1     -10.585   6.767  67.410  1.00  0.00    -0.372 A  
BRANCH  17  20
HETATM   20  N   UNL     1      -9.430   4.625  67.140  1.00  0.00    -0.143 N  
HETATM   21  C   UNL     1      -9.138   3.975  68.380  1.00  0.00    -0.137 C  
HETATM   22  C   UNL     1      -8.595   2.644  67.919  1.00  0.00    -0.094 C  
HETATM   23  O   UNL     1      -9.272   2.423  66.674  1.00  0.00    -0.117 OA 
HETATM   24  O   UNL     1      -9.985   3.786  65.011  1.00  0.00    -0.183 OA 
HETATM   25  C   UNL     1      -9.612   3.655  66.164  1.00  0.00    -0.129 C  
BRANCH  22  26
HETATM   26  C   UNL     1      -7.079   2.644  67.691  1.00  0.00    -0.049 C  
HETATM   27  H   UNL     1      -5.510   3.839  68.015  1.00  0.00     0.000 HD 
HETATM   28  O   UNL     1      -6.450   3.839  68.156  1.00  0.00    -0.036 OA 
ENDBRANCH  22  26
ENDBRANCH  17  20
ENDBRANCH  10  13
ENDBRANCH   5   7
TORSDOF 4
ENDMDL
MODEL       75
REMARK 921   NORMALIZED FREE ENERGY PREDICTED BY IDOCK:   -4.57 KCAL/MOL
REMARK 922        TOTAL FREE ENERGY PREDICTED BY IDOCK:   -6.39 KCAL/MOL
REMARK 923 INTER-LIGAND FREE ENERGY PREDICTED BY IDOCK:   -5.76 KCAL/MOL
REMARK 924 INTRA-LIGAND FREE ENERGY PREDICTED BY IDOCK:   -0.63 KCAL/MOL
REMARK 927      BINDING AFFINITY PREDICTED BY RF-SCORE:    0.00 PKD
ROOT
HETATM    1  C   UNL     1     -10.468  19.073  67.171  1.00  0.00    -0.441 C  
HETATM    2  N   UNL     1     -10.140  17.711  66.844  1.00  0.00    -0.318 NA 
HETATM    3  N   UNL     1      -9.918  17.299  65.592  1.00  0.00    -0.567 NA 
HETATM    4  N   UNL     1      -9.749  15.987  65.699  1.00  0.00    -0.432 NA 
HETATM    5  C   UNL     1      -9.887  15.672  67.034  1.00  0.00    -0.233 A  
HETATM    6  N   UNL     1     -10.126  16.764  67.791  1.00  0.00    -0.272 NA 
ENDROOT
BRANCH   5   7
HETATM    7  C   UNL     1      -9.850  14.315  67.572  1.00  0.00    -0.231 A  
HETATM    8  N   UNL     1      -8.698  13.607  67.472  1.00  0.00    -0.185 NA 
HETATM    9  C   UNL     1      -8.719  12.327  67.924  1.00  0.00    -0.177 A  
HETATM   10  C   UNL     1      -9.834  11.664  68.454  1.00  0.00    -0.202 A  
HETATM   11  C   UNL     1     -11.003  13.765  68.121  1.00  0.00    -0.265 A  
HETATM   12  C   UNL     1     -10.994  12.442  68.550  1.00  0.00    -0.277 A  
BRANCH  10  13
HETATM   13  C   UNL     1      -9.789  10.254  68.896  1.00  0.00    -0.200 A  
HETATM   14  C   UNL     1      -8.803   9.764  69.766  1.00  0.00    -0.224 A  
HETATM   15  C   UNL     1      -8.740   8.424  70.154  1.00  0.00    -0.136 A  
HETATM   16  F   UNL     1      -7.856  10.580  70.259  1.00  0.00    -0.117 F  
HETATM   17  C   UNL     1      -9.666   7.498  69.677  1.00  0.00    -0.167 A  
HETATM   18  C   UNL     1     -10.748   9.323  68.466  1.00  0.00    -0.185 A  
HETATM   19  C   UNL     1     -10.684   7.971  68.841  1.00  0.00    -0.091 A  
BRANCH  17  20
HETATM   20  N   UNL     1      -9.605   6.137  70.052  1.00  0.00    -0.159 N  
HETATM   21  C   UNL     1     -10.345   5.574  71.139  1.00  0.00    -0.234 C  
HETATM   22  C   UNL     1      -9.501   4.378  71.510  1.00  0.00    -0.152 C  
HETATM   23  O   UNL     1      -8.886   4.009  70.267  1.00  0.00    -0.078 OA 
HETATM   24  O   UNL     1      -8.143   5.178  68.476  1.00  0.00    -0.086 OA 
HETATM   25  C   UNL     1      -8.824   5.140  69.485  1.00  0.00    -0.099 C  
BRANCH  22  26
HETATM   26  C   UNL     1      -8.420   4.686  72.552  1.00  0.00    -0.115 C  
HETATM   27  H   UNL     1      -7.840   6.208  73.711  1.00  0.00     0.000 HD 
HETATM   28  O   UNL     1      -8.510   6.016  73.065  1.00  0.00    -0.120 OA 
ENDBRANCH  22  26
ENDBRANCH  17  20
ENDBRANCH  10  13
ENDBRANCH   5   7
TORSDOF 4
ENDMDL
MODEL       76
REMARK 921   NORMALIZED FREE ENERGY PREDICTED BY IDOCK:   -4.56 KCAL/MOL
REMARK 922        TOTAL FREE ENERGY PREDICTED BY IDOCK:   -6.38 KCAL/MOL
REMARK 923 INTER-LIGAND FREE ENERGY PREDICTED BY IDOCK:   -5.62 KCAL/MOL
REMARK 924 INTRA-LIGAND FREE ENERGY PREDICTED BY IDOCK:   -0.76 KCAL/MOL
REMARK 927      BINDING AFFINITY PREDICTED BY RF-SCORE:    0.00 PKD
ROOT
HETATM    1  C   UNL     1      -9.036   5.083  69.608  1.00  0.00    -0.099 C  
HETATM    2  N   UNL     1      -9.094   6.200  68.703  1.00  0.00    -0.125 NA 
HETATM    3  N   UNL     1      -9.261   6.056  67.384  1.00  0.00    -0.110 NA 
HETATM    4  N   UNL     1      -9.162   7.288  66.901  1.00  0.00    -0.145 NA 
HETATM    5  C   UNL     1      -8.931   8.123  67.973  1.00  0.00    -0.134 A  
HETATM    6  N   UNL     1      -8.895   7.449  69.143  1.00  0.00    -0.136 NA 
ENDROOT
BRANCH   5   7
HETATM    7  C   UNL     1      -8.683   9.559  67.867  1.00  0.00    -0.119 A  
HETATM    8  N   UNL     1      -8.384  10.251  68.993  1.00  0.00    -0.137 NA 
HETATM    9  C   UNL     1      -8.224  11.593  68.868  1.00  0.00     0.020 A  
HETATM   10  C   UNL     1      -8.373  12.329  67.684  1.00  0.00    -0.166 A  
HETATM   11  C   UNL     1      -8.812  10.185  66.632  1.00  0.00    -0.145 A  
HETATM   12  C   UNL     1      -8.667  11.566  66.548  1.00  0.00    -0.183 A  
BRANCH  10  13
HETATM   13  C   UNL     1      -8.216  13.797  67.631  1.00  0.00    -0.180 A  
HETATM   14  C   UNL     1      -9.308  14.679  67.681  1.00  0.00    -0.200 A  
HETATM   15  C   UNL     1      -9.160  16.064  67.594  1.00  0.00    -0.200 A  
HETATM   16  F   UNL     1     -10.561  14.212  67.804  1.00  0.00    -0.236 F  
HETATM   17  C   UNL     1      -7.901  16.641  67.443  1.00  0.00    -0.165 A  
HETATM   18  C   UNL     1      -6.948  14.394  67.534  1.00  0.00    -0.182 A  
HETATM   19  C   UNL     1      -6.793  15.785  67.434  1.00  0.00    -0.235 A  
BRANCH  17  20
HETATM   20  N   UNL     1      -7.740  18.041  67.341  1.00  0.00    -0.206 N  
HETATM   21  C   UNL     1      -8.055  18.960  68.391  1.00  0.00    -0.341 C  
HETATM   22  C   UNL     1      -8.324  20.234  67.626  1.00  0.00    -0.268 C  
HETATM   23  O   UNL     1      -7.489  20.106  66.467  1.00  0.00    -0.265 OA 
HETATM   24  O   UNL     1      -6.829  18.354  65.192  1.00  0.00    -0.512 OA 
HETATM   25  C   UNL     1      -7.299  18.762  66.240  1.00  0.00    -0.256 C  
BRANCH  22  26
HETATM   26  C   UNL     1      -9.786  20.397  67.197  1.00  0.00    -0.461 C  
HETATM   27  H   UNL     1     -11.552  19.515  67.510  1.00  0.00     0.000 HD 
HETATM   28  O   UNL     1     -10.645  19.414  67.776  1.00  0.00    -0.429 OA 
ENDBRANCH  22  26
ENDBRANCH  17  20
ENDBRANCH  10  13
ENDBRANCH   5   7
TORSDOF 4
ENDMDL
MODEL       77
REMARK 921   NORMALIZED FREE ENERGY PREDICTED BY IDOCK:   -4.55 KCAL/MOL
REMARK 922        TOTAL FREE ENERGY PREDICTED BY IDOCK:   -6.36 KCAL/MOL
REMARK 923 INTER-LIGAND FREE ENERGY PREDICTED BY IDOCK:   -5.67 KCAL/MOL
REMARK 924 INTRA-LIGAND FREE ENERGY PREDICTED BY IDOCK:   -0.70 KCAL/MOL
REMARK 927      BINDING AFFINITY PREDICTED BY RF-SCORE:    0.00 PKD
ROOT
HETATM    1  C   UNL     1      -8.496  19.960  67.813  1.00  0.00    -0.310 C  
HETATM    2  N   UNL     1      -9.295  18.791  67.559  1.00  0.00    -0.288 NA 
HETATM    3  N   UNL     1     -10.615  18.845  67.354  1.00  0.00    -0.445 NA 
HETATM    4  N   UNL     1     -10.989  17.575  67.258  1.00  0.00    -0.115 NA 
HETATM    5  C   UNL     1      -9.854  16.810  67.420  1.00  0.00    -0.252 A  
HETATM    6  N   UNL     1      -8.752  17.567  67.602  1.00  0.00    -0.221 NA 
ENDROOT
BRANCH   5   7
HETATM    7  C   UNL     1      -9.839  15.349  67.460  1.00  0.00    -0.217 A  
HETATM    8  N   UNL     1      -8.650  14.715  67.603  1.00  0.00    -0.166 NA 
HETATM    9  C   UNL     1      -8.665  13.359  67.571  1.00  0.00    -0.205 A  
HETATM   10  C   UNL     1      -9.797  12.558  67.371  1.00  0.00    -0.201 A  
HETATM   11  C   UNL     1     -11.029  14.648  67.298  1.00  0.00    -0.317 A  
HETATM   12  C   UNL     1     -11.002  13.258  67.244  1.00  0.00    -0.284 A  
BRANCH  10  13
HETATM   13  C   UNL     1      -9.732  11.082  67.315  1.00  0.00    -0.188 A  
HETATM   14  C   UNL     1      -9.655  10.283  68.466  1.00  0.00    -0.161 A  
HETATM   15  C   UNL     1      -9.556   8.891  68.410  1.00  0.00    -0.157 A  
HETATM   16  F   UNL     1      -9.660  10.839  69.689  1.00  0.00    -0.181 F  
HETATM   17  C   UNL     1      -9.520   8.225  67.187  1.00  0.00    -0.160 A  
HETATM   18  C   UNL     1      -9.750  10.396  66.089  1.00  0.00    -0.262 A  
HETATM   19  C   UNL     1      -9.639   8.998  66.025  1.00  0.00    -0.342 A  
BRANCH  17  20
HETATM   20  N   UNL     1      -9.408   6.818  67.117  1.00  0.00    -0.132 N  
HETATM   21  C   UNL     1      -8.333   6.133  66.468  1.00  0.00    -0.113 C  
HETATM   22  C   UNL     1      -8.968   4.807  66.121  1.00  0.00    -0.122 C  
HETATM   23  O   UNL     1      -9.944   4.627  67.157  1.00  0.00    -0.194 OA 
HETATM   24  O   UNL     1     -11.274   6.040  68.324  1.00  0.00    -0.273 OA 
HETATM   25  C   UNL     1     -10.298   5.876  67.614  1.00  0.00    -0.212 C  
BRANCH  22  26
HETATM   26  C   UNL     1      -9.656   4.793  64.752  1.00  0.00     0.028 C  
HETATM   27  H   UNL     1     -11.242   3.951  63.875  1.00  0.00     0.000 HD 
HETATM   28  O   UNL     1     -10.816   3.959  64.724  1.00  0.00    -0.177 OA 
ENDBRANCH  22  26
ENDBRANCH  17  20
ENDBRANCH  10  13
ENDBRANCH   5   7
TORSDOF 4
ENDMDL
MODEL       78
REMARK 921   NORMALIZED FREE ENERGY PREDICTED BY IDOCK:   -4.55 KCAL/MOL
REMARK 922        TOTAL FREE ENERGY PREDICTED BY IDOCK:   -6.36 KCAL/MOL
REMARK 923 INTER-LIGAND FREE ENERGY PREDICTED BY IDOCK:   -5.59 KCAL/MOL
REMARK 924 INTRA-LIGAND FREE ENERGY PREDICTED BY IDOCK:   -0.77 KCAL/MOL
REMARK 927      BINDING AFFINITY PREDICTED BY RF-SCORE:    0.00 PKD
ROOT
HETATM    1  C   UNL     1      -9.896   1.475  72.734  1.00  0.00    -0.086 C  
HETATM    2  N   UNL     1      -9.656   2.442  71.697  1.00  0.00    -0.133 NA 
HETATM    3  N   UNL     1      -8.876   2.194  70.639  1.00  0.00    -0.065 NA 
HETATM    4  N   UNL     1      -8.831   3.346  69.982  1.00  0.00    -0.080 NA 
HETATM    5  C   UNL     1      -9.595   4.245  70.695  1.00  0.00    -0.190 A  
HETATM    6  N   UNL     1     -10.145   3.686  71.793  1.00  0.00    -0.139 NA 
ENDROOT
BRANCH   5   7
HETATM    7  C   UNL     1      -9.745   5.658  70.353  1.00  0.00    -0.179 A  
HETATM    8  N   UNL     1     -10.437   5.985  69.234  1.00  0.00    -0.233 NA 
HETATM    9  C   UNL     1     -10.502   7.302  68.911  1.00  0.00    -0.206 A  
HETATM   10  C   UNL     1      -9.889   8.348  69.615  1.00  0.00    -0.184 A  
HETATM   11  C   UNL     1      -9.134   6.622  71.146  1.00  0.00    -0.152 A  
HETATM   12  C   UNL     1      -9.200   7.960  70.769  1.00  0.00    -0.159 A  
BRANCH  10  13
HETATM   13  C   UNL     1      -9.976   9.759  69.183  1.00  0.00    -0.195 A  
HETATM   14  C   UNL     1     -11.057  10.589  69.518  1.00  0.00    -0.268 A  
HETATM   15  C   UNL     1     -11.155  11.910  69.079  1.00  0.00    -0.300 A  
HETATM   16  F   UNL     1     -12.064  10.129  70.279  1.00  0.00    -0.302 F  
HETATM   17  C   UNL     1     -10.170  12.469  68.267  1.00  0.00    -0.234 A  
HETATM   18  C   UNL     1      -8.963  10.350  68.410  1.00  0.00    -0.137 A  
HETATM   19  C   UNL     1      -9.061  11.674  67.955  1.00  0.00    -0.171 A  
BRANCH  17  20
HETATM   20  N   UNL     1     -10.265  13.802  67.806  1.00  0.00    -0.237 N  
HETATM   21  C   UNL     1      -9.668  14.920  68.468  1.00  0.00    -0.215 C  
HETATM   22  C   UNL     1     -10.540  16.063  68.006  1.00  0.00    -0.295 C  
HETATM   23  O   UNL     1     -10.983  15.638  66.709  1.00  0.00    -0.310 OA 
HETATM   24  O   UNL     1     -11.498  13.625  65.808  1.00  0.00    -0.308 OA 
HETATM   25  C   UNL     1     -10.954  14.262  66.693  1.00  0.00    -0.310 C  
BRANCH  22  26
HETATM   26  C   UNL     1     -11.752  16.317  68.909  1.00  0.00    -0.160 C  
HETATM   27  H   UNL     1     -12.197  16.330  70.858  1.00  0.00     0.000 HD 
HETATM   28  O   UNL     1     -11.446  16.172  70.297  1.00  0.00    -0.346 OA 
ENDBRANCH  22  26
ENDBRANCH  17  20
ENDBRANCH  10  13
ENDBRANCH   5   7
TORSDOF 4
ENDMDL
MODEL       79
REMARK 921   NORMALIZED FREE ENERGY PREDICTED BY IDOCK:   -4.54 KCAL/MOL
REMARK 922        TOTAL FREE ENERGY PREDICTED BY IDOCK:   -6.35 KCAL/MOL
REMARK 923 INTER-LIGAND FREE ENERGY PREDICTED BY IDOCK:   -6.15 KCAL/MOL
REMARK 924 INTRA-LIGAND FREE ENERGY PREDICTED BY IDOCK:   -0.20 KCAL/MOL
REMARK 927      BINDING AFFINITY PREDICTED BY RF-SCORE:    0.00 PKD
ROOT
HETATM    1  C   UNL     1      -6.844   1.761  74.362  1.00  0.00    -0.022 C  
HETATM    2  N   UNL     1      -7.892   2.717  74.124  1.00  0.00    -0.054 NA 
HETATM    3  N   UNL     1      -9.166   2.496  74.464  1.00  0.00    -0.077 NA 
HETATM    4  N   UNL     1      -9.822   3.551  73.996  1.00  0.00    -0.109 NA 
HETATM    5  C   UNL     1      -8.892   4.363  73.383  1.00  0.00    -0.101 A  
HETATM    6  N   UNL     1      -7.643   3.855  73.463  1.00  0.00    -0.070 NA 
ENDROOT
BRANCH   5   7
HETATM    7  C   UNL     1      -9.212   5.595  72.668  1.00  0.00    -0.137 A  
HETATM    8  N   UNL     1      -9.120   5.604  71.316  1.00  0.00    -0.142 NA 
HETATM    9  C   UNL     1      -9.361   6.783  70.688  1.00  0.00    -0.162 A  
HETATM   10  C   UNL     1      -9.665   7.998  71.317  1.00  0.00    -0.199 A  
HETATM   11  C   UNL     1      -9.548   6.736  73.388  1.00  0.00    -0.195 A  
HETATM   12  C   UNL     1      -9.763   7.933  72.712  1.00  0.00    -0.322 A  
BRANCH  10  13
HETATM   13  C   UNL     1      -9.883   9.253  70.568  1.00  0.00    -0.310 A  
HETATM   14  C   UNL     1     -11.048  10.025  70.703  1.00  0.00    -0.335 A  
HETATM   15  C   UNL     1     -11.268  11.190  69.967  1.00  0.00    -0.261 A  
HETATM   16  F   UNL     1     -12.019   9.655  71.554  1.00  0.00    -0.376 F  
HETATM   17  C   UNL     1     -10.327  11.641  69.043  1.00  0.00    -0.092 A  
HETATM   18  C   UNL     1      -8.918   9.748  69.674  1.00  0.00    -0.229 A  
HETATM   19  C   UNL     1      -9.139  10.912  68.921  1.00  0.00    -0.151 A  
BRANCH  17  20
HETATM   20  N   UNL     1     -10.545  12.813  68.284  1.00  0.00    -0.232 N  
HETATM   21  C   UNL     1     -11.811  13.468  68.171  1.00  0.00    -0.365 C  
HETATM   22  C   UNL     1     -11.677  14.190  66.851  1.00  0.00    -0.414 C  
HETATM   23  O   UNL     1     -10.270  14.454  66.760  1.00  0.00    -0.263 OA 
HETATM   24  O   UNL     1      -8.416  13.335  67.425  1.00  0.00    -0.184 OA 
HETATM   25  C   UNL     1      -9.620  13.499  67.509  1.00  0.00    -0.221 C  
BRANCH  22  26
HETATM   26  C   UNL     1     -12.126  13.356  65.645  1.00  0.00    -0.434 C  
HETATM   27  H   UNL     1     -13.243  13.571  64.002  1.00  0.00     0.000 HD 
HETATM   28  O   UNL     1     -12.965  14.088  64.749  1.00  0.00    -0.686 OA 
ENDBRANCH  22  26
ENDBRANCH  17  20
ENDBRANCH  10  13
ENDBRANCH   5   7
TORSDOF 4
ENDMDL
MODEL       80
REMARK 921   NORMALIZED FREE ENERGY PREDICTED BY IDOCK:   -4.49 KCAL/MOL
REMARK 922        TOTAL FREE ENERGY PREDICTED BY IDOCK:   -6.28 KCAL/MOL
REMARK 923 INTER-LIGAND FREE ENERGY PREDICTED BY IDOCK:   -5.63 KCAL/MOL
REMARK 924 INTRA-LIGAND FREE ENERGY PREDICTED BY IDOCK:   -0.65 KCAL/MOL
REMARK 927      BINDING AFFINITY PREDICTED BY RF-SCORE:    0.00 PKD
ROOT
HETATM    1  C   UNL     1     -10.099  20.447  66.998  1.00  0.00    -0.366 C  
HETATM    2  N   UNL     1     -10.163  19.065  66.605  1.00  0.00    -0.377 NA 
HETATM    3  N   UNL     1     -10.755  18.658  65.477  1.00  0.00    -0.503 NA 
HETATM    4  N   UNL     1     -10.691  17.333  65.527  1.00  0.00    -0.513 NA 
HETATM    5  C   UNL     1     -10.057  17.007  66.707  1.00  0.00    -0.300 A  
HETATM    6  N   UNL     1      -9.698  18.101  67.411  1.00  0.00    -0.289 NA 
ENDROOT
BRANCH   5   7
HETATM    7  C   UNL     1      -9.852  15.642  67.187  1.00  0.00    -0.229 A  
HETATM    8  N   UNL     1      -9.549  15.452  68.494  1.00  0.00    -0.196 NA 
HETATM    9  C   UNL     1      -9.300  14.178  68.891  1.00  0.00    -0.012 A  
HETATM   10  C   UNL     1      -9.299  13.048  68.062  1.00  0.00    -0.213 A  
HETATM   11  C   UNL     1      -9.919  14.584  66.287  1.00  0.00    -0.320 A  
HETATM   12  C   UNL     1      -9.633  13.295  66.725  1.00  0.00    -0.258 A  
BRANCH  10  13
HETATM   13  C   UNL     1      -8.986  11.692  68.561  1.00  0.00    -0.138 A  
HETATM   14  C   UNL     1      -9.981  10.758  68.893  1.00  0.00    -0.202 A  
HETATM   15  C   UNL     1      -9.684   9.491  69.399  1.00  0.00    -0.190 A  
HETATM   16  F   UNL     1     -11.281  11.060  68.746  1.00  0.00    -0.220 F  
HETATM   17  C   UNL     1      -8.364   9.095  69.607  1.00  0.00    -0.130 A  
HETATM   18  C   UNL     1      -7.659  11.261  68.723  1.00  0.00    -0.130 A  
HETATM   19  C   UNL     1      -7.354   9.993  69.243  1.00  0.00    -0.091 A  
BRANCH  17  20
HETATM   20  N   UNL     1      -8.052   7.820  70.130  1.00  0.00    -0.115 N  
HETATM   21  C   UNL     1      -8.604   6.597  69.635  1.00  0.00    -0.133 C  
HETATM   22  C   UNL     1      -8.493   5.691  70.838  1.00  0.00    -0.125 C  
HETATM   23  O   UNL     1      -7.344   6.200  71.530  1.00  0.00    -0.085 OA 
HETATM   24  O   UNL     1      -6.472   8.270  71.817  1.00  0.00    -0.048 OA 
HETATM   25  C   UNL     1      -7.215   7.529  71.198  1.00  0.00    -0.063 C  
BRANCH  22  26
HETATM   26  C   UNL     1      -9.718   5.740  71.760  1.00  0.00    -0.156 C  
HETATM   27  H   UNL     1     -11.562   6.509  71.768  1.00  0.00     0.000 HD 
HETATM   28  O   UNL     1     -10.803   6.479  71.197  1.00  0.00    -0.232 OA 
ENDBRANCH  22  26
ENDBRANCH  17  20
ENDBRANCH  10  13
ENDBRANCH   5   7
TORSDOF 4
ENDMDL
MODEL       81
REMARK 921   NORMALIZED FREE ENERGY PREDICTED BY IDOCK:   -4.48 KCAL/MOL
REMARK 922        TOTAL FREE ENERGY PREDICTED BY IDOCK:   -6.28 KCAL/MOL
REMARK 923 INTER-LIGAND FREE ENERGY PREDICTED BY IDOCK:   -5.60 KCAL/MOL
REMARK 924 INTRA-LIGAND FREE ENERGY PREDICTED BY IDOCK:   -0.68 KCAL/MOL
REMARK 927      BINDING AFFINITY PREDICTED BY RF-SCORE:    0.00 PKD
ROOT
HETATM    1  C   UNL     1      -7.258   2.825  73.640  1.00  0.00    -0.041 C  
HETATM    2  N   UNL     1      -8.051   3.268  72.524  1.00  0.00    -0.067 NA 
HETATM    3  N   UNL     1      -8.670   2.423  71.693  1.00  0.00    -0.067 NA 
HETATM    4  N   UNL     1      -9.200   3.203  70.760  1.00  0.00    -0.121 NA 
HETATM    5  C   UNL     1      -8.861   4.500  71.081  1.00  0.00    -0.116 A  
HETATM    6  N   UNL     1      -8.134   4.569  72.216  1.00  0.00    -0.099 NA 
ENDROOT
BRANCH   5   7
HETATM    7  C   UNL     1      -9.184   5.667  70.263  1.00  0.00    -0.151 A  
HETATM    8  N   UNL     1     -10.479   5.887  69.929  1.00  0.00    -0.242 NA 
HETATM    9  C   UNL     1     -10.736   6.942  69.114  1.00  0.00    -0.234 A  
HETATM   10  C   UNL     1      -9.776   7.803  68.563  1.00  0.00    -0.165 A  
HETATM   11  C   UNL     1      -8.158   6.486  69.805  1.00  0.00    -0.125 A  
HETATM   12  C   UNL     1      -8.457   7.542  68.950  1.00  0.00    -0.129 A  
BRANCH  10  13
HETATM   13  C   UNL     1     -10.129   8.914  67.654  1.00  0.00    -0.274 A  
HETATM   14  C   UNL     1      -9.814   8.903  66.286  1.00  0.00    -0.285 A  
HETATM   15  C   UNL     1     -10.115   9.969  65.437  1.00  0.00    -0.317 A  
HETATM   16  F   UNL     1      -9.188   7.850  65.735  1.00  0.00    -0.199 F  
HETATM   17  C   UNL     1     -10.744  11.114  65.921  1.00  0.00    -0.198 A  
HETATM   18  C   UNL     1     -10.812  10.050  68.119  1.00  0.00    -0.303 A  
HETATM   19  C   UNL     1     -11.106  11.131  67.274  1.00  0.00    -0.366 A  
BRANCH  17  20
HETATM   20  N   UNL     1     -11.042  12.205  65.074  1.00  0.00    -0.312 N  
HETATM   21  C   UNL     1     -10.551  13.532  65.277  1.00  0.00    -0.328 C  
HETATM   22  C   UNL     1     -11.594  14.367  64.572  1.00  0.00    -0.384 C  
HETATM   23  O   UNL     1     -12.066  13.497  63.534  1.00  0.00    -0.530 OA 
HETATM   24  O   UNL     1     -12.378  11.259  63.381  1.00  0.00     0.000 OA 
HETATM   25  C   UNL     1     -11.861  12.202  63.953  1.00  0.00    -0.466 C  
BRANCH  22  26
HETATM   26  C   UNL     1     -12.762  14.781  65.473  1.00  0.00     0.091 C  
HETATM   27  H   UNL     1     -13.292  14.665  67.397  1.00  0.00     0.000 HD 
HETATM   28  O   UNL     1     -12.567  14.407  66.838  1.00  0.00    -0.173 OA 
ENDBRANCH  22  26
ENDBRANCH  17  20
ENDBRANCH  10  13
ENDBRANCH   5   7
TORSDOF 4
ENDMDL
MODEL       82
REMARK 921   NORMALIZED FREE ENERGY PREDICTED BY IDOCK:   -4.31 KCAL/MOL
REMARK 922        TOTAL FREE ENERGY PREDICTED BY IDOCK:   -6.07 KCAL/MOL
REMARK 923 INTER-LIGAND FREE ENERGY PREDICTED BY IDOCK:   -5.50 KCAL/MOL
REMARK 924 INTRA-LIGAND FREE ENERGY PREDICTED BY IDOCK:   -0.57 KCAL/MOL
REMARK 927      BINDING AFFINITY PREDICTED BY RF-SCORE:    0.00 PKD
ROOT
HETATM    1  C   UNL     1     -10.441  18.110  68.062  1.00  0.00    -0.371 C  
HETATM    2  N   UNL     1     -10.865  16.735  68.088  1.00  0.00    -0.360 NA 
HETATM    3  N   UNL     1     -11.879  16.303  68.845  1.00  0.00    -0.197 NA 
HETATM    4  N   UNL     1     -11.889  14.988  68.668  1.00  0.00    -0.320 NA 
HETATM    5  C   UNL     1     -10.858  14.692  67.802  1.00  0.00    -0.267 A  
HETATM    6  N   UNL     1     -10.193  15.798  67.407  1.00  0.00    -0.265 NA 
ENDROOT
BRANCH   5   7
HETATM    7  C   UNL     1     -10.473  13.339  67.405  1.00  0.00    -0.243 A  
HETATM    8  N   UNL     1     -11.171  12.730  66.415  1.00  0.00    -0.286 NA 
HETATM    9  C   UNL     1     -10.830  11.451  66.116  1.00  0.00    -0.255 A  
HETATM   10  C   UNL     1      -9.842  10.695  66.762  1.00  0.00    -0.240 A  
HETATM   11  C   UNL     1      -9.444  12.694  68.082  1.00  0.00    -0.218 A  
HETATM   12  C   UNL     1      -9.140  11.374  67.765  1.00  0.00    -0.158 A  
BRANCH  10  13
HETATM   13  C   UNL     1      -9.547   9.292  66.403  1.00  0.00    -0.301 A  
HETATM   14  C   UNL     1     -10.075   8.201  67.112  1.00  0.00    -0.264 A  
HETATM   15  C   UNL     1      -9.767   6.878  66.794  1.00  0.00    -0.232 A  
HETATM   16  F   UNL     1     -10.903   8.395  68.152  1.00  0.00    -0.226 F  
HETATM   17  C   UNL     1      -8.899   6.577  65.746  1.00  0.00    -0.084 A  
HETATM   18  C   UNL     1      -8.718   8.975  65.315  1.00  0.00    -0.226 A  
HETATM   19  C   UNL     1      -8.393   7.647  64.997  1.00  0.00    -0.078 A  
BRANCH  17  20
HETATM   20  N   UNL     1      -8.570   5.242  65.423  1.00  0.00    -0.144 N  
HETATM   21  C   UNL     1      -9.507   4.161  65.438  1.00  0.00    -0.173 C  
HETATM   22  C   UNL     1      -8.609   2.967  65.660  1.00  0.00    -0.115 C  
HETATM   23  O   UNL     1      -7.373   3.365  65.052  1.00  0.00    -0.069 OA 
HETATM   24  O   UNL     1      -6.289   5.343  64.846  1.00  0.00    -0.032 OA 
HETATM   25  C   UNL     1      -7.322   4.740  65.079  1.00  0.00    -0.072 C  
BRANCH  22  26
HETATM   26  C   UNL     1      -8.378   2.639  67.139  1.00  0.00    -0.092 C  
HETATM   27  H   UNL     1      -9.383   2.692  68.866  1.00  0.00     0.000 HD 
HETATM   28  O   UNL     1      -9.526   2.896  67.949  1.00  0.00    -0.210 OA 
ENDBRANCH  22  26
ENDBRANCH  17  20
ENDBRANCH  10  13
ENDBRANCH   5   7
TORSDOF 4
ENDMDL
MODEL       83
REMARK 921   NORMALIZED FREE ENERGY PREDICTED BY IDOCK:   -4.30 KCAL/MOL
REMARK 922        TOTAL FREE ENERGY PREDICTED BY IDOCK:   -6.05 KCAL/MOL
REMARK 923 INTER-LIGAND FREE ENERGY PREDICTED BY IDOCK:   -5.82 KCAL/MOL
REMARK 924 INTRA-LIGAND FREE ENERGY PREDICTED BY IDOCK:   -0.23 KCAL/MOL
REMARK 927      BINDING AFFINITY PREDICTED BY RF-SCORE:    0.00 PKD
ROOT
HETATM    1  C   UNL     1     -10.500   1.527  74.113  1.00  0.00    -0.104 C  
HETATM    2  N   UNL     1      -9.965   2.255  72.993  1.00  0.00    -0.105 NA 
HETATM    3  N   UNL     1      -8.908   1.833  72.291  1.00  0.00    -0.067 NA 
HETATM    4  N   UNL     1      -8.672   2.811  71.425  1.00  0.00    -0.067 NA 
HETATM    5  C   UNL     1      -9.613   3.790  71.660  1.00  0.00    -0.157 A  
HETATM    6  N   UNL     1     -10.462   3.452  72.654  1.00  0.00    -0.137 NA 
ENDROOT
BRANCH   5   7
HETATM    7  C   UNL     1      -9.657   5.078  70.971  1.00  0.00    -0.170 A  
HETATM    8  N   UNL     1      -9.266   6.188  71.644  1.00  0.00    -0.146 NA 
HETATM    9  C   UNL     1      -9.382   7.376  70.996  1.00  0.00    -0.157 A  
HETATM   10  C   UNL     1      -9.900   7.557  69.707  1.00  0.00    -0.180 A  
HETATM   11  C   UNL     1     -10.146   5.142  69.672  1.00  0.00    -0.332 A  
HETATM   12  C   UNL     1     -10.275   6.380  69.049  1.00  0.00    -0.216 A  
BRANCH  10  13
HETATM   13  C   UNL     1     -10.026   8.888  69.077  1.00  0.00    -0.195 A  
HETATM   14  C   UNL     1      -9.244   9.988  69.466  1.00  0.00    -0.221 A  
HETATM   15  C   UNL     1      -9.390  11.253  68.895  1.00  0.00    -0.084 A  
HETATM   16  F   UNL     1      -8.317   9.863  70.429  1.00  0.00    -0.197 F  
HETATM   17  C   UNL     1     -10.342  11.486  67.904  1.00  0.00    -0.183 A  
HETATM   18  C   UNL     1     -10.943   9.122  68.039  1.00  0.00    -0.032 A  
HETATM   19  C   UNL     1     -11.104  10.395  67.470  1.00  0.00    -0.336 A  
BRANCH  17  20
HETATM   20  N   UNL     1     -10.507  12.765  67.328  1.00  0.00    -0.232 N  
HETATM   21  C   UNL     1     -11.751  13.471  67.293  1.00  0.00    -0.383 C  
HETATM   22  C   UNL     1     -11.565  14.380  66.101  1.00  0.00    -0.369 C  
HETATM   23  O   UNL     1     -10.149  14.609  66.078  1.00  0.00    -0.281 OA 
HETATM   24  O   UNL     1      -8.344  13.343  66.598  1.00  0.00     0.026 OA 
HETATM   25  C   UNL     1      -9.545  13.531  66.684  1.00  0.00    -0.278 C  
BRANCH  22  26
HETATM   26  C   UNL     1     -12.010  13.754  64.774  1.00  0.00    -0.404 C  
HETATM   27  H   UNL     1     -12.757  14.336  63.014  1.00  0.00     0.000 HD 
HETATM   28  O   UNL     1     -12.481  14.724  63.837  1.00  0.00    -0.811 OA 
ENDBRANCH  22  26
ENDBRANCH  17  20
ENDBRANCH  10  13
ENDBRANCH   5   7
TORSDOF 4
ENDMDL
MODEL       84
REMARK 921   NORMALIZED FREE ENERGY PREDICTED BY IDOCK:   -4.23 KCAL/MOL
REMARK 922        TOTAL FREE ENERGY PREDICTED BY IDOCK:   -5.98 KCAL/MOL
REMARK 923 INTER-LIGAND FREE ENERGY PREDICTED BY IDOCK:   -5.67 KCAL/MOL
REMARK 924 INTRA-LIGAND FREE ENERGY PREDICTED BY IDOCK:   -0.31 KCAL/MOL
REMARK 927      BINDING AFFINITY PREDICTED BY RF-SCORE:    0.00 PKD
ROOT
HETATM    1  C   UNL     1      -9.965   1.502  63.875  1.00  0.00    -0.113 C  
HETATM    2  N   UNL     1      -9.271   2.602  64.489  1.00  0.00    -0.130 NA 
HETATM    3  N   UNL     1      -8.087   2.466  65.094  1.00  0.00    -0.078 NA 
HETATM    4  N   UNL     1      -7.836   3.664  65.608  1.00  0.00    -0.091 NA 
HETATM    5  C   UNL     1      -8.906   4.471  65.285  1.00  0.00    -0.140 A  
HETATM    6  N   UNL     1      -9.835   3.815  64.557  1.00  0.00    -0.179 NA 
ENDROOT
BRANCH   5   7
HETATM    7  C   UNL     1      -9.064   5.853  65.729  1.00  0.00    -0.087 A  
HETATM    8  N   UNL     1     -10.001   6.131  66.668  1.00  0.00    -0.166 NA 
HETATM    9  C   UNL     1     -10.167   7.434  67.010  1.00  0.00    -0.287 A  
HETATM   10  C   UNL     1      -9.476   8.519  66.454  1.00  0.00    -0.297 A  
HETATM   11  C   UNL     1      -8.294   6.852  65.144  1.00  0.00    -0.080 A  
HETATM   12  C   UNL     1      -8.509   8.179  65.500  1.00  0.00    -0.174 A  
BRANCH  10  13
HETATM   13  C   UNL     1      -9.733   9.919  66.853  1.00  0.00    -0.236 A  
HETATM   14  C   UNL     1     -10.666  10.265  67.844  1.00  0.00    -0.264 A  
HETATM   15  C   UNL     1     -10.934  11.589  68.194  1.00  0.00    -0.279 A  
HETATM   16  F   UNL     1     -11.358   9.316  68.495  1.00  0.00    -0.065 F  
HETATM   17  C   UNL     1     -10.282  12.644  67.558  1.00  0.00    -0.215 A  
HETATM   18  C   UNL     1      -9.043  10.988  66.259  1.00  0.00    -0.196 A  
HETATM   19  C   UNL     1      -9.316  12.323  66.597  1.00  0.00    -0.228 A  
BRANCH  17  20
HETATM   20  N   UNL     1     -10.554  13.989  67.896  1.00  0.00    -0.242 N  
HETATM   21  C   UNL     1     -10.058  14.634  69.072  1.00  0.00    -0.209 C  
HETATM   22  C   UNL     1     -11.080  15.725  69.289  1.00  0.00    -0.297 C  
HETATM   23  O   UNL     1     -11.537  16.019  67.962  1.00  0.00    -0.265 OA 
HETATM   24  O   UNL     1     -11.861  14.771  66.100  1.00  0.00    -0.311 OA 
HETATM   25  C   UNL     1     -11.350  14.889  67.199  1.00  0.00    -0.343 C  
BRANCH  22  26
HETATM   26  C   UNL     1     -12.264  15.293  70.162  1.00  0.00    -0.364 C  
HETATM   27  H   UNL     1     -12.802  13.745  71.306  1.00  0.00     0.000 HD 
HETATM   28  O   UNL     1     -12.068  14.012  70.765  1.00  0.00    -0.331 OA 
ENDBRANCH  22  26
ENDBRANCH  17  20
ENDBRANCH  10  13
ENDBRANCH   5   7
TORSDOF 4
ENDMDL
MODEL       85
REMARK 921   NORMALIZED FREE ENERGY PREDICTED BY IDOCK:   -4.19 KCAL/MOL
REMARK 922        TOTAL FREE ENERGY PREDICTED BY IDOCK:   -5.92 KCAL/MOL
REMARK 923 INTER-LIGAND FREE ENERGY PREDICTED BY IDOCK:   -5.57 KCAL/MOL
REMARK 924 INTRA-LIGAND FREE ENERGY PREDICTED BY IDOCK:   -0.35 KCAL/MOL
REMARK 927      BINDING AFFINITY PREDICTED BY RF-SCORE:    0.00 PKD
ROOT
HETATM    1  C   UNL     1     -11.278  14.634  64.641  1.00  0.00    -0.346 C  
HETATM    2  N   UNL     1     -11.535  14.108  65.955  1.00  0.00    -0.334 NA 
HETATM    3  N   UNL     1     -12.191  14.794  66.896  1.00  0.00    -0.114 NA 
HETATM    4  N   UNL     1     -12.134  14.021  67.973  1.00  0.00    -0.338 NA 
HETATM    5  C   UNL     1     -11.428  12.892  67.618  1.00  0.00    -0.334 A  
HETATM    6  N   UNL     1     -11.043  12.918  66.325  1.00  0.00    -0.281 NA 
ENDROOT
BRANCH   5   7
HETATM    7  C   UNL     1     -11.070  11.815  68.540  1.00  0.00    -0.239 A  
HETATM    8  N   UNL     1      -9.819  11.296  68.478  1.00  0.00    -0.192 NA 
HETATM    9  C   UNL     1      -9.541  10.255  69.302  1.00  0.00    -0.224 A  
HETATM   10  C   UNL     1     -10.443   9.649  70.188  1.00  0.00    -0.321 A  
HETATM   11  C   UNL     1     -12.029  11.316  69.413  1.00  0.00    -0.410 A  
HETATM   12  C   UNL     1     -11.716  10.231  70.225  1.00  0.00    -0.388 A  
BRANCH  10  13
HETATM   13  C   UNL     1     -10.078   8.493  71.033  1.00  0.00    -0.257 A  
HETATM   14  C   UNL     1      -8.887   7.770  70.855  1.00  0.00    -0.142 A  
HETATM   15  C   UNL     1      -8.561   6.656  71.631  1.00  0.00    -0.123 A  
HETATM   16  F   UNL     1      -8.007   8.122  69.904  1.00  0.00    -0.098 F  
HETATM   17  C   UNL     1      -9.422   6.201  72.627  1.00  0.00    -0.145 A  
HETATM   18  C   UNL     1     -10.911   8.058  72.077  1.00  0.00    -0.342 A  
HETATM   19  C   UNL     1     -10.595   6.931  72.852  1.00  0.00    -0.290 A  
BRANCH  17  20
HETATM   20  N   UNL     1      -9.108   5.068  73.410  1.00  0.00    -0.121 N  
HETATM   21  C   UNL     1      -8.144   5.069  74.467  1.00  0.00    -0.098 C  
HETATM   22  C   UNL     1      -7.735   3.616  74.523  1.00  0.00    -0.062 C  
HETATM   23  O   UNL     1      -8.912   2.924  74.085  1.00  0.00    -0.078 OA 
HETATM   24  O   UNL     1     -10.545   3.393  72.587  1.00  0.00    -0.134 OA 
HETATM   25  C   UNL     1      -9.626   3.786  73.285  1.00  0.00    -0.112 C  
BRANCH  22  26
HETATM   26  C   UNL     1      -6.558   3.273  73.602  1.00  0.00    -0.030 C  
HETATM   27  H   UNL     1      -5.173   4.221  72.517  1.00  0.00     0.000 HD 
HETATM   28  O   UNL     1      -5.903   4.434  73.088  1.00  0.00    -0.011 OA 
ENDBRANCH  22  26
ENDBRANCH  17  20
ENDBRANCH  10  13
ENDBRANCH   5   7
TORSDOF 4
ENDMDL
MODEL       86
REMARK 921   NORMALIZED FREE ENERGY PREDICTED BY IDOCK:   -4.17 KCAL/MOL
REMARK 922        TOTAL FREE ENERGY PREDICTED BY IDOCK:   -5.90 KCAL/MOL
REMARK 923 INTER-LIGAND FREE ENERGY PREDICTED BY IDOCK:   -5.45 KCAL/MOL
REMARK 924 INTRA-LIGAND FREE ENERGY PREDICTED BY IDOCK:   -0.45 KCAL/MOL
REMARK 927      BINDING AFFINITY PREDICTED BY RF-SCORE:    0.00 PKD
ROOT
HETATM    1  C   UNL     1      -6.231  20.377  69.089  1.00  0.00    -0.310 C  
HETATM    2  N   UNL     1      -7.164  19.391  68.611  1.00  0.00    -0.324 NA 
HETATM    3  N   UNL     1      -8.452  19.664  68.379  1.00  0.00    -0.336 NA 
HETATM    4  N   UNL     1      -8.985  18.493  68.052  1.00  0.00    -0.294 NA 
HETATM    5  C   UNL     1      -7.973  17.560  68.113  1.00  0.00    -0.250 A  
HETATM    6  N   UNL     1      -6.791  18.114  68.457  1.00  0.00    -0.230 NA 
ENDROOT
BRANCH   5   7
HETATM    7  C   UNL     1      -8.155  16.126  67.899  1.00  0.00    -0.145 A  
HETATM    8  N   UNL     1      -8.901  15.716  66.844  1.00  0.00    -0.229 NA 
HETATM    9  C   UNL     1      -9.104  14.380  66.714  1.00  0.00    -0.257 A  
HETATM   10  C   UNL     1      -8.637  13.392  67.591  1.00  0.00    -0.193 A  
HETATM   11  C   UNL     1      -7.608  15.225  68.806  1.00  0.00    -0.139 A  
HETATM   12  C   UNL     1      -7.859  13.865  68.654  1.00  0.00    -0.120 A  
BRANCH  10  13
HETATM   13  C   UNL     1      -8.926  11.955  67.402  1.00  0.00    -0.173 A  
HETATM   14  C   UNL     1      -7.931  10.967  67.466  1.00  0.00    -0.115 A  
HETATM   15  C   UNL     1      -8.200   9.614  67.251  1.00  0.00    -0.114 A  
HETATM   16  F   UNL     1      -6.656  11.294  67.729  1.00  0.00    -0.062 F  
HETATM   17  C   UNL     1      -9.490   9.180  66.949  1.00  0.00    -0.171 A  
HETATM   18  C   UNL     1     -10.231  11.499  67.151  1.00  0.00    -0.233 A  
HETATM   19  C   UNL     1     -10.507  10.142  66.921  1.00  0.00    -0.286 A  
BRANCH  17  20
HETATM   20  N   UNL     1      -9.772   7.815  66.717  1.00  0.00    -0.210 N  
HETATM   21  C   UNL     1     -10.906   7.131  67.255  1.00  0.00    -0.312 C  
HETATM   22  C   UNL     1     -10.431   5.697  67.273  1.00  0.00    -0.258 C  
HETATM   23  O   UNL     1      -9.509   5.641  66.175  1.00  0.00    -0.158 OA 
HETATM   24  O   UNL     1      -8.044   7.116  65.277  1.00  0.00    -0.125 OA 
HETATM   25  C   UNL     1      -9.016   6.911  65.983  1.00  0.00    -0.105 C  
BRANCH  22  26
HETATM   26  C   UNL     1      -9.717   5.302  68.571  1.00  0.00    -0.143 C  
HETATM   27  H   UNL     1      -9.562   5.945  70.457  1.00  0.00     0.000 HD 
HETATM   28  O   UNL     1     -10.004   6.190  69.652  1.00  0.00    -0.158 OA 
ENDBRANCH  22  26
ENDBRANCH  17  20
ENDBRANCH  10  13
ENDBRANCH   5   7
TORSDOF 4
ENDMDL
MODEL       87
REMARK 921   NORMALIZED FREE ENERGY PREDICTED BY IDOCK:   -4.13 KCAL/MOL
REMARK 922        TOTAL FREE ENERGY PREDICTED BY IDOCK:   -5.84 KCAL/MOL
REMARK 923 INTER-LIGAND FREE ENERGY PREDICTED BY IDOCK:   -5.07 KCAL/MOL
REMARK 924 INTRA-LIGAND FREE ENERGY PREDICTED BY IDOCK:   -0.77 KCAL/MOL
REMARK 927      BINDING AFFINITY PREDICTED BY RF-SCORE:    0.00 PKD
ROOT
HETATM    1  C   UNL     1      -6.289  20.288  69.387  1.00  0.00    -0.289 C  
HETATM    2  N   UNL     1      -7.190  19.266  68.927  1.00  0.00    -0.347 NA 
HETATM    3  N   UNL     1      -8.489  19.490  68.704  1.00  0.00    -0.354 NA 
HETATM    4  N   UNL     1      -8.984  18.299  68.393  1.00  0.00    -0.304 NA 
HETATM    5  C   UNL     1      -7.939  17.402  68.453  1.00  0.00    -0.259 A  
HETATM    6  N   UNL     1      -6.774  18.001  68.782  1.00  0.00    -0.239 NA 
ENDROOT
BRANCH   5   7
HETATM    7  C   UNL     1      -8.072  15.961  68.255  1.00  0.00    -0.144 A  
HETATM    8  N   UNL     1      -7.308  15.129  69.004  1.00  0.00    -0.142 NA 
HETATM    9  C   UNL     1      -7.409  13.800  68.749  1.00  0.00    -0.103 A  
HETATM   10  C   UNL     1      -8.209  13.216  67.756  1.00  0.00    -0.168 A  
HETATM   11  C   UNL     1      -8.931  15.482  67.272  1.00  0.00    -0.216 A  
HETATM   12  C   UNL     1      -8.989  14.115  67.020  1.00  0.00    -0.251 A  
BRANCH  10  13
HETATM   13  C   UNL     1      -8.242  11.758  67.513  1.00  0.00    -0.152 A  
HETATM   14  C   UNL     1      -9.163  10.906  68.143  1.00  0.00    -0.158 A  
HETATM   15  C   UNL     1      -9.170   9.525  67.940  1.00  0.00    -0.134 A  
HETATM   16  F   UNL     1     -10.082  11.396  68.991  1.00  0.00    -0.205 F  
HETATM   17  C   UNL     1      -8.240   8.921  67.096  1.00  0.00    -0.103 A  
HETATM   18  C   UNL     1      -7.346  11.145  66.623  1.00  0.00    -0.145 A  
HETATM   19  C   UNL     1      -7.339   9.755  66.424  1.00  0.00    -0.095 A  
BRANCH  17  20
HETATM   20  N   UNL     1      -8.229   7.523  66.893  1.00  0.00    -0.122 N  
HETATM   21  C   UNL     1      -8.832   6.874  65.770  1.00  0.00    -0.067 C  
HETATM   22  C   UNL     1      -9.107   5.492  66.314  1.00  0.00    -0.146 C  
HETATM   23  O   UNL     1      -8.069   5.307  67.287  1.00  0.00    -0.100 OA 
HETATM   24  O   UNL     1      -6.991   6.694  68.717  1.00  0.00    -0.074 OA 
HETATM   25  C   UNL     1      -7.685   6.554  67.725  1.00  0.00    -0.107 C  
BRANCH  22  26
HETATM   26  C   UNL     1     -10.478   5.357  66.987  1.00  0.00    -0.257 C  
HETATM   27  H   UNL     1     -12.125   6.452  67.275  1.00  0.00     0.000 HD 
HETATM   28  O   UNL     1     -11.275   6.536  66.858  1.00  0.00    -0.387 OA 
ENDBRANCH  22  26
ENDBRANCH  17  20
ENDBRANCH  10  13
ENDBRANCH   5   7
TORSDOF 4
ENDMDL
MODEL       88
REMARK 921   NORMALIZED FREE ENERGY PREDICTED BY IDOCK:   -3.95 KCAL/MOL
REMARK 922        TOTAL FREE ENERGY PREDICTED BY IDOCK:   -5.63 KCAL/MOL
REMARK 923 INTER-LIGAND FREE ENERGY PREDICTED BY IDOCK:   -4.90 KCAL/MOL
REMARK 924 INTRA-LIGAND FREE ENERGY PREDICTED BY IDOCK:   -0.73 KCAL/MOL
REMARK 927      BINDING AFFINITY PREDICTED BY RF-SCORE:    0.00 PKD
ROOT
HETATM    1  C   UNL     1      -9.437   3.711  64.791  1.00  0.00    -0.160 C  
HETATM    2  N   UNL     1      -9.603   4.837  65.672  1.00  0.00    -0.169 NA 
HETATM    3  N   UNL     1     -10.461   4.835  66.697  1.00  0.00    -0.224 NA 
HETATM    4  N   UNL     1     -10.391   6.065  67.191  1.00  0.00    -0.199 NA 
HETATM    5  C   UNL     1      -9.482   6.756  66.419  1.00  0.00    -0.119 A  
HETATM    6  N   UNL     1      -8.953   5.986  65.445  1.00  0.00    -0.041 NA 
ENDROOT
BRANCH   5   7
HETATM    7  C   UNL     1      -9.168   8.174  66.580  1.00  0.00    -0.180 A  
HETATM    8  N   UNL     1      -8.173   8.708  65.830  1.00  0.00    -0.116 NA 
HETATM    9  C   UNL     1      -7.864  10.011  66.052  1.00  0.00    -0.119 A  
HETATM   10  C   UNL     1      -8.461  10.842  67.009  1.00  0.00    -0.128 A  
HETATM   11  C   UNL     1      -9.854   8.923  67.529  1.00  0.00    -0.237 A  
HETATM   12  C   UNL     1      -9.492  10.248  67.747  1.00  0.00    -0.163 A  
BRANCH  10  13
HETATM   13  C   UNL     1      -8.048  12.246  67.217  1.00  0.00    -0.182 A  
HETATM   14  C   UNL     1      -6.819  12.596  67.798  1.00  0.00    -0.128 A  
HETATM   15  C   UNL     1      -6.447  13.922  68.027  1.00  0.00    -0.147 A  
HETATM   16  F   UNL     1      -5.944  11.650  68.175  1.00  0.00    -0.046 F  
HETATM   17  C   UNL     1      -7.298  14.973  67.690  1.00  0.00    -0.188 A  
HETATM   18  C   UNL     1      -8.874  13.315  66.831  1.00  0.00    -0.186 A  
HETATM   19  C   UNL     1      -8.511  14.650  67.070  1.00  0.00    -0.237 A  
BRANCH  17  20
HETATM   20  N   UNL     1      -6.937  16.318  67.928  1.00  0.00    -0.131 N  
HETATM   21  C   UNL     1      -7.460  17.108  68.999  1.00  0.00    -0.203 C  
HETATM   22  C   UNL     1      -7.299  18.512  68.465  1.00  0.00    -0.295 C  
HETATM   23  O   UNL     1      -6.153  18.409  67.608  1.00  0.00    -0.173 OA 
HETATM   24  O   UNL     1      -5.340  16.781  66.260  1.00  0.00    -0.328 OA 
HETATM   25  C   UNL     1      -6.071  17.104  67.180  1.00  0.00    -0.162 C  
BRANCH  22  26
HETATM   26  C   UNL     1      -8.507  19.006  67.660  1.00  0.00    -0.288 C  
HETATM   27  H   UNL     1     -10.413  19.518  67.972  1.00  0.00     0.000 HD 
HETATM   28  O   UNL     1      -9.664  19.212  68.471  1.00  0.00    -0.354 OA 
ENDBRANCH  22  26
ENDBRANCH  17  20
ENDBRANCH  10  13
ENDBRANCH   5   7
TORSDOF 4
ENDMDL
MODEL       89
REMARK 921   NORMALIZED FREE ENERGY PREDICTED BY IDOCK:   -3.90 KCAL/MOL
REMARK 922        TOTAL FREE ENERGY PREDICTED BY IDOCK:   -5.56 KCAL/MOL
REMARK 923 INTER-LIGAND FREE ENERGY PREDICTED BY IDOCK:   -5.22 KCAL/MOL
REMARK 924 INTRA-LIGAND FREE ENERGY PREDICTED BY IDOCK:   -0.34 KCAL/MOL
REMARK 927      BINDING AFFINITY PREDICTED BY RF-SCORE:    0.00 PKD
ROOT
HETATM    1  C   UNL     1     -10.739  17.672  68.089  1.00  0.00    -0.307 C  
HETATM    2  N   UNL     1     -11.017  16.339  68.553  1.00  0.00    -0.329 NA 
HETATM    3  N   UNL     1     -11.645  16.088  69.707  1.00  0.00    -0.318 NA 
HETATM    4  N   UNL     1     -11.620  14.766  69.819  1.00  0.00    -0.281 NA 
HETATM    5  C   UNL     1     -10.961  14.282  68.709  1.00  0.00    -0.255 A  
HETATM    6  N   UNL     1     -10.575  15.272  67.875  1.00  0.00    -0.254 NA 
ENDROOT
BRANCH   5   7
HETATM    7  C   UNL     1     -10.648  12.873  68.480  1.00  0.00    -0.253 A  
HETATM    8  N   UNL     1      -9.441  12.553  67.954  1.00  0.00    -0.190 NA 
HETATM    9  C   UNL     1      -9.209  11.241  67.694  1.00  0.00    -0.156 A  
HETATM   10  C   UNL     1     -10.120  10.195  67.892  1.00  0.00    -0.207 A  
HETATM   11  C   UNL     1     -11.609  11.906  68.755  1.00  0.00    -0.366 A  
HETATM   12  C   UNL     1     -11.345  10.575  68.450  1.00  0.00    -0.328 A  
BRANCH  10  13
HETATM   13  C   UNL     1      -9.807   8.790  67.553  1.00  0.00    -0.232 A  
HETATM   14  C   UNL     1      -8.493   8.327  67.377  1.00  0.00    -0.125 A  
HETATM   15  C   UNL     1      -8.202   7.009  67.022  1.00  0.00    -0.117 A  
HETATM   16  F   UNL     1      -7.448   9.155  67.536  1.00  0.00    -0.084 F  
HETATM   17  C   UNL     1      -9.222   6.082  66.813  1.00  0.00    -0.136 A  
HETATM   18  C   UNL     1     -10.823   7.833  67.394  1.00  0.00    -0.207 A  
HETATM   19  C   UNL     1     -10.538   6.509  67.024  1.00  0.00    -0.402 A  
BRANCH  17  20
HETATM   20  N   UNL     1      -8.940   4.749  66.441  1.00  0.00    -0.112 N  
HETATM   21  C   UNL     1      -8.324   3.790  67.306  1.00  0.00    -0.098 C  
HETATM   22  C   UNL     1      -7.692   2.836  66.321  1.00  0.00    -0.077 C  
HETATM   23  O   UNL     1      -8.558   2.917  65.180  1.00  0.00    -0.097 OA 
HETATM   24  O   UNL     1      -9.768   4.586  64.243  1.00  0.00    -0.090 OA 
HETATM   25  C   UNL     1      -9.165   4.152  65.208  1.00  0.00    -0.152 C  
BRANCH  22  26
HETATM   26  C   UNL     1      -6.265   3.223  65.917  1.00  0.00    -0.027 C  
HETATM   27  H   UNL     1      -4.941   2.796  64.482  1.00  0.00     0.000 HD 
HETATM   28  O   UNL     1      -5.825   2.556  64.733  1.00  0.00    -0.016 OA 
ENDBRANCH  22  26
ENDBRANCH  17  20
ENDBRANCH  10  13
ENDBRANCH   5   7
TORSDOF 4
ENDMDL
MODEL       90
REMARK 921   NORMALIZED FREE ENERGY PREDICTED BY IDOCK:   -3.89 KCAL/MOL
REMARK 922        TOTAL FREE ENERGY PREDICTED BY IDOCK:   -5.55 KCAL/MOL
REMARK 923 INTER-LIGAND FREE ENERGY PREDICTED BY IDOCK:   -5.19 KCAL/MOL
REMARK 924 INTRA-LIGAND FREE ENERGY PREDICTED BY IDOCK:   -0.37 KCAL/MOL
REMARK 927      BINDING AFFINITY PREDICTED BY RF-SCORE:    0.00 PKD
ROOT
HETATM    1  C   UNL     1      -6.285   4.640  71.643  1.00  0.00    -0.021 C  
HETATM    2  N   UNL     1      -7.044   5.378  70.669  1.00  0.00    -0.059 NA 
HETATM    3  N   UNL     1      -7.562   4.814  69.573  1.00  0.00    -0.059 NA 
HETATM    4  N   UNL     1      -8.090   5.826  68.896  1.00  0.00    -0.101 NA 
HETATM    5  C   UNL     1      -7.853   6.967  69.631  1.00  0.00    -0.119 A  
HETATM    6  N   UNL     1      -7.193   6.705  70.779  1.00  0.00    -0.069 NA 
ENDROOT
BRANCH   5   7
HETATM    7  C   UNL     1      -8.206   8.318  69.200  1.00  0.00    -0.121 A  
HETATM    8  N   UNL     1      -7.253   9.282  69.239  1.00  0.00    -0.064 NA 
HETATM    9  C   UNL     1      -7.632  10.539  68.894  1.00  0.00    -0.108 A  
HETATM   10  C   UNL     1      -8.928  10.932  68.532  1.00  0.00    -0.157 A  
HETATM   11  C   UNL     1      -9.513   8.593  68.814  1.00  0.00    -0.143 A  
HETATM   12  C   UNL     1      -9.871   9.899  68.492  1.00  0.00    -0.168 A  
BRANCH  10  13
HETATM   13  C   UNL     1      -9.274  12.330  68.200  1.00  0.00    -0.197 A  
HETATM   14  C   UNL     1      -8.331  13.249  67.712  1.00  0.00    -0.171 A  
HETATM   15  C   UNL     1      -8.651  14.579  67.433  1.00  0.00    -0.213 A  
HETATM   16  F   UNL     1      -7.058  12.878  67.502  1.00  0.00    -0.109 F  
HETATM   17  C   UNL     1      -9.942  15.063  67.640  1.00  0.00    -0.225 A  
HETATM   18  C   UNL     1     -10.583  12.816  68.353  1.00  0.00    -0.262 A  
HETATM   19  C   UNL     1     -10.910  14.155  68.087  1.00  0.00    -0.258 A  
BRANCH  17  20
HETATM   20  N   UNL     1     -10.275  16.410  67.374  1.00  0.00    -0.275 N  
HETATM   21  C   UNL     1     -10.380  16.962  66.059  1.00  0.00    -0.325 C  
HETATM   22  C   UNL     1     -10.113  18.427  66.309  1.00  0.00    -0.392 C  
HETATM   23  O   UNL     1     -10.592  18.627  67.646  1.00  0.00    -0.407 OA 
HETATM   24  O   UNL     1     -10.635  17.338  69.508  1.00  0.00    -0.264 OA 
HETATM   25  C   UNL     1     -10.517  17.417  68.298  1.00  0.00    -0.385 C  
BRANCH  22  26
HETATM   26  C   UNL     1      -8.630  18.805  66.227  1.00  0.00    -0.234 C  
HETATM   27  H   UNL     1      -7.296  19.886  67.249  1.00  0.00     0.000 HD 
HETATM   28  O   UNL     1      -8.215  19.652  67.300  1.00  0.00    -0.278 OA 
ENDBRANCH  22  26
ENDBRANCH  17  20
ENDBRANCH  10  13
ENDBRANCH   5   7
TORSDOF 4
ENDMDL
MODEL       91
REMARK 921   NORMALIZED FREE ENERGY PREDICTED BY IDOCK:   -3.81 KCAL/MOL
REMARK 922        TOTAL FREE ENERGY PREDICTED BY IDOCK:   -5.45 KCAL/MOL
REMARK 923 INTER-LIGAND FREE ENERGY PREDICTED BY IDOCK:   -4.74 KCAL/MOL
REMARK 924 INTRA-LIGAND FREE ENERGY PREDICTED BY IDOCK:   -0.71 KCAL/MOL
REMARK 927      BINDING AFFINITY PREDICTED BY RF-SCORE:    0.00 PKD
ROOT
HETATM    1  C   UNL     1      -9.789  17.880  65.987  1.00  0.00    -0.170 C  
HETATM    2  N   UNL     1      -8.988  16.792  66.481  1.00  0.00    -0.253 NA 
HETATM    3  N   UNL     1      -7.655  16.769  66.382  1.00  0.00    -0.296 NA 
HETATM    4  N   UNL     1      -7.306  15.579  66.853  1.00  0.00    -0.158 NA 
HETATM    5  C   UNL     1      -8.469  14.934  67.213  1.00  0.00    -0.208 A  
HETATM    6  N   UNL     1      -9.562  15.696  66.995  1.00  0.00    -0.220 NA 
ENDROOT
BRANCH   5   7
HETATM    7  C   UNL     1      -8.535  13.560  67.708  1.00  0.00    -0.184 A  
HETATM    8  N   UNL     1      -9.747  12.959  67.797  1.00  0.00    -0.208 NA 
HETATM    9  C   UNL     1      -9.779  11.708  68.322  1.00  0.00    -0.197 A  
HETATM   10  C   UNL     1      -8.674  10.998  68.810  1.00  0.00    -0.146 A  
HETATM   11  C   UNL     1      -7.370  12.927  68.125  1.00  0.00    -0.119 A  
HETATM   12  C   UNL     1      -7.445  11.655  68.682  1.00  0.00    -0.117 A  
BRANCH  10  13
HETATM   13  C   UNL     1      -8.791   9.648  69.400  1.00  0.00    -0.183 A  
HETATM   14  C   UNL     1      -8.834   8.481  68.621  1.00  0.00    -0.136 A  
HETATM   15  C   UNL     1      -8.981   7.209  69.178  1.00  0.00    -0.138 A  
HETATM   16  F   UNL     1      -8.747   8.547  67.282  1.00  0.00    -0.124 F  
HETATM   17  C   UNL     1      -9.102   7.042  70.556  1.00  0.00    -0.156 A  
HETATM   18  C   UNL     1      -8.859   9.461  70.791  1.00  0.00    -0.233 A  
HETATM   19  C   UNL     1      -9.019   8.187  71.357  1.00  0.00    -0.188 A  
BRANCH  17  20
HETATM   20  N   UNL     1      -9.264   5.761  71.131  1.00  0.00    -0.152 N  
HETATM   21  C   UNL     1     -10.390   4.912  70.888  1.00  0.00    -0.155 C  
HETATM   22  C   UNL     1     -10.410   4.052  72.129  1.00  0.00    -0.085 C  
HETATM   23  O   UNL     1      -9.030   3.994  72.513  1.00  0.00    -0.107 OA 
HETATM   24  O   UNL     1      -7.305   5.457  72.401  1.00  0.00    -0.090 OA 
HETATM   25  C   UNL     1      -8.416   5.126  72.028  1.00  0.00    -0.126 C  
BRANCH  22  26
HETATM   26  C   UNL     1     -11.243   4.641  73.272  1.00  0.00    -0.325 C  
HETATM   27  H   UNL     1     -11.187   4.759  75.267  1.00  0.00     0.000 HD 
HETATM   28  O   UNL     1     -10.670   4.394  74.558  1.00  0.00    -0.270 OA 
ENDBRANCH  22  26
ENDBRANCH  17  20
ENDBRANCH  10  13
ENDBRANCH   5   7
TORSDOF 4
ENDMDL
MODEL       92
REMARK 921   NORMALIZED FREE ENERGY PREDICTED BY IDOCK:   -3.80 KCAL/MOL
REMARK 922        TOTAL FREE ENERGY PREDICTED BY IDOCK:   -5.44 KCAL/MOL
REMARK 923 INTER-LIGAND FREE ENERGY PREDICTED BY IDOCK:   -4.71 KCAL/MOL
REMARK 924 INTRA-LIGAND FREE ENERGY PREDICTED BY IDOCK:   -0.73 KCAL/MOL
REMARK 927      BINDING AFFINITY PREDICTED BY RF-SCORE:    0.00 PKD
ROOT
HETATM    1  C   UNL     1      -9.523  19.752  68.836  1.00  0.00    -0.238 C  
HETATM    2  N   UNL     1      -8.772  18.525  68.808  1.00  0.00    -0.285 NA 
HETATM    3  N   UNL     1      -7.436  18.493  68.779  1.00  0.00    -0.295 NA 
HETATM    4  N   UNL     1      -7.137  17.205  68.660  1.00  0.00    -0.206 NA 
HETATM    5  C   UNL     1      -8.331  16.518  68.617  1.00  0.00    -0.235 A  
HETATM    6  N   UNL     1      -9.395  17.342  68.723  1.00  0.00    -0.270 NA 
ENDROOT
BRANCH   5   7
HETATM    7  C   UNL     1      -8.450  15.077  68.412  1.00  0.00    -0.153 A  
HETATM    8  N   UNL     1      -7.331  14.315  68.488  1.00  0.00    -0.110 NA 
HETATM    9  C   UNL     1      -7.466  12.990  68.228  1.00  0.00    -0.128 A  
HETATM   10  C   UNL     1      -8.655  12.347  67.857  1.00  0.00    -0.171 A  
HETATM   11  C   UNL     1      -9.688  14.531  68.094  1.00  0.00    -0.219 A  
HETATM   12  C   UNL     1      -9.784  13.173  67.808  1.00  0.00    -0.218 A  
BRANCH  10  13
HETATM   13  C   UNL     1      -8.720  10.901  67.556  1.00  0.00    -0.130 A  
HETATM   14  C   UNL     1      -8.678   9.916  68.556  1.00  0.00    -0.121 A  
HETATM   15  C   UNL     1      -8.703   8.551  68.267  1.00  0.00    -0.143 A  
HETATM   16  F   UNL     1      -8.598  10.258  69.852  1.00  0.00    -0.187 F  
HETATM   17  C   UNL     1      -8.763   8.098  66.951  1.00  0.00    -0.129 A  
HETATM   18  C   UNL     1      -8.835  10.434  66.237  1.00  0.00    -0.166 A  
HETATM   19  C   UNL     1      -8.848   9.062  65.939  1.00  0.00    -0.210 A  
BRANCH  17  20
HETATM   20  N   UNL     1      -8.775   6.719  66.646  1.00  0.00    -0.122 N  
HETATM   21  C   UNL     1      -7.642   5.999  66.153  1.00  0.00    -0.087 C  
HETATM   22  C   UNL     1      -8.293   4.848  65.422  1.00  0.00    -0.125 C  
HETATM   23  O   UNL     1      -9.516   4.648  66.144  1.00  0.00    -0.143 OA 
HETATM   24  O   UNL     1     -10.958   6.034  67.207  1.00  0.00    -0.313 OA 
HETATM   25  C   UNL     1      -9.852   5.846  66.731  1.00  0.00    -0.160 C  
BRANCH  22  26
HETATM   26  C   UNL     1      -8.602   5.149  63.951  1.00  0.00    -0.085 C  
HETATM   27  H   UNL     1      -7.899   4.676  62.141  1.00  0.00     0.000 HD 
HETATM   28  O   UNL     1      -7.707   4.490  63.053  1.00  0.00    -0.062 OA 
ENDBRANCH  22  26
ENDBRANCH  17  20
ENDBRANCH  10  13
ENDBRANCH   5   7
TORSDOF 4
ENDMDL
MODEL       93
REMARK 921   NORMALIZED FREE ENERGY PREDICTED BY IDOCK:   -3.78 KCAL/MOL
REMARK 922        TOTAL FREE ENERGY PREDICTED BY IDOCK:   -5.41 KCAL/MOL
REMARK 923 INTER-LIGAND FREE ENERGY PREDICTED BY IDOCK:   -4.84 KCAL/MOL
REMARK 924 INTRA-LIGAND FREE ENERGY PREDICTED BY IDOCK:   -0.58 KCAL/MOL
REMARK 927      BINDING AFFINITY PREDICTED BY RF-SCORE:    0.00 PKD
ROOT
HETATM    1  C   UNL     1      -6.344  20.869  68.326  1.00  0.00    -0.269 C  
HETATM    2  N   UNL     1      -7.219  19.744  68.128  1.00  0.00    -0.287 NA 
HETATM    3  N   UNL     1      -8.534  19.874  67.925  1.00  0.00    -0.305 NA 
HETATM    4  N   UNL     1      -8.990  18.629  67.889  1.00  0.00    -0.282 NA 
HETATM    5  C   UNL     1      -7.907  17.799  68.082  1.00  0.00    -0.264 A  
HETATM    6  N   UNL     1      -6.756  18.491  68.226  1.00  0.00    -0.219 NA 
ENDROOT
BRANCH   5   7
HETATM    7  C   UNL     1      -7.987  16.344  68.190  1.00  0.00    -0.160 A  
HETATM    8  N   UNL     1      -8.958  15.694  67.504  1.00  0.00    -0.189 NA 
HETATM    9  C   UNL     1      -9.045  14.351  67.678  1.00  0.00    -0.194 A  
HETATM   10  C   UNL     1      -8.240  13.583  68.530  1.00  0.00    -0.104 A  
HETATM   11  C   UNL     1      -7.107  15.671  69.031  1.00  0.00    -0.151 A  
HETATM   12  C   UNL     1      -7.243  14.298  69.205  1.00  0.00    -0.104 A  
BRANCH  10  13
HETATM   13  C   UNL     1      -8.415  12.125  68.694  1.00  0.00    -0.005 A  
HETATM   14  C   UNL     1      -9.678  11.519  68.791  1.00  0.00    -0.126 A  
HETATM   15  C   UNL     1      -9.841  10.146  68.982  1.00  0.00    -0.211 A  
HETATM   16  F   UNL     1     -10.799  12.255  68.713  1.00  0.00    -0.221 F  
HETATM   17  C   UNL     1      -8.736   9.304  69.097  1.00  0.00    -0.139 A  
HETATM   18  C   UNL     1      -7.311  11.258  68.756  1.00  0.00    -0.109 A  
HETATM   19  C   UNL     1      -7.467   9.878  68.962  1.00  0.00    -0.083 A  
BRANCH  17  20
HETATM   20  N   UNL     1      -8.889   7.914  69.304  1.00  0.00    -0.141 N  
HETATM   21  C   UNL     1      -8.721   6.931  68.278  1.00  0.00    -0.123 C  
HETATM   22  C   UNL     1      -9.569   5.791  68.793  1.00  0.00    -0.127 C  
HETATM   23  O   UNL     1      -9.499   5.944  70.217  1.00  0.00    -0.157 OA 
HETATM   24  O   UNL     1      -9.371   7.732  71.601  1.00  0.00    -0.136 OA 
HETATM   25  C   UNL     1      -9.248   7.271  70.480  1.00  0.00    -0.158 C  
BRANCH  22  26
HETATM   26  C   UNL     1     -11.031   5.857  68.336  1.00  0.00    -0.178 C  
HETATM   27  H   UNL     1     -12.107   6.655  66.852  1.00  0.00     0.000 HD 
HETATM   28  O   UNL     1     -11.201   6.614  67.136  1.00  0.00    -0.392 OA 
ENDBRANCH  22  26
ENDBRANCH  17  20
ENDBRANCH  10  13
ENDBRANCH   5   7
TORSDOF 4
ENDMDL
MODEL       94
REMARK 921   NORMALIZED FREE ENERGY PREDICTED BY IDOCK:   -3.75 KCAL/MOL
REMARK 922        TOTAL FREE ENERGY PREDICTED BY IDOCK:   -5.38 KCAL/MOL
REMARK 923 INTER-LIGAND FREE ENERGY PREDICTED BY IDOCK:   -4.84 KCAL/MOL
REMARK 924 INTRA-LIGAND FREE ENERGY PREDICTED BY IDOCK:   -0.54 KCAL/MOL
REMARK 927      BINDING AFFINITY PREDICTED BY RF-SCORE:    0.00 PKD
ROOT
HETATM    1  C   UNL     1     -12.449  16.942  72.373  1.00  0.00     1.251 C  
HETATM    2  N   UNL     1     -12.831  15.628  71.929  1.00  0.00    -0.425 NA 
HETATM    3  N   UNL     1     -13.972  15.039  72.302  1.00  0.00    -0.473 NA 
HETATM    4  N   UNL     1     -13.908  13.824  71.772  1.00  0.00    -0.357 NA 
HETATM    5  C   UNL     1     -12.706  13.742  71.101  1.00  0.00    -0.362 A  
HETATM    6  N   UNL     1     -12.002  14.891  71.177  1.00  0.00    -0.315 NA 
ENDROOT
BRANCH   5   7
HETATM    7  C   UNL     1     -12.208  12.538  70.440  1.00  0.00    -0.286 A  
HETATM    8  N   UNL     1     -12.538  11.329  70.956  1.00  0.00    -0.399 NA 
HETATM    9  C   UNL     1     -12.005  10.235  70.356  1.00  0.00    -0.303 A  
HETATM   10  C   UNL     1     -11.118  10.247  69.271  1.00  0.00    -0.293 A  
HETATM   11  C   UNL     1     -11.369  12.661  69.338  1.00  0.00    -0.273 A  
HETATM   12  C   UNL     1     -10.820  11.518  68.765  1.00  0.00    -0.258 A  
BRANCH  10  13
HETATM   13  C   UNL     1     -10.550   9.013  68.690  1.00  0.00    -0.194 A  
HETATM   14  C   UNL     1     -10.035   7.971  69.478  1.00  0.00    -0.186 A  
HETATM   15  C   UNL     1      -9.466   6.821  68.927  1.00  0.00    -0.128 A  
HETATM   16  F   UNL     1     -10.060   8.049  70.818  1.00  0.00    -0.189 F  
HETATM   17  C   UNL     1      -9.375   6.660  67.545  1.00  0.00    -0.123 A  
HETATM   18  C   UNL     1     -10.503   8.813  67.300  1.00  0.00    -0.353 A  
HETATM   19  C   UNL     1      -9.920   7.666  66.739  1.00  0.00    -0.317 A  
BRANCH  17  20
HETATM   20  N   UNL     1      -8.790   5.507  66.976  1.00  0.00    -0.111 N  
HETATM   21  C   UNL     1      -7.400   5.184  67.075  1.00  0.00    -0.082 C  
HETATM   22  C   UNL     1      -7.190   4.314  65.858  1.00  0.00    -0.072 C  
HETATM   23  O   UNL     1      -8.471   3.695  65.670  1.00  0.00    -0.107 OA 
HETATM   24  O   UNL     1     -10.607   4.374  65.995  1.00  0.00    -0.211 OA 
HETATM   25  C   UNL     1      -9.419   4.530  66.216  1.00  0.00    -0.172 C  
BRANCH  22  26
HETATM   26  C   UNL     1      -6.804   5.100  64.600  1.00  0.00    -0.049 C  
HETATM   27  H   UNL     1      -7.035   4.973  62.619  1.00  0.00     0.000 HD 
HETATM   28  O   UNL     1      -7.275   4.486  63.399  1.00  0.00    -0.047 OA 
ENDBRANCH  22  26
ENDBRANCH  17  20
ENDBRANCH  10  13
ENDBRANCH   5   7
TORSDOF 4
ENDMDL
MODEL       95
REMARK 921   NORMALIZED FREE ENERGY PREDICTED BY IDOCK:   -3.61 KCAL/MOL
REMARK 922        TOTAL FREE ENERGY PREDICTED BY IDOCK:   -5.21 KCAL/MOL
REMARK 923 INTER-LIGAND FREE ENERGY PREDICTED BY IDOCK:   -4.80 KCAL/MOL
REMARK 924 INTRA-LIGAND FREE ENERGY PREDICTED BY IDOCK:   -0.40 KCAL/MOL
REMARK 927      BINDING AFFINITY PREDICTED BY RF-SCORE:    0.00 PKD
ROOT
HETATM    1  C   UNL     1      -7.677   1.614  66.299  1.00  0.00    -0.066 C  
HETATM    2  N   UNL     1      -7.878   2.916  65.722  1.00  0.00    -0.081 NA 
HETATM    3  N   UNL     1      -7.336   3.285  64.557  1.00  0.00    -0.069 NA 
HETATM    4  N   UNL     1      -7.669   4.563  64.426  1.00  0.00    -0.076 NA 
HETATM    5  C   UNL     1      -8.402   4.903  65.542  1.00  0.00    -0.123 A  
HETATM    6  N   UNL     1      -8.561   3.860  66.383  1.00  0.00    -0.109 NA 
ENDROOT
BRANCH   5   7
HETATM    7  C   UNL     1      -8.898   6.248  65.828  1.00  0.00    -0.111 A  
HETATM    8  N   UNL     1      -8.410   7.287  65.109  1.00  0.00    -0.113 NA 
HETATM    9  C   UNL     1      -8.843   8.529  65.445  1.00  0.00    -0.130 A  
HETATM   10  C   UNL     1      -9.725   8.832  66.491  1.00  0.00    -0.328 A  
HETATM   11  C   UNL     1      -9.811   6.434  66.861  1.00  0.00    -0.202 A  
HETATM   12  C   UNL     1     -10.212   7.724  67.194  1.00  0.00    -0.365 A  
BRANCH  10  13
HETATM   13  C   UNL     1     -10.127  10.216  66.821  1.00  0.00    -0.277 A  
HETATM   14  C   UNL     1      -9.198  11.255  66.991  1.00  0.00    -0.165 A  
HETATM   15  C   UNL     1      -9.578  12.553  67.338  1.00  0.00    -0.192 A  
HETATM   16  F   UNL     1      -7.884  11.031  66.835  1.00  0.00    -0.115 F  
HETATM   17  C   UNL     1     -10.918  12.876  67.543  1.00  0.00    -0.255 A  
HETATM   18  C   UNL     1     -11.478  10.567  66.976  1.00  0.00     0.342 A  
HETATM   19  C   UNL     1     -11.866  11.867  67.338  1.00  0.00    -0.239 A  
BRANCH  17  20
HETATM   20  N   UNL     1     -11.312  14.183  67.906  1.00  0.00    -0.279 N  
HETATM   21  C   UNL     1     -11.307  15.298  67.010  1.00  0.00    -0.230 C  
HETATM   22  C   UNL     1     -11.173  16.466  67.959  1.00  0.00    -0.235 C  
HETATM   23  O   UNL     1     -11.813  15.995  69.154  1.00  0.00    -0.356 OA 
HETATM   24  O   UNL     1     -11.975  13.971  70.156  1.00  0.00    -0.291 OA 
HETATM   25  C   UNL     1     -11.727  14.622  69.156  1.00  0.00    -0.309 C  
BRANCH  22  26
HETATM   26  C   UNL     1      -9.720  16.847  68.265  1.00  0.00    -0.256 C  
HETATM   27  H   UNL     1      -7.894  16.047  68.121  1.00  0.00     0.000 HD 
HETATM   28  O   UNL     1      -8.795  15.811  67.932  1.00  0.00    -0.173 OA 
ENDBRANCH  22  26
ENDBRANCH  17  20
ENDBRANCH  10  13
ENDBRANCH   5   7
TORSDOF 4
ENDMDL
MODEL       96
REMARK 921   NORMALIZED FREE ENERGY PREDICTED BY IDOCK:   -3.59 KCAL/MOL
REMARK 922        TOTAL FREE ENERGY PREDICTED BY IDOCK:   -5.18 KCAL/MOL
REMARK 923 INTER-LIGAND FREE ENERGY PREDICTED BY IDOCK:   -4.45 KCAL/MOL
REMARK 924 INTRA-LIGAND FREE ENERGY PREDICTED BY IDOCK:   -0.73 KCAL/MOL
REMARK 927      BINDING AFFINITY PREDICTED BY RF-SCORE:    0.00 PKD
ROOT
HETATM    1  C   UNL     1      -9.445   3.666  69.569  1.00  0.00    -0.176 C  
HETATM    2  N   UNL     1      -9.461   4.842  68.741  1.00  0.00    -0.138 NA 
HETATM    3  N   UNL     1      -9.438   4.789  67.405  1.00  0.00    -0.138 NA 
HETATM    4  N   UNL     1      -9.364   6.058  67.024  1.00  0.00    -0.119 NA 
HETATM    5  C   UNL     1      -9.341   6.821  68.171  1.00  0.00    -0.122 A  
HETATM    6  N   UNL     1      -9.414   6.064  69.287  1.00  0.00    -0.132 NA 
ENDROOT
BRANCH   5   7
HETATM    7  C   UNL     1      -9.185   8.274  68.196  1.00  0.00    -0.134 A  
HETATM    8  N   UNL     1      -9.804   9.010  67.241  1.00  0.00    -0.181 NA 
HETATM    9  C   UNL     1      -9.585  10.349  67.255  1.00  0.00    -0.156 A  
HETATM   10  C   UNL     1      -8.750  11.032  68.150  1.00  0.00    -0.141 A  
HETATM   11  C   UNL     1      -8.368   8.858  69.158  1.00  0.00    -0.124 A  
HETATM   12  C   UNL     1      -8.146  10.231  69.125  1.00  0.00    -0.138 A  
BRANCH  10  13
HETATM   13  C   UNL     1      -8.534  12.493  68.083  1.00  0.00    -0.180 A  
HETATM   14  C   UNL     1      -9.470  13.421  68.568  1.00  0.00    -0.121 A  
HETATM   15  C   UNL     1      -9.280  14.801  68.471  1.00  0.00    -0.194 A  
HETATM   16  F   UNL     1     -10.610  13.007  69.142  1.00  0.00    -0.213 F  
HETATM   17  C   UNL     1      -8.137  15.325  67.870  1.00  0.00    -0.138 A  
HETATM   18  C   UNL     1      -7.361  13.034  67.529  1.00  0.00    -0.154 A  
HETATM   19  C   UNL     1      -7.170  14.420  67.417  1.00  0.00    -0.148 A  
BRANCH  17  20
HETATM   20  N   UNL     1      -7.941  16.720  67.755  1.00  0.00    -0.175 N  
HETATM   21  C   UNL     1      -8.387  17.501  66.643  1.00  0.00    -0.261 C  
HETATM   22  C   UNL     1      -7.436  18.674  66.679  1.00  0.00    -0.234 C  
HETATM   23  O   UNL     1      -7.113  18.795  68.071  1.00  0.00    -0.230 OA 
HETATM   24  O   UNL     1      -6.848  17.306  69.757  1.00  0.00    -0.077 OA 
HETATM   25  C   UNL     1      -7.275  17.554  68.643  1.00  0.00    -0.246 C  
BRANCH  22  26
HETATM   26  C   UNL     1      -6.155  18.453  65.866  1.00  0.00    -0.212 C  
HETATM   27  H   UNL     1      -4.943  19.487  64.660  1.00  0.00     0.000 HD 
HETATM   28  O   UNL     1      -5.737  19.624  65.164  1.00  0.00    -0.169 OA 
ENDBRANCH  22  26
ENDBRANCH  17  20
ENDBRANCH  10  13
ENDBRANCH   5   7
TORSDOF 4
ENDMDL
MODEL       97
REMARK 921   NORMALIZED FREE ENERGY PREDICTED BY IDOCK:   -3.56 KCAL/MOL
REMARK 922        TOTAL FREE ENERGY PREDICTED BY IDOCK:   -5.14 KCAL/MOL
REMARK 923 INTER-LIGAND FREE ENERGY PREDICTED BY IDOCK:   -4.54 KCAL/MOL
REMARK 924 INTRA-LIGAND FREE ENERGY PREDICTED BY IDOCK:   -0.61 KCAL/MOL
REMARK 927      BINDING AFFINITY PREDICTED BY RF-SCORE:    0.00 PKD
ROOT
HETATM    1  C   UNL     1      -8.657  18.390  68.930  1.00  0.00    -0.138 C  
HETATM    2  N   UNL     1      -9.148  17.161  68.366  1.00  0.00    -0.255 NA 
HETATM    3  N   UNL     1     -10.220  17.105  67.570  1.00  0.00    -0.313 NA 
HETATM    4  N   UNL     1     -10.402  15.810  67.348  1.00  0.00    -0.276 NA 
HETATM    5  C   UNL     1      -9.416  15.141  68.040  1.00  0.00    -0.199 A  
HETATM    6  N   UNL     1      -8.590  15.987  68.692  1.00  0.00    -0.194 NA 
ENDROOT
BRANCH   5   7
HETATM    7  C   UNL     1      -9.304  13.687  68.125  1.00  0.00    -0.212 A  
HETATM    8  N   UNL     1      -8.088  13.117  67.938  1.00  0.00    -0.145 NA 
HETATM    9  C   UNL     1      -8.032  11.761  67.958  1.00  0.00    -0.141 A  
HETATM   10  C   UNL     1      -9.125  10.899  68.123  1.00  0.00    -0.155 A  
HETATM   11  C   UNL     1     -10.447  12.924  68.339  1.00  0.00    -0.260 A  
HETATM   12  C   UNL     1     -10.355  11.536  68.327  1.00  0.00    -0.211 A  
BRANCH  10  13
HETATM   13  C   UNL     1      -8.992   9.428  68.101  1.00  0.00    -0.128 A  
HETATM   14  C   UNL     1      -9.522   8.634  67.071  1.00  0.00    -0.171 A  
HETATM   15  C   UNL     1      -9.427   7.241  67.071  1.00  0.00    -0.196 A  
HETATM   16  F   UNL     1     -10.164   9.195  66.034  1.00  0.00    -0.367 F  
HETATM   17  C   UNL     1      -8.798   6.566  68.115  1.00  0.00    -0.115 A  
HETATM   18  C   UNL     1      -8.313   8.740  69.120  1.00  0.00    -0.125 A  
HETATM   19  C   UNL     1      -8.224   7.339  69.132  1.00  0.00    -0.122 A  
BRANCH  17  20
HETATM   20  N   UNL     1      -8.707   5.157  68.132  1.00  0.00    -0.102 N  
HETATM   21  C   UNL     1      -9.839   4.283  68.145  1.00  0.00    -0.041 C  
HETATM   22  C   UNL     1      -9.269   3.037  68.782  1.00  0.00    -0.166 C  
HETATM   23  O   UNL     1      -7.888   3.071  68.395  1.00  0.00    -0.058 OA 
HETATM   24  O   UNL     1      -6.390   4.737  68.061  1.00  0.00    -0.034 OA 
HETATM   25  C   UNL     1      -7.552   4.387  68.172  1.00  0.00    -0.068 C  
BRANCH  22  26
HETATM   26  C   UNL     1      -9.379   3.021  70.310  1.00  0.00    -0.158 C  
HETATM   27  H   UNL     1      -9.959   4.236  71.788  1.00  0.00     0.000 HD 
HETATM   28  O   UNL     1      -9.890   4.246  70.840  1.00  0.00    -0.188 OA 
ENDBRANCH  22  26
ENDBRANCH  17  20
ENDBRANCH  10  13
ENDBRANCH   5   7
TORSDOF 4
ENDMDL
MODEL       98
REMARK 921   NORMALIZED FREE ENERGY PREDICTED BY IDOCK:   -3.55 KCAL/MOL
REMARK 922        TOTAL FREE ENERGY PREDICTED BY IDOCK:   -5.13 KCAL/MOL
REMARK 923 INTER-LIGAND FREE ENERGY PREDICTED BY IDOCK:   -4.93 KCAL/MOL
REMARK 924 INTRA-LIGAND FREE ENERGY PREDICTED BY IDOCK:   -0.20 KCAL/MOL
REMARK 927      BINDING AFFINITY PREDICTED BY RF-SCORE:    0.00 PKD
ROOT
HETATM    1  C   UNL     1      -7.348  20.741  64.712  1.00  0.00     0.504 C  
HETATM    2  N   UNL     1      -7.027  19.408  65.148  1.00  0.00    -0.419 NA 
HETATM    3  N   UNL     1      -5.915  18.770  64.770  1.00  0.00    -0.349 NA 
HETATM    4  N   UNL     1      -6.035  17.556  65.293  1.00  0.00     0.226 NA 
HETATM    5  C   UNL     1      -7.238  17.525  65.965  1.00  0.00    -0.263 A  
HETATM    6  N   UNL     1      -7.888  18.707  65.897  1.00  0.00    -0.491 NA 
ENDROOT
BRANCH   5   7
HETATM    7  C   UNL     1      -7.790  16.342  66.620  1.00  0.00    -0.281 A  
HETATM    8  N   UNL     1      -7.191  15.884  67.746  1.00  0.00    -0.135 NA 
HETATM    9  C   UNL     1      -7.690  14.746  68.292  1.00  0.00    -0.120 A  
HETATM   10  C   UNL     1      -8.749  13.986  67.775  1.00  0.00    -0.185 A  
HETATM   11  C   UNL     1      -8.875  15.688  66.048  1.00  0.00    -0.209 A  
HETATM   12  C   UNL     1      -9.343  14.509  66.620  1.00  0.00    -0.301 A  
BRANCH  10  13
HETATM   13  C   UNL     1      -9.217  12.735  68.407  1.00  0.00    -0.136 A  
HETATM   14  C   UNL     1      -8.344  11.701  68.780  1.00  0.00    -0.039 A  
HETATM   15  C   UNL     1      -8.792  10.505  69.344  1.00  0.00    -0.091 A  
HETATM   16  F   UNL     1      -7.020  11.821  68.592  1.00  0.00    -0.068 F  
HETATM   17  C   UNL     1     -10.150  10.279  69.557  1.00  0.00    -0.235 A  
HETATM   18  C   UNL     1     -10.578  12.518  68.677  1.00  0.00    -0.240 A  
HETATM   19  C   UNL     1     -11.037  11.313  69.232  1.00  0.00    -0.314 A  
BRANCH  17  20
HETATM   20  N   UNL     1     -10.617   9.068  70.115  1.00  0.00    -0.216 N  
HETATM   21  C   UNL     1      -9.870   7.848  70.113  1.00  0.00    -0.184 C  
HETATM   22  C   UNL     1     -10.963   6.809  70.204  1.00  0.00    -0.292 C  
HETATM   23  O   UNL     1     -12.000   7.483  70.930  1.00  0.00    -0.298 OA 
HETATM   24  O   UNL     1     -12.721   9.629  71.011  1.00  0.00    -0.314 OA 
HETATM   25  C   UNL     1     -11.847   8.833  70.713  1.00  0.00    -0.178 C  
BRANCH  22  26
HETATM   26  C   UNL     1     -11.494   6.354  68.840  1.00  0.00    -0.060 C  
HETATM   27  H   UNL     1     -11.119   6.664  66.902  1.00  0.00     0.000 HD 
HETATM   28  O   UNL     1     -10.790   6.946  67.747  1.00  0.00    -0.242 OA 
ENDBRANCH  22  26
ENDBRANCH  17  20
ENDBRANCH  10  13
ENDBRANCH   5   7
TORSDOF 4
ENDMDL
MODEL       99
REMARK 921   NORMALIZED FREE ENERGY PREDICTED BY IDOCK:   -3.47 KCAL/MOL
REMARK 922        TOTAL FREE ENERGY PREDICTED BY IDOCK:   -5.03 KCAL/MOL
REMARK 923 INTER-LIGAND FREE ENERGY PREDICTED BY IDOCK:   -4.56 KCAL/MOL
REMARK 924 INTRA-LIGAND FREE ENERGY PREDICTED BY IDOCK:   -0.47 KCAL/MOL
REMARK 927      BINDING AFFINITY PREDICTED BY RF-SCORE:    0.00 PKD
ROOT
HETATM    1  C   UNL     1     -10.632  17.304  68.099  1.00  0.00    -0.386 C  
HETATM    2  N   UNL     1     -10.662  15.901  67.780  1.00  0.00    -0.312 NA 
HETATM    3  N   UNL     1     -11.274  15.417  66.694  1.00  0.00    -0.238 NA 
HETATM    4  N   UNL     1     -11.164  14.100  66.810  1.00  0.00    -0.313 NA 
HETATM    5  C   UNL     1     -10.484  13.856  67.984  1.00  0.00    -0.243 A  
HETATM    6  N   UNL     1     -10.140  14.996  68.619  1.00  0.00    -0.226 NA 
ENDROOT
BRANCH   5   7
HETATM    7  C   UNL     1     -10.220  12.525  68.526  1.00  0.00    -0.203 A  
HETATM    8  N   UNL     1      -8.935  12.100  68.608  1.00  0.00    -0.069 NA 
HETATM    9  C   UNL     1      -8.730  10.835  69.055  1.00  0.00    -0.130 A  
HETATM   10  C   UNL     1      -9.731   9.920  69.408  1.00  0.00    -0.228 A  
HETATM   11  C   UNL     1     -11.286  11.711  68.892  1.00  0.00    -0.328 A  
HETATM   12  C   UNL     1     -11.039  10.411  69.320  1.00  0.00    -0.303 A  
BRANCH  10  13
HETATM   13  C   UNL     1      -9.432   8.543  69.856  1.00  0.00    -0.163 A  
HETATM   14  C   UNL     1      -8.746   8.267  71.049  1.00  0.00    -0.146 A  
HETATM   15  C   UNL     1      -8.432   6.968  71.453  1.00  0.00    -0.114 A  
HETATM   16  F   UNL     1      -8.347   9.263  71.857  1.00  0.00    -0.075 F  
HETATM   17  C   UNL     1      -8.786   5.871  70.670  1.00  0.00    -0.137 A  
HETATM   18  C   UNL     1      -9.831   7.427  69.103  1.00  0.00    -0.168 A  
HETATM   19  C   UNL     1      -9.508   6.118  69.496  1.00  0.00    -0.156 A  
BRANCH  17  20
HETATM   20  N   UNL     1      -8.463   4.552  71.062  1.00  0.00    -0.092 N  
HETATM   21  C   UNL     1      -7.187   3.943  70.842  1.00  0.00    -0.037 C  
HETATM   22  C   UNL     1      -7.537   2.474  70.828  1.00  0.00    -0.036 C  
HETATM   23  O   UNL     1      -8.678   2.397  71.694  1.00  0.00    -0.065 OA 
HETATM   24  O   UNL     1     -10.415   3.783  72.129  1.00  0.00    -0.102 OA 
HETATM   25  C   UNL     1      -9.296   3.627  71.675  1.00  0.00    -0.133 C  
BRANCH  22  26
HETATM   26  C   UNL     1      -7.904   1.943  69.438  1.00  0.00    -0.042 C  
HETATM   27  H   UNL     1      -9.542   1.483  68.389  1.00  0.00     0.000 HD 
HETATM   28  O   UNL     1      -9.314   1.812  69.251  1.00  0.00    -0.115 OA 
ENDBRANCH  22  26
ENDBRANCH  17  20
ENDBRANCH  10  13
ENDBRANCH   5   7
TORSDOF 4
ENDMDL
MODEL      100
REMARK 921   NORMALIZED FREE ENERGY PREDICTED BY IDOCK:   -3.35 KCAL/MOL
REMARK 922        TOTAL FREE ENERGY PREDICTED BY IDOCK:   -4.89 KCAL/MOL
REMARK 923 INTER-LIGAND FREE ENERGY PREDICTED BY IDOCK:   -4.32 KCAL/MOL
REMARK 924 INTRA-LIGAND FREE ENERGY PREDICTED BY IDOCK:   -0.57 KCAL/MOL
REMARK 927      BINDING AFFINITY PREDICTED BY RF-SCORE:    0.00 PKD
ROOT
HETATM    1  C   UNL     1      -8.741   1.607  64.818  1.00  0.00    -0.102 C  
HETATM    2  N   UNL     1      -8.846   2.621  65.832  1.00  0.00    -0.132 NA 
HETATM    3  N   UNL     1      -9.244   2.360  67.082  1.00  0.00    -0.131 NA 
HETATM    4  N   UNL     1      -9.302   3.549  67.668  1.00  0.00    -0.196 NA 
HETATM    5  C   UNL     1      -8.935   4.481  66.721  1.00  0.00    -0.115 A  
HETATM    6  N   UNL     1      -8.626   3.910  65.538  1.00  0.00    -0.109 NA 
ENDROOT
BRANCH   5   7
HETATM    7  C   UNL     1      -8.942   5.926  66.936  1.00  0.00    -0.115 A  
HETATM    8  N   UNL     1      -8.686   6.741  65.883  1.00  0.00    -0.153 NA 
HETATM    9  C   UNL     1      -8.635   8.074  66.132  1.00  0.00    -0.148 A  
HETATM   10  C   UNL     1      -8.792   8.679  67.387  1.00  0.00    -0.140 A  
HETATM   11  C   UNL     1      -9.154   6.426  68.216  1.00  0.00    -0.114 A  
HETATM   12  C   UNL     1      -9.068   7.797  68.438  1.00  0.00    -0.131 A  
BRANCH  10  13
HETATM   13  C   UNL     1      -8.690  10.140  67.587  1.00  0.00    -0.121 A  
HETATM   14  C   UNL     1      -7.492  10.772  67.958  1.00  0.00    -0.090 A  
HETATM   15  C   UNL     1      -7.407  12.148  68.182  1.00  0.00    -0.103 A  
HETATM   16  F   UNL     1      -6.365  10.062  68.126  1.00  0.00    -0.052 F  
HETATM   17  C   UNL     1      -8.529  12.965  68.054  1.00  0.00    -0.178 A  
HETATM   18  C   UNL     1      -9.800  10.981  67.408  1.00  0.00    -0.197 A  
HETATM   19  C   UNL     1      -9.724  12.363  67.644  1.00  0.00    -0.195 A  
BRANCH  17  20
HETATM   20  N   UNL     1      -8.457  14.356  68.291  1.00  0.00    -0.157 N  
HETATM   21  C   UNL     1      -9.462  15.102  68.983  1.00  0.00    -0.221 C  
HETATM   22  C   UNL     1      -9.261  16.493  68.430  1.00  0.00    -0.222 C  
HETATM   23  O   UNL     1      -7.860  16.525  68.120  1.00  0.00    -0.160 OA 
HETATM   24  O   UNL     1      -6.381  14.982  67.371  1.00  0.00    -0.308 OA 
HETATM   25  C   UNL     1      -7.458  15.230  67.884  1.00  0.00    -0.144 C  
BRANCH  22  26
HETATM   26  C   UNL     1     -10.079  16.776  67.165  1.00  0.00    -0.282 C  
HETATM   27  H   UNL     1     -11.530  15.920  66.091  1.00  0.00     0.000 HD 
HETATM   28  O   UNL     1     -11.023  15.744  66.874  1.00  0.00    -0.300 OA 
ENDBRANCH  22  26
ENDBRANCH  17  20
ENDBRANCH  10  13
ENDBRANCH   5   7
TORSDOF 4
ENDMDL
MODEL      101
REMARK 921   NORMALIZED FREE ENERGY PREDICTED BY IDOCK:   -3.31 KCAL/MOL
REMARK 922        TOTAL FREE ENERGY PREDICTED BY IDOCK:   -4.84 KCAL/MOL
REMARK 923 INTER-LIGAND FREE ENERGY PREDICTED BY IDOCK:   -4.47 KCAL/MOL
REMARK 924 INTRA-LIGAND FREE ENERGY PREDICTED BY IDOCK:   -0.37 KCAL/MOL
REMARK 927      BINDING AFFINITY PREDICTED BY RF-SCORE:    0.00 PKD
ROOT
HETATM    1  C   UNL     1     -10.876  17.236  67.104  1.00  0.00    -0.085 C  
HETATM    2  N   UNL     1     -10.425  16.006  66.509  1.00  0.00    -0.302 NA 
HETATM    3  N   UNL     1     -10.431  15.794  65.189  1.00  0.00    -0.483 NA 
HETATM    4  N   UNL     1     -10.044  14.532  65.053  1.00  0.00    -0.361 NA 
HETATM    5  C   UNL     1      -9.827  14.041  66.323  1.00  0.00    -0.305 A  
HETATM    6  N   UNL     1     -10.053  14.972  67.274  1.00  0.00    -0.235 NA 
ENDROOT
BRANCH   5   7
HETATM    7  C   UNL     1      -9.462  12.658  66.624  1.00  0.00    -0.244 A  
HETATM    8  N   UNL     1     -10.038  11.663  65.906  1.00  0.00    -0.222 NA 
HETATM    9  C   UNL     1      -9.727  10.389  66.256  1.00  0.00    -0.205 A  
HETATM   10  C   UNL     1      -8.888  10.013  67.314  1.00  0.00    -0.141 A  
HETATM   11  C   UNL     1      -8.581  12.395  67.667  1.00  0.00    -0.172 A  
HETATM   12  C   UNL     1      -8.306  11.077  68.014  1.00  0.00    -0.125 A  
BRANCH  10  13
HETATM   13  C   UNL     1      -8.620   8.601  67.657  1.00  0.00    -0.136 A  
HETATM   14  C   UNL     1      -9.578   7.587  67.493  1.00  0.00    -0.142 A  
HETATM   15  C   UNL     1      -9.335   6.259  67.853  1.00  0.00    -0.114 A  
HETATM   16  F   UNL     1     -10.790   7.864  66.987  1.00  0.00    -0.399 F  
HETATM   17  C   UNL     1      -8.115   5.879  68.407  1.00  0.00    -0.109 A  
HETATM   18  C   UNL     1      -7.375   8.195  68.166  1.00  0.00    -0.096 A  
HETATM   19  C   UNL     1      -7.130   6.865  68.541  1.00  0.00    -0.082 A  
BRANCH  17  20
HETATM   20  N   UNL     1      -7.863   4.542  68.786  1.00  0.00    -0.071 N  
HETATM   21  C   UNL     1      -7.072   3.629  68.019  1.00  0.00    -0.051 C  
HETATM   22  C   UNL     1      -7.618   2.291  68.458  1.00  0.00    -0.050 C  
HETATM   23  O   UNL     1      -8.053   2.537  69.803  1.00  0.00    -0.042 OA 
HETATM   24  O   UNL     1      -8.956   4.324  70.861  1.00  0.00    -0.100 OA 
HETATM   25  C   UNL     1      -8.344   3.878  69.906  1.00  0.00    -0.056 C  
BRANCH  22  26
HETATM   26  C   UNL     1      -8.799   1.802  67.612  1.00  0.00    -0.121 C  
HETATM   27  H   UNL     1     -10.702   1.247  67.867  1.00  0.00     0.000 HD 
HETATM   28  O   UNL     1      -9.970   1.550  68.391  1.00  0.00    -0.028 OA 
ENDBRANCH  22  26
ENDBRANCH  17  20
ENDBRANCH  10  13
ENDBRANCH   5   7
TORSDOF 4
ENDMDL
MODEL      102
REMARK 921   NORMALIZED FREE ENERGY PREDICTED BY IDOCK:   -3.29 KCAL/MOL
REMARK 922        TOTAL FREE ENERGY PREDICTED BY IDOCK:   -4.81 KCAL/MOL
REMARK 923 INTER-LIGAND FREE ENERGY PREDICTED BY IDOCK:   -4.46 KCAL/MOL
REMARK 924 INTRA-LIGAND FREE ENERGY PREDICTED BY IDOCK:   -0.36 KCAL/MOL
REMARK 927      BINDING AFFINITY PREDICTED BY RF-SCORE:    0.00 PKD
ROOT
HETATM    1  C   UNL     1     -12.630  14.780  70.898  1.00  0.00    -0.336 C  
HETATM    2  N   UNL     1     -12.665  13.352  70.726  1.00  0.00    -0.269 NA 
HETATM    3  N   UNL     1     -13.386  12.544  71.510  1.00  0.00    -0.204 NA 
HETATM    4  N   UNL     1     -13.079  11.320  71.099  1.00  0.00    -0.245 NA 
HETATM    5  C   UNL     1     -12.168  11.458  70.074  1.00  0.00    -0.301 A  
HETATM    6  N   UNL     1     -11.895  12.754  69.808  1.00  0.00    -0.327 NA 
ENDROOT
BRANCH   5   7
HETATM    7  C   UNL     1     -11.513  10.344  69.393  1.00  0.00    -0.227 A  
HETATM    8  N   UNL     1     -10.970   9.354  70.143  1.00  0.00    -0.237 NA 
HETATM    9  C   UNL     1     -10.312   8.368  69.481  1.00  0.00    -0.219 A  
HETATM   10  C   UNL     1     -10.118   8.303  68.094  1.00  0.00    -0.238 A  
HETATM   11  C   UNL     1     -11.414  10.353  68.006  1.00  0.00    -0.161 A  
HETATM   12  C   UNL     1     -10.710   9.340  67.364  1.00  0.00    -0.263 A  
BRANCH  10  13
HETATM   13  C   UNL     1      -9.360   7.212  67.445  1.00  0.00    -0.144 A  
HETATM   14  C   UNL     1      -9.982   6.189  66.712  1.00  0.00    -0.172 A  
HETATM   15  C   UNL     1      -9.267   5.140  66.130  1.00  0.00    -0.153 A  
HETATM   16  F   UNL     1     -11.315   6.174  66.551  1.00  0.00    -0.351 F  
HETATM   17  C   UNL     1      -7.883   5.057  66.262  1.00  0.00    -0.099 A  
HETATM   18  C   UNL     1      -7.959   7.148  67.524  1.00  0.00    -0.113 A  
HETATM   19  C   UNL     1      -7.236   6.089  66.952  1.00  0.00    -0.071 A  
BRANCH  17  20
HETATM   20  N   UNL     1      -7.151   3.994  65.688  1.00  0.00    -0.062 N  
HETATM   21  C   UNL     1      -5.722   3.950  65.624  1.00  0.00    -0.022 C  
HETATM   22  C   UNL     1      -5.487   3.039  64.442  1.00  0.00    -0.009 C  
HETATM   23  O   UNL     1      -6.632   2.175  64.457  1.00  0.00    -0.022 OA 
HETATM   24  O   UNL     1      -8.808   2.461  65.019  1.00  0.00    -0.108 OA 
HETATM   25  C   UNL     1      -7.657   2.856  65.074  1.00  0.00    -0.076 C  
BRANCH  22  26
HETATM   26  C   UNL     1      -5.414   3.779  63.101  1.00  0.00    -0.012 C  
HETATM   27  H   UNL     1      -5.261   5.653  62.425  1.00  0.00     0.000 HD 
HETATM   28  O   UNL     1      -5.307   5.195  63.256  1.00  0.00    -0.012 OA 
ENDBRANCH  22  26
ENDBRANCH  17  20
ENDBRANCH  10  13
ENDBRANCH   5   7
TORSDOF 4
ENDMDL
MODEL      103
REMARK 921   NORMALIZED FREE ENERGY PREDICTED BY IDOCK:   -3.26 KCAL/MOL
REMARK 922        TOTAL FREE ENERGY PREDICTED BY IDOCK:   -4.78 KCAL/MOL
REMARK 923 INTER-LIGAND FREE ENERGY PREDICTED BY IDOCK:   -4.24 KCAL/MOL
REMARK 924 INTRA-LIGAND FREE ENERGY PREDICTED BY IDOCK:   -0.54 KCAL/MOL
REMARK 927      BINDING AFFINITY PREDICTED BY RF-SCORE:    0.00 PKD
ROOT
HETATM    1  C   UNL     1     -10.929  16.633  64.782  1.00  0.00    -0.109 C  
HETATM    2  N   UNL     1     -10.560  15.572  65.680  1.00  0.00    -0.350 NA 
HETATM    3  N   UNL     1     -10.225  15.785  66.957  1.00  0.00    -0.274 NA 
HETATM    4  N   UNL     1      -9.862  14.592  67.410  1.00  0.00    -0.225 NA 
HETATM    5  C   UNL     1      -9.995  13.708  66.360  1.00  0.00    -0.296 A  
HETATM    6  N   UNL     1     -10.453  14.311  65.243  1.00  0.00    -0.364 NA 
ENDROOT
BRANCH   5   7
HETATM    7  C   UNL     1      -9.622  12.296  66.415  1.00  0.00    -0.237 A  
HETATM    8  N   UNL     1     -10.516  11.371  65.988  1.00  0.00    -0.248 NA 
HETATM    9  C   UNL     1     -10.163  10.067  66.114  1.00  0.00    -0.213 A  
HETATM   10  C   UNL     1      -8.970   9.593  66.676  1.00  0.00    -0.166 A  
HETATM   11  C   UNL     1      -8.391  11.934  66.950  1.00  0.00    -0.169 A  
HETATM   12  C   UNL     1      -8.074  10.586  67.088  1.00  0.00    -0.120 A  
BRANCH  10  13
HETATM   13  C   UNL     1      -8.668   8.152  66.810  1.00  0.00    -0.145 A  
HETATM   14  C   UNL     1      -8.268   7.572  68.025  1.00  0.00    -0.124 A  
HETATM   15  C   UNL     1      -7.948   6.218  68.141  1.00  0.00    -0.108 A  
HETATM   16  F   UNL     1      -8.164   8.315  69.138  1.00  0.00    -0.113 F  
HETATM   17  C   UNL     1      -8.004   5.371  67.036  1.00  0.00    -0.101 A  
HETATM   18  C   UNL     1      -8.774   7.278  65.716  1.00  0.00    -0.129 A  
HETATM   19  C   UNL     1      -8.441   5.918  65.823  1.00  0.00    -0.148 A  
BRANCH  17  20
HETATM   20  N   UNL     1      -7.670   4.002  67.139  1.00  0.00    -0.084 N  
HETATM   21  C   UNL     1      -6.372   3.473  66.855  1.00  0.00    -0.036 C  
HETATM   22  C   UNL     1      -6.687   2.040  66.495  1.00  0.00    -0.038 C  
HETATM   23  O   UNL     1      -7.866   1.758  67.261  1.00  0.00    -0.063 OA 
HETATM   24  O   UNL     1      -9.654   2.991  67.905  1.00  0.00    -0.194 OA 
HETATM   25  C   UNL     1      -8.511   2.953  67.486  1.00  0.00    -0.089 C  
BRANCH  22  26
HETATM   26  C   UNL     1      -6.976   1.830  65.004  1.00  0.00    -0.043 C  
HETATM   27  H   UNL     1      -7.312   2.930  63.369  1.00  0.00     0.000 HD 
HETATM   28  O   UNL     1      -7.134   3.060  64.293  1.00  0.00    -0.053 OA 
ENDBRANCH  22  26
ENDBRANCH  17  20
ENDBRANCH  10  13
ENDBRANCH   5   7
TORSDOF 4
ENDMDL
MODEL      104
REMARK 921   NORMALIZED FREE ENERGY PREDICTED BY IDOCK:   -3.21 KCAL/MOL
REMARK 922        TOTAL FREE ENERGY PREDICTED BY IDOCK:   -4.71 KCAL/MOL
REMARK 923 INTER-LIGAND FREE ENERGY PREDICTED BY IDOCK:   -4.22 KCAL/MOL
REMARK 924 INTRA-LIGAND FREE ENERGY PREDICTED BY IDOCK:   -0.50 KCAL/MOL
REMARK 927      BINDING AFFINITY PREDICTED BY RF-SCORE:    0.00 PKD
ROOT
HETATM    1  C   UNL     1     -10.581  20.672  69.410  1.00  0.00     0.727 C  
HETATM    2  N   UNL     1     -10.494  19.680  68.372  1.00  0.00    -0.376 NA 
HETATM    3  N   UNL     1     -11.014  19.858  67.153  1.00  0.00    -0.276 NA 
HETATM    4  N   UNL     1     -10.815  18.701  66.534  1.00  0.00    -0.200 NA 
HETATM    5  C   UNL     1     -10.179  17.870  67.432  1.00  0.00    -0.360 A  
HETATM    6  N   UNL     1      -9.951  18.480  68.615  1.00  0.00    -0.375 NA 
ENDROOT
BRANCH   5   7
HETATM    7  C   UNL     1      -9.847  16.471  67.173  1.00  0.00    -0.255 A  
HETATM    8  N   UNL     1     -10.274  15.905  66.018  1.00  0.00    -0.312 NA 
HETATM    9  C   UNL     1     -10.005  14.587  65.840  1.00  0.00    -0.329 A  
HETATM   10  C   UNL     1      -9.353  13.754  66.759  1.00  0.00    -0.276 A  
HETATM   11  C   UNL     1      -9.154  15.744  68.134  1.00  0.00    -0.185 A  
HETATM   12  C   UNL     1      -8.919  14.388  67.929  1.00  0.00    -0.186 A  
BRANCH  10  13
HETATM   13  C   UNL     1      -9.123  12.315  66.509  1.00  0.00    -0.188 A  
HETATM   14  C   UNL     1     -10.171  11.384  66.423  1.00  0.00    -0.230 A  
HETATM   15  C   UNL     1      -9.950  10.020  66.223  1.00  0.00    -0.310 A  
HETATM   16  F   UNL     1     -11.449  11.777  66.544  1.00  0.00    -0.354 F  
HETATM   17  C   UNL     1      -8.656   9.514  66.108  1.00  0.00    -0.131 A  
HETATM   18  C   UNL     1      -7.827  11.800  66.337  1.00  0.00     0.099 A  
HETATM   19  C   UNL     1      -7.597  10.429  66.149  1.00  0.00    -0.130 A  
BRANCH  17  20
HETATM   20  N   UNL     1      -8.420   8.134  65.919  1.00  0.00    -0.134 N  
HETATM   21  C   UNL     1      -7.327   7.607  65.162  1.00  0.00    -0.076 C  
HETATM   22  C   UNL     1      -7.856   6.256  64.741  1.00  0.00    -0.110 C  
HETATM   23  O   UNL     1      -8.751   5.905  65.805  1.00  0.00    -0.147 OA 
HETATM   24  O   UNL     1     -10.136   7.090  67.149  1.00  0.00    -0.177 OA 
HETATM   25  C   UNL     1      -9.191   7.075  66.380  1.00  0.00    -0.149 C  
BRANCH  22  26
HETATM   26  C   UNL     1      -8.617   6.282  63.411  1.00  0.00     0.355 C  
HETATM   27  H   UNL     1      -8.682   7.372  61.737  1.00  0.00     0.000 HD 
HETATM   28  O   UNL     1      -8.210   7.356  62.561  1.00  0.00    -0.131 OA 
ENDBRANCH  22  26
ENDBRANCH  17  20
ENDBRANCH  10  13
ENDBRANCH   5   7
TORSDOF 4
ENDMDL
MODEL      105
REMARK 921   NORMALIZED FREE ENERGY PREDICTED BY IDOCK:   -3.18 KCAL/MOL
REMARK 922        TOTAL FREE ENERGY PREDICTED BY IDOCK:   -4.67 KCAL/MOL
REMARK 923 INTER-LIGAND FREE ENERGY PREDICTED BY IDOCK:   -4.29 KCAL/MOL
REMARK 924 INTRA-LIGAND FREE ENERGY PREDICTED BY IDOCK:   -0.38 KCAL/MOL
REMARK 927      BINDING AFFINITY PREDICTED BY RF-SCORE:    0.00 PKD
ROOT
HETATM    1  C   UNL     1     -10.996  17.081  65.179  1.00  0.00    -0.010 C  
HETATM    2  N   UNL     1     -10.652  16.160  66.230  1.00  0.00    -0.300 NA 
HETATM    3  N   UNL     1     -10.098  16.550  67.383  1.00  0.00    -0.272 NA 
HETATM    4  N   UNL     1      -9.847  15.418  68.030  1.00  0.00    -0.215 NA 
HETATM    5  C   UNL     1     -10.266  14.389  67.215  1.00  0.00    -0.252 A  
HETATM    6  N   UNL     1     -10.798  14.840  66.059  1.00  0.00    -0.310 NA 
ENDROOT
BRANCH   5   7
HETATM    7  C   UNL     1     -10.099  12.970  67.521  1.00  0.00    -0.218 A  
HETATM    8  N   UNL     1      -8.981  12.574  68.177  1.00  0.00    -0.197 NA 
HETATM    9  C   UNL     1      -8.827  11.242  68.387  1.00  0.00    -0.159 A  
HETATM   10  C   UNL     1      -9.706  10.239  67.957  1.00  0.00    -0.167 A  
HETATM   11  C   UNL     1     -11.057  12.059  67.088  1.00  0.00    -0.344 A  
HETATM   12  C   UNL     1     -10.852  10.700  67.298  1.00  0.00    -0.345 A  
BRANCH  10  13
HETATM   13  C   UNL     1      -9.455   8.802  68.194  1.00  0.00    -0.152 A  
HETATM   14  C   UNL     1      -9.659   8.193  69.443  1.00  0.00    -0.167 A  
HETATM   15  C   UNL     1      -9.386   6.843  69.674  1.00  0.00    -0.145 A  
HETATM   16  F   UNL     1     -10.120   8.903  70.485  1.00  0.00    -0.190 F  
HETATM   17  C   UNL     1      -8.883   6.031  68.660  1.00  0.00    -0.109 A  
HETATM   18  C   UNL     1      -9.000   7.960  67.166  1.00  0.00    -0.142 A  
HETATM   19  C   UNL     1      -8.712   6.605  67.395  1.00  0.00    -0.118 A  
BRANCH  17  20
HETATM   20  N   UNL     1      -8.592   4.667  68.886  1.00  0.00    -0.084 N  
HETATM   21  C   UNL     1      -8.382   4.099  70.182  1.00  0.00    -0.064 C  
HETATM   22  C   UNL     1      -7.525   2.896  69.864  1.00  0.00    -0.044 C  
HETATM   23  O   UNL     1      -7.941   2.534  68.540  1.00  0.00    -0.053 OA 
HETATM   24  O   UNL     1      -8.630   3.714  66.733  1.00  0.00    -0.104 OA 
HETATM   25  C   UNL     1      -8.427   3.670  67.934  1.00  0.00    -0.094 C  
BRANCH  22  26
HETATM   26  C   UNL     1      -6.021   3.191  69.873  1.00  0.00    -0.023 C  
HETATM   27  H   UNL     1      -4.319   2.342  69.260  1.00  0.00     0.000 HD 
HETATM   28  O   UNL     1      -5.252   2.159  69.255  1.00  0.00    -0.011 OA 
ENDBRANCH  22  26
ENDBRANCH  17  20
ENDBRANCH  10  13
ENDBRANCH   5   7
TORSDOF 4
ENDMDL
MODEL      106
REMARK 921   NORMALIZED FREE ENERGY PREDICTED BY IDOCK:   -3.16 KCAL/MOL
REMARK 922        TOTAL FREE ENERGY PREDICTED BY IDOCK:   -4.65 KCAL/MOL
REMARK 923 INTER-LIGAND FREE ENERGY PREDICTED BY IDOCK:   -4.12 KCAL/MOL
REMARK 924 INTRA-LIGAND FREE ENERGY PREDICTED BY IDOCK:   -0.52 KCAL/MOL
REMARK 927      BINDING AFFINITY PREDICTED BY RF-SCORE:    0.00 PKD
ROOT
HETATM    1  C   UNL     1     -11.478  16.953  70.763  1.00  0.00     0.700 C  
HETATM    2  N   UNL     1     -11.863  15.619  70.386  1.00  0.00    -0.341 NA 
HETATM    3  N   UNL     1     -12.937  15.004  70.890  1.00  0.00    -0.387 NA 
HETATM    4  N   UNL     1     -12.891  13.781  70.377  1.00  0.00    -0.173 NA 
HETATM    5  C   UNL     1     -11.768  13.722  69.581  1.00  0.00    -0.318 A  
HETATM    6  N   UNL     1     -11.097  14.893  69.560  1.00  0.00    -0.271 NA 
ENDROOT
BRANCH   5   7
HETATM    7  C   UNL     1     -11.305  12.521  68.889  1.00  0.00    -0.297 A  
HETATM    8  N   UNL     1     -10.497  11.659  69.554  1.00  0.00     0.097 NA 
HETATM    9  C   UNL     1     -10.033  10.588  68.862  1.00  0.00    -0.204 A  
HETATM   10  C   UNL     1     -10.290  10.313  67.511  1.00  0.00    -0.276 A  
HETATM   11  C   UNL     1     -11.657  12.319  67.559  1.00  0.00    -0.422 A  
HETATM   12  C   UNL     1     -11.141  11.224  66.874  1.00  0.00    -0.339 A  
BRANCH  10  13
HETATM   13  C   UNL     1      -9.722   9.141  66.813  1.00  0.00    -0.271 A  
HETATM   14  C   UNL     1      -8.955   9.255  65.642  1.00  0.00    -0.199 A  
HETATM   15  C   UNL     1      -8.450   8.145  64.963  1.00  0.00    -0.117 A  
HETATM   16  F   UNL     1      -8.685  10.460  65.114  1.00  0.00    -0.153 F  
HETATM   17  C   UNL     1      -8.696   6.852  65.422  1.00  0.00     0.028 A  
HETATM   18  C   UNL     1      -9.917   7.837  67.296  1.00  0.00    -0.277 A  
HETATM   19  C   UNL     1      -9.422   6.715  66.611  1.00  0.00    -0.201 A  
BRANCH  17  20
HETATM   20  N   UNL     1      -8.200   5.721  64.737  1.00  0.00    -0.135 N  
HETATM   21  C   UNL     1      -8.400   5.481  63.341  1.00  0.00    -0.078 C  
HETATM   22  C   UNL     1      -8.278   3.978  63.258  1.00  0.00    -0.087 C  
HETATM   23  O   UNL     1      -7.378   3.660  64.329  1.00  0.00    -0.064 OA 
HETATM   24  O   UNL     1      -7.018   4.529  66.389  1.00  0.00    -0.057 OA 
HETATM   25  C   UNL     1      -7.487   4.657  65.271  1.00  0.00    -0.077 C  
BRANCH  22  26
HETATM   26  C   UNL     1      -9.606   3.241  63.460  1.00  0.00    -0.113 C  
HETATM   27  H   UNL     1     -10.322   1.377  63.358  1.00  0.00     0.000 HD 
HETATM   28  O   UNL     1      -9.498   1.835  63.232  1.00  0.00    -0.091 OA 
ENDBRANCH  22  26
ENDBRANCH  17  20
ENDBRANCH  10  13
ENDBRANCH   5   7
TORSDOF 4
ENDMDL
MODEL      107
REMARK 921   NORMALIZED FREE ENERGY PREDICTED BY IDOCK:   -3.15 KCAL/MOL
REMARK 922        TOTAL FREE ENERGY PREDICTED BY IDOCK:   -4.64 KCAL/MOL
REMARK 923 INTER-LIGAND FREE ENERGY PREDICTED BY IDOCK:   -4.07 KCAL/MOL
REMARK 924 INTRA-LIGAND FREE ENERGY PREDICTED BY IDOCK:   -0.56 KCAL/MOL
REMARK 927      BINDING AFFINITY PREDICTED BY RF-SCORE:    0.00 PKD
ROOT
HETATM    1  C   UNL     1      -7.399  19.021  67.893  1.00  0.00    -0.245 C  
HETATM    2  N   UNL     1      -6.953  17.660  67.757  1.00  0.00    -0.178 NA 
HETATM    3  N   UNL     1      -5.980  17.297  66.915  1.00  0.00    -0.161 NA 
HETATM    4  N   UNL     1      -5.935  15.974  67.011  1.00  0.00    -0.328 NA 
HETATM    5  C   UNL     1      -6.904  15.604  67.918  1.00  0.00    -0.143 A  
HETATM    6  N   UNL     1      -7.563  16.670  68.421  1.00  0.00    -0.187 NA 
ENDROOT
BRANCH   5   7
HETATM    7  C   UNL     1      -7.239  14.222  68.256  1.00  0.00    -0.117 A  
HETATM    8  N   UNL     1      -6.547  13.611  69.248  1.00  0.00    -0.112 NA 
HETATM    9  C   UNL     1      -6.838  12.307  69.491  1.00  0.00     0.065 A  
HETATM   10  C   UNL     1      -7.767  11.531  68.785  1.00  0.00    -0.124 A  
HETATM   11  C   UNL     1      -8.212  13.555  67.521  1.00  0.00    -0.186 A  
HETATM   12  C   UNL     1      -8.465  12.212  67.781  1.00  0.00    -0.160 A  
BRANCH  10  13
HETATM   13  C   UNL     1      -8.008  10.104  69.086  1.00  0.00    -0.124 A  
HETATM   14  C   UNL     1      -8.210   9.142  68.083  1.00  0.00    -0.116 A  
HETATM   15  C   UNL     1      -8.473   7.801  68.370  1.00  0.00    -0.125 A  
HETATM   16  F   UNL     1      -8.169   9.485  66.786  1.00  0.00    -0.109 F  
HETATM   17  C   UNL     1      -8.557   7.355  69.687  1.00  0.00    -0.137 A  
HETATM   18  C   UNL     1      -8.040   9.631  70.408  1.00  0.00    -0.198 A  
HETATM   19  C   UNL     1      -8.317   8.287  70.704  1.00  0.00    -0.121 A  
BRANCH  17  20
HETATM   20  N   UNL     1      -8.835   6.003  69.990  1.00  0.00    -0.138 N  
HETATM   21  C   UNL     1      -7.933   4.924  69.731  1.00  0.00    -0.070 C  
HETATM   22  C   UNL     1      -8.873   3.747  69.617  1.00  0.00    -0.091 C  
HETATM   23  O   UNL     1      -9.963   4.110  70.476  1.00  0.00    -0.201 OA 
HETATM   24  O   UNL     1     -10.961   6.074  71.002  1.00  0.00    -0.271 OA 
HETATM   25  C   UNL     1     -10.000   5.484  70.539  1.00  0.00    -0.212 C  
BRANCH  22  26
HETATM   26  C   UNL     1      -9.390   3.507  68.194  1.00  0.00    -0.180 C  
HETATM   27  H   UNL     1      -8.972   4.084  66.327  1.00  0.00     0.000 HD 
HETATM   28  O   UNL     1      -8.652   4.233  67.209  1.00  0.00    -0.103 OA 
ENDBRANCH  22  26
ENDBRANCH  17  20
ENDBRANCH  10  13
ENDBRANCH   5   7
TORSDOF 4
ENDMDL
MODEL      108
REMARK 921   NORMALIZED FREE ENERGY PREDICTED BY IDOCK:   -2.96 KCAL/MOL
REMARK 922        TOTAL FREE ENERGY PREDICTED BY IDOCK:   -4.40 KCAL/MOL
REMARK 923 INTER-LIGAND FREE ENERGY PREDICTED BY IDOCK:   -3.80 KCAL/MOL
REMARK 924 INTRA-LIGAND FREE ENERGY PREDICTED BY IDOCK:   -0.60 KCAL/MOL
REMARK 927      BINDING AFFINITY PREDICTED BY RF-SCORE:    0.00 PKD
ROOT
HETATM    1  C   UNL     1      -5.331  20.502  67.331  1.00  0.00    -0.180 C  
HETATM    2  N   UNL     1      -5.672  19.356  68.132  1.00  0.00    -0.198 NA 
HETATM    3  N   UNL     1      -5.430  19.291  69.445  1.00  0.00    -0.198 NA 
HETATM    4  N   UNL     1      -5.790  18.061  69.789  1.00  0.00    -0.235 NA 
HETATM    5  C   UNL     1      -6.233  17.437  68.643  1.00  0.00    -0.175 A  
HETATM    6  N   UNL     1      -6.178  18.252  67.568  1.00  0.00    -0.178 NA 
ENDROOT
BRANCH   5   7
HETATM    7  C   UNL     1      -6.650  16.039  68.569  1.00  0.00    -0.123 A  
HETATM    8  N   UNL     1      -7.072  15.549  67.378  1.00  0.00    -0.192 NA 
HETATM    9  C   UNL     1      -7.515  14.266  67.359  1.00  0.00    -0.149 A  
HETATM   10  C   UNL     1      -7.603  13.415  68.470  1.00  0.00    -0.127 A  
HETATM   11  C   UNL     1      -6.656  15.265  69.724  1.00  0.00    -0.177 A  
HETATM   12  C   UNL     1      -7.141  13.962  69.672  1.00  0.00     0.151 A  
BRANCH  10  13
HETATM   13  C   UNL     1      -8.127  12.036  68.379  1.00  0.00    -0.154 A  
HETATM   14  C   UNL     1      -9.450  11.752  68.003  1.00  0.00    -0.188 A  
HETATM   15  C   UNL     1      -9.954  10.451  67.953  1.00  0.00    -0.192 A  
HETATM   16  F   UNL     1     -10.299  12.741  67.682  1.00  0.00    -0.211 F  
HETATM   17  C   UNL     1      -9.154   9.360  68.289  1.00  0.00    -0.128 A  
HETATM   18  C   UNL     1      -7.316  10.925  68.663  1.00  0.00    -0.101 A  
HETATM   19  C   UNL     1      -7.820   9.616  68.627  1.00  0.00    -0.081 A  
BRANCH  17  20
HETATM   20  N   UNL     1      -9.657   8.040  68.255  1.00  0.00    -0.145 N  
HETATM   21  C   UNL     1      -9.950   7.266  69.422  1.00  0.00    -0.170 C  
HETATM   22  C   UNL     1      -9.822   5.853  68.903  1.00  0.00    -0.145 C  
HETATM   23  O   UNL     1     -10.187   5.974  67.521  1.00  0.00    -0.145 OA 
HETATM   24  O   UNL     1      -9.906   7.588  65.957  1.00  0.00     0.044 OA 
HETATM   25  C   UNL     1      -9.917   7.266  67.133  1.00  0.00    -0.215 C  
BRANCH  22  26
HETATM   26  C   UNL     1      -8.405   5.282  69.017  1.00  0.00    -0.095 C  
HETATM   27  H   UNL     1      -6.565   5.909  69.484  1.00  0.00     0.000 HD 
HETATM   28  O   UNL     1      -7.444   6.263  69.413  1.00  0.00    -0.088 OA 
ENDBRANCH  22  26
ENDBRANCH  17  20
ENDBRANCH  10  13
ENDBRANCH   5   7
TORSDOF 4
ENDMDL
MODEL      109
REMARK 921   NORMALIZED FREE ENERGY PREDICTED BY IDOCK:   -2.68 KCAL/MOL
REMARK 922        TOTAL FREE ENERGY PREDICTED BY IDOCK:   -4.05 KCAL/MOL
REMARK 923 INTER-LIGAND FREE ENERGY PREDICTED BY IDOCK:   -3.32 KCAL/MOL
REMARK 924 INTRA-LIGAND FREE ENERGY PREDICTED BY IDOCK:   -0.73 KCAL/MOL
REMARK 927      BINDING AFFINITY PREDICTED BY RF-SCORE:    0.00 PKD
ROOT
HETATM    1  C   UNL     1      -5.474  14.744  71.398  1.00  0.00    -0.075 C  
HETATM    2  N   UNL     1      -5.606  13.324  71.212  1.00  0.00    -0.302 NA 
HETATM    3  N   UNL     1      -5.257  12.434  72.147  1.00  0.00    -0.373 NA 
HETATM    4  N   UNL     1      -5.435  11.254  71.566  1.00  0.00    -0.354 NA 
HETATM    5  C   UNL     1      -5.884  11.501  70.286  1.00  0.00    -0.158 A  
HETATM    6  N   UNL     1      -6.014  12.822  70.039  1.00  0.00    -0.145 NA 
ENDROOT
BRANCH   5   7
HETATM    7  C   UNL     1      -6.129  10.469  69.282  1.00  0.00    -0.039 A  
HETATM    8  N   UNL     1      -7.079  10.691  68.340  1.00  0.00    -0.076 NA 
HETATM    9  C   UNL     1      -7.326   9.686  67.463  1.00  0.00    -0.090 A  
HETATM   10  C   UNL     1      -6.709   8.427  67.466  1.00  0.00    -0.063 A  
HETATM   11  C   UNL     1      -5.427   9.270  69.347  1.00  0.00    -0.035 A  
HETATM   12  C   UNL     1      -5.726   8.253  68.447  1.00  0.00    -0.034 A  
BRANCH  10  13
HETATM   13  C   UNL     1      -7.055   7.367  66.496  1.00  0.00    -0.074 A  
HETATM   14  C   UNL     1      -6.634   7.398  65.157  1.00  0.00    -0.044 A  
HETATM   15  C   UNL     1      -6.992   6.414  64.233  1.00  0.00    -0.044 A  
HETATM   16  F   UNL     1      -5.867   8.402  64.702  1.00  0.00    -0.054 F  
HETATM   17  C   UNL     1      -7.804   5.344  64.606  1.00  0.00    -0.105 A  
HETATM   18  C   UNL     1      -7.827   6.255  66.873  1.00  0.00    -0.104 A  
HETATM   19  C   UNL     1      -8.201   5.269  65.946  1.00  0.00    -0.117 A  
BRANCH  17  20
HETATM   20  N   UNL     1      -8.183   4.349  63.677  1.00  0.00    -0.094 N  
HETATM   21  C   UNL     1      -9.135   4.555  62.630  1.00  0.00    -0.125 C  
HETATM   22  C   UNL     1      -9.636   3.152  62.379  1.00  0.00    -0.092 C  
HETATM   23  O   UNL     1      -8.509   2.333  62.719  1.00  0.00    -0.072 OA 
HETATM   24  O   UNL     1      -6.863   2.490  64.267  1.00  0.00    -0.037 OA 
HETATM   25  C   UNL     1      -7.748   3.032  63.628  1.00  0.00    -0.068 C  
BRANCH  22  26
HETATM   26  C   UNL     1     -10.840   2.765  63.245  1.00  0.00    -0.230 C  
HETATM   27  H   UNL     1     -12.023   3.589  64.629  1.00  0.00     0.000 HD 
HETATM   28  O   UNL     1     -11.277   3.829  64.092  1.00  0.00    -0.317 OA 
ENDBRANCH  22  26
ENDBRANCH  17  20
ENDBRANCH  10  13
ENDBRANCH   5   7
TORSDOF 4
ENDMDL
MODEL      110
REMARK 921   NORMALIZED FREE ENERGY PREDICTED BY IDOCK:   -2.31 KCAL/MOL
REMARK 922        TOTAL FREE ENERGY PREDICTED BY IDOCK:   -3.61 KCAL/MOL
REMARK 923 INTER-LIGAND FREE ENERGY PREDICTED BY IDOCK:   -3.75 KCAL/MOL
REMARK 924 INTRA-LIGAND FREE ENERGY PREDICTED BY IDOCK:    0.14 KCAL/MOL
REMARK 927      BINDING AFFINITY PREDICTED BY RF-SCORE:    0.00 PKD
ROOT
HETATM    1  C   UNL     1      -8.931  15.926  69.787  1.00  0.00     0.134 C  
HETATM    2  N   UNL     1      -9.474  14.971  68.859  1.00  0.00    -0.205 NA 
HETATM    3  N   UNL     1     -10.661  15.131  68.264  1.00  0.00    -0.245 NA 
HETATM    4  N   UNL     1     -10.842  14.011  67.576  1.00  0.00    -0.267 NA 
HETATM    5  C   UNL     1      -9.737  13.219  67.801  1.00  0.00    -0.217 A  
HETATM    6  N   UNL     1      -8.839  13.818  68.612  1.00  0.00    -0.105 NA 
ENDROOT
BRANCH   5   7
HETATM    7  C   UNL     1      -9.573  11.861  67.287  1.00  0.00    -0.177 A  
HETATM    8  N   UNL     1     -10.444  10.904  67.691  1.00  0.00    -0.197 NA 
HETATM    9  C   UNL     1     -10.224   9.641  67.246  1.00  0.00    -0.233 A  
HETATM   10  C   UNL     1      -9.157   9.234  66.433  1.00  0.00    -0.200 A  
HETATM   11  C   UNL     1      -8.504  11.573  66.446  1.00  0.00    -0.138 A  
HETATM   12  C   UNL     1      -8.295  10.261  66.031  1.00  0.00    -0.142 A  
BRANCH  10  13
HETATM   13  C   UNL     1      -8.962   7.830  66.014  1.00  0.00    -0.185 A  
HETATM   14  C   UNL     1      -9.919   6.830  66.249  1.00  0.00     0.101 A  
HETATM   15  C   UNL     1      -9.718   5.497  65.885  1.00  0.00    -0.058 A  
HETATM   16  F   UNL     1     -11.082   7.122  66.855  1.00  0.00    -0.434 F  
HETATM   17  C   UNL     1      -8.534   5.094  65.271  1.00  0.00    -0.144 A  
HETATM   18  C   UNL     1      -7.796   7.422  65.346  1.00  0.00    -0.118 A  
HETATM   19  C   UNL     1      -7.582   6.081  64.989  1.00  0.00    -0.090 A  
BRANCH  17  20
HETATM   20  N   UNL     1      -8.314   3.746  64.910  1.00  0.00    -0.100 N  
HETATM   21  C   UNL     1      -7.838   3.329  63.627  1.00  0.00    -0.080 C  
HETATM   22  C   UNL     1      -8.370   1.918  63.536  1.00  0.00    -0.076 C  
HETATM   23  O   UNL     1      -8.410   1.492  64.905  1.00  0.00    -0.073 OA 
HETATM   24  O   UNL     1      -8.836   2.542  66.866  1.00  0.00    -0.117 OA 
HETATM   25  C   UNL     1      -8.541   2.617  65.686  1.00  0.00    -0.109 C  
BRANCH  22  26
HETATM   26  C   UNL     1      -9.771   1.827  62.922  1.00  0.00    -0.091 C  
HETATM   27  H   UNL     1     -11.424   2.941  62.778  1.00  0.00     0.000 HD 
HETATM   28  O   UNL     1     -10.555   2.997  63.158  1.00  0.00    -0.180 OA 
ENDBRANCH  22  26
ENDBRANCH  17  20
ENDBRANCH  10  13
ENDBRANCH   5   7
TORSDOF 4
ENDMDL
MODEL      111
REMARK 921   NORMALIZED FREE ENERGY PREDICTED BY IDOCK:   -2.28 KCAL/MOL
REMARK 922        TOTAL FREE ENERGY PREDICTED BY IDOCK:   -3.57 KCAL/MOL
REMARK 923 INTER-LIGAND FREE ENERGY PREDICTED BY IDOCK:   -2.94 KCAL/MOL
REMARK 924 INTRA-LIGAND FREE ENERGY PREDICTED BY IDOCK:   -0.63 KCAL/MOL
REMARK 927      BINDING AFFINITY PREDICTED BY RF-SCORE:    0.00 PKD
ROOT
HETATM    1  C   UNL     1      -7.419  18.933  67.978  1.00  0.00    -0.252 C  
HETATM    2  N   UNL     1      -6.682  17.719  67.749  1.00  0.00    -0.182 NA 
HETATM    3  N   UNL     1      -5.645  17.647  66.908  1.00  0.00    -0.138 NA 
HETATM    4  N   UNL     1      -5.310  16.363  66.902  1.00  0.00    -0.349 NA 
HETATM    5  C   UNL     1      -6.183  15.717  67.751  1.00  0.00    -0.158 A  
HETATM    6  N   UNL     1      -7.066  16.567  68.316  1.00  0.00    -0.147 NA 
ENDROOT
BRANCH   5   7
HETATM    7  C   UNL     1      -6.208  14.272  67.970  1.00  0.00    -0.152 A  
HETATM    8  N   UNL     1      -5.372  13.490  67.244  1.00  0.00    -0.303 NA 
HETATM    9  C   UNL     1      -5.468  12.149  67.426  1.00  0.00    -0.124 A  
HETATM   10  C   UNL     1      -6.376  11.501  68.274  1.00  0.00    -0.046 A  
HETATM   11  C   UNL     1      -7.119  13.733  68.872  1.00  0.00    -0.107 A  
HETATM   12  C   UNL     1      -7.206  12.352  69.013  1.00  0.00    -0.008 A  
BRANCH  10  13
HETATM   13  C   UNL     1      -6.444  10.029  68.396  1.00  0.00    -0.054 A  
HETATM   14  C   UNL     1      -7.658   9.324  68.387  1.00  0.00    -0.086 A  
HETATM   15  C   UNL     1      -7.723   7.937  68.539  1.00  0.00    -0.114 A  
HETATM   16  F   UNL     1      -8.826   9.970  68.242  1.00  0.00    -0.113 F  
HETATM   17  C   UNL     1      -6.565   7.182  68.718  1.00  0.00    -0.044 A  
HETATM   18  C   UNL     1      -5.282   9.251  68.522  1.00  0.00    -0.034 A  
HETATM   19  C   UNL     1      -5.340   7.859  68.687  1.00  0.00    -0.027 A  
BRANCH  17  20
HETATM   20  N   UNL     1      -6.620   5.780  68.885  1.00  0.00    -0.052 N  
HETATM   21  C   UNL     1      -7.024   4.868  67.860  1.00  0.00    -0.061 C  
HETATM   22  C   UNL     1      -7.512   3.686  68.664  1.00  0.00    -0.054 C  
HETATM   23  O   UNL     1      -6.716   3.746  69.856  1.00  0.00    -0.033 OA 
HETATM   24  O   UNL     1      -5.856   5.441  71.087  1.00  0.00    -0.016 OA 
HETATM   25  C   UNL     1      -6.337   5.057  70.036  1.00  0.00    -0.026 C  
BRANCH  22  26
HETATM   26  C   UNL     1      -8.998   3.761  69.029  1.00  0.00    -0.122 C  
HETATM   27  H   UNL     1     -10.625   4.794  68.500  1.00  0.00     0.000 HD 
HETATM   28  O   UNL     1      -9.704   4.747  68.274  1.00  0.00    -0.143 OA 
ENDBRANCH  22  26
ENDBRANCH  17  20
ENDBRANCH  10  13
ENDBRANCH   5   7
TORSDOF 4
ENDMDL
MODEL      112
REMARK 921   NORMALIZED FREE ENERGY PREDICTED BY IDOCK:   -2.26 KCAL/MOL
REMARK 922        TOTAL FREE ENERGY PREDICTED BY IDOCK:   -3.54 KCAL/MOL
REMARK 923 INTER-LIGAND FREE ENERGY PREDICTED BY IDOCK:   -3.32 KCAL/MOL
REMARK 924 INTRA-LIGAND FREE ENERGY PREDICTED BY IDOCK:   -0.22 KCAL/MOL
REMARK 927      BINDING AFFINITY PREDICTED BY RF-SCORE:    0.00 PKD
ROOT
HETATM    1  C   UNL     1      -9.489  19.535  69.208  1.00  0.00    -0.150 C  
HETATM    2  N   UNL     1      -9.562  18.261  68.543  1.00  0.00    -0.329 NA 
HETATM    3  N   UNL     1     -10.441  18.001  67.570  1.00  0.00    -0.387 NA 
HETATM    4  N   UNL     1     -10.259  16.715  67.293  1.00  0.00    -0.284 NA 
HETATM    5  C   UNL     1      -9.266  16.261  68.134  1.00  0.00    -0.199 A  
HETATM    6  N   UNL     1      -8.794  17.237  68.937  1.00  0.00    -0.224 NA 
ENDROOT
BRANCH   5   7
HETATM    7  C   UNL     1      -8.814  14.873  68.208  1.00  0.00    -0.172 A  
HETATM    8  N   UNL     1      -9.512  13.927  67.533  1.00  0.00    -0.209 NA 
HETATM    9  C   UNL     1      -9.104  12.640  67.676  1.00  0.00    -0.192 A  
HETATM   10  C   UNL     1      -8.047  12.202  68.485  1.00  0.00    -0.112 A  
HETATM   11  C   UNL     1      -7.722  14.551  69.005  1.00  0.00    -0.113 A  
HETATM   12  C   UNL     1      -7.349  13.218  69.148  1.00  0.00     0.115 A  
BRANCH  10  13
HETATM   13  C   UNL     1      -7.680  10.776  68.618  1.00  0.00    -0.114 A  
HETATM   14  C   UNL     1      -8.505   9.736  68.158  1.00  0.00    -0.114 A  
HETATM   15  C   UNL     1      -8.174   8.389  68.317  1.00  0.00    -0.124 A  
HETATM   16  F   UNL     1      -9.671  10.004  67.549  1.00  0.00    -0.164 F  
HETATM   17  C   UNL     1      -6.995   8.012  68.958  1.00  0.00    -0.058 A  
HETATM   18  C   UNL     1      -6.469  10.384  69.212  1.00  0.00    -0.052 A  
HETATM   19  C   UNL     1      -6.137   9.032  69.386  1.00  0.00    -0.040 A  
BRANCH  17  20
HETATM   20  N   UNL     1      -6.656   6.652  69.135  1.00  0.00    -0.039 N  
HETATM   21  C   UNL     1      -6.498   5.721  68.061  1.00  0.00    -0.043 C  
HETATM   22  C   UNL     1      -6.781   4.403  68.741  1.00  0.00    -0.046 C  
HETATM   23  O   UNL     1      -6.358   4.631  70.093  1.00  0.00    -0.028 OA 
HETATM   24  O   UNL     1      -6.387   6.433  71.464  1.00  0.00    -0.043 OA 
HETATM   25  C   UNL     1      -6.455   5.983  70.334  1.00  0.00    -0.043 C  
BRANCH  22  26
HETATM   26  C   UNL     1      -8.260   4.004  68.721  1.00  0.00    -0.074 C  
HETATM   27  H   UNL     1      -9.445   2.667  67.824  1.00  0.00     0.000 HD 
HETATM   28  O   UNL     1      -8.527   2.914  67.837  1.00  0.00    -0.078 OA 
ENDBRANCH  22  26
ENDBRANCH  17  20
ENDBRANCH  10  13
ENDBRANCH   5   7
TORSDOF 4
ENDMDL
MODEL      113
REMARK 921   NORMALIZED FREE ENERGY PREDICTED BY IDOCK:   -2.03 KCAL/MOL
REMARK 922        TOTAL FREE ENERGY PREDICTED BY IDOCK:   -3.25 KCAL/MOL
REMARK 923 INTER-LIGAND FREE ENERGY PREDICTED BY IDOCK:   -2.58 KCAL/MOL
REMARK 924 INTRA-LIGAND FREE ENERGY PREDICTED BY IDOCK:   -0.67 KCAL/MOL
REMARK 927      BINDING AFFINITY PREDICTED BY RF-SCORE:    0.00 PKD
ROOT
HETATM    1  C   UNL     1      -7.452  19.073  65.757  1.00  0.00    -0.152 C  
HETATM    2  N   UNL     1      -8.014  17.750  65.820  1.00  0.00    -0.540 NA 
HETATM    3  N   UNL     1      -9.069  17.375  65.090  1.00  0.00     1.223 NA 
HETATM    4  N   UNL     1      -9.335  16.141  65.500  1.00  0.00    -0.370 NA 
HETATM    5  C   UNL     1      -8.413  15.836  66.479  1.00  0.00    -0.300 A  
HETATM    6  N   UNL     1      -7.546  16.849  66.694  1.00  0.00    -0.236 NA 
ENDROOT
BRANCH   5   7
HETATM    7  C   UNL     1      -8.404  14.595  67.250  1.00  0.00    -0.213 A  
HETATM    8  N   UNL     1      -7.824  14.596  68.475  1.00  0.00    -0.126 NA 
HETATM    9  C   UNL     1      -7.775  13.412  69.137  1.00  0.00     0.260 A  
HETATM   10  C   UNL     1      -8.241  12.183  68.649  1.00  0.00    -0.033 A  
HETATM   11  C   UNL     1      -8.936  13.439  66.691  1.00  0.00    -0.135 A  
HETATM   12  C   UNL     1      -8.844  12.238  67.387  1.00  0.00    -0.185 A  
BRANCH  10  13
HETATM   13  C   UNL     1      -8.124  10.925  69.415  1.00  0.00     0.001 A  
HETATM   14  C   UNL     1      -6.888  10.405  69.834  1.00  0.00    -0.143 A  
HETATM   15  C   UNL     1      -6.776   9.198  70.525  1.00  0.00    -0.069 A  
HETATM   16  F   UNL     1      -5.745  11.058  69.569  1.00  0.00    -0.041 F  
HETATM   17  C   UNL     1      -7.905   8.438  70.826  1.00  0.00    -0.089 A  
HETATM   18  C   UNL     1      -9.258  10.177  69.772  1.00  0.00    -0.175 A  
HETATM   19  C   UNL     1      -9.151   8.956  70.456  1.00  0.00    -0.233 A  
BRANCH  17  20
HETATM   20  N   UNL     1      -7.802   7.208  71.514  1.00  0.00    -0.093 N  
HETATM   21  C   UNL     1      -7.413   5.977  70.898  1.00  0.00    -0.091 C  
HETATM   22  C   UNL     1      -8.052   4.953  71.806  1.00  0.00    -0.113 C  
HETATM   23  O   UNL     1      -8.068   5.608  73.082  1.00  0.00    -0.116 OA 
HETATM   24  O   UNL     1      -8.332   7.758  73.742  1.00  0.00    -0.172 OA 
HETATM   25  C   UNL     1      -8.081   6.964  72.852  1.00  0.00    -0.107 C  
BRANCH  22  26
HETATM   26  C   UNL     1      -9.481   4.576  71.398  1.00  0.00    -0.156 C  
HETATM   27  H   UNL     1     -10.438   3.786  69.832  1.00  0.00     0.000 HD 
HETATM   28  O   UNL     1      -9.553   4.020  70.084  1.00  0.00    -0.173 OA 
ENDBRANCH  22  26
ENDBRANCH  17  20
ENDBRANCH  10  13
ENDBRANCH   5   7
TORSDOF 4
ENDMDL
MODEL      114
REMARK 921   NORMALIZED FREE ENERGY PREDICTED BY IDOCK:   -0.94 KCAL/MOL
REMARK 922        TOTAL FREE ENERGY PREDICTED BY IDOCK:   -1.91 KCAL/MOL
REMARK 923 INTER-LIGAND FREE ENERGY PREDICTED BY IDOCK:   -1.40 KCAL/MOL
REMARK 924 INTRA-LIGAND FREE ENERGY PREDICTED BY IDOCK:   -0.51 KCAL/MOL
REMARK 927      BINDING AFFINITY PREDICTED BY RF-SCORE:    0.00 PKD
ROOT
HETATM    1  C   UNL     1      -8.093   4.727  66.550  1.00  0.00    -0.107 C  
HETATM    2  N   UNL     1      -8.106   5.827  67.478  1.00  0.00    -0.102 NA 
HETATM    3  N   UNL     1      -8.657   5.744  68.694  1.00  0.00    -0.109 NA 
HETATM    4  N   UNL     1      -8.554   6.970  69.190  1.00  0.00    -0.132 NA 
HETATM    5  C   UNL     1      -7.940   7.742  68.227  1.00  0.00    -0.122 A  
HETATM    6  N   UNL     1      -7.632   7.028  67.124  1.00  0.00    -0.105 NA 
ENDROOT
BRANCH   5   7
HETATM    7  C   UNL     1      -7.707   9.180  68.343  1.00  0.00    -0.094 A  
HETATM    8  N   UNL     1      -8.532  10.027  67.681  1.00  0.00    -0.115 NA 
HETATM    9  C   UNL     1      -8.247  11.352  67.758  1.00  0.00    -0.125 A  
HETATM   10  C   UNL     1      -7.157  11.917  68.434  1.00  0.00    -0.086 A  
HETATM   11  C   UNL     1      -6.621   9.639  69.079  1.00  0.00    -0.049 A  
HETATM   12  C   UNL     1      -6.344  11.002  69.114  1.00  0.00    -0.057 A  
BRANCH  10  13
HETATM   13  C   UNL     1      -6.891  13.371  68.446  1.00  0.00    -0.102 A  
HETATM   14  C   UNL     1      -6.718  14.100  69.634  1.00  0.00    -0.092 A  
HETATM   15  C   UNL     1      -6.503  15.479  69.645  1.00  0.00    -0.173 A  
HETATM   16  F   UNL     1      -6.767  13.487  70.828  1.00  0.00     0.146 F  
HETATM   17  C   UNL     1      -6.459  16.206  68.456  1.00  0.00    -0.117 A  
HETATM   18  C   UNL     1      -6.789  14.105  67.253  1.00  0.00     0.165 A  
HETATM   19  C   UNL     1      -6.586  15.494  67.257  1.00  0.00    -0.090 A  
BRANCH  17  20
HETATM   20  N   UNL     1      -6.255  17.604  68.456  1.00  0.00    -0.177 N  
HETATM   21  C   UNL     1      -5.170  18.253  69.125  1.00  0.00    -0.188 C  
HETATM   22  C   UNL     1      -5.730  19.636  69.365  1.00  0.00    -0.232 C  
HETATM   23  O   UNL     1      -6.637  19.819  68.269  1.00  0.00    -0.249 OA 
HETATM   24  O   UNL     1      -8.000  18.432  67.109  1.00  0.00    -0.225 OA 
HETATM   25  C   UNL     1      -7.052  18.572  67.862  1.00  0.00    -0.225 C  
BRANCH  22  26
HETATM   26  C   UNL     1      -6.484  19.773  70.692  1.00  0.00    -0.038 C  
HETATM   27  H   UNL     1      -7.635  21.106  71.636  1.00  0.00     0.000 HD 
HETATM   28  O   UNL     1      -7.167  21.021  70.813  1.00  0.00     1.400 OA 
ENDBRANCH  22  26
ENDBRANCH  17  20
ENDBRANCH  10  13
ENDBRANCH   5   7
TORSDOF 4
ENDMDL
MODEL      115
REMARK 921   NORMALIZED FREE ENERGY PREDICTED BY IDOCK:   -0.78 KCAL/MOL
REMARK 922        TOTAL FREE ENERGY PREDICTED BY IDOCK:   -1.72 KCAL/MOL
REMARK 923 INTER-LIGAND FREE ENERGY PREDICTED BY IDOCK:   -1.19 KCAL/MOL
REMARK 924 INTRA-LIGAND FREE ENERGY PREDICTED BY IDOCK:   -0.52 KCAL/MOL
REMARK 927      BINDING AFFINITY PREDICTED BY RF-SCORE:    0.00 PKD
ROOT
HETATM    1  C   UNL     1      -5.464  15.218  73.143  1.00  0.00     0.648 C  
HETATM    2  N   UNL     1      -5.507  13.807  72.862  1.00  0.00    -0.429 NA 
HETATM    3  N   UNL     1      -5.126  12.879  73.746  1.00  0.00    -0.384 NA 
HETATM    4  N   UNL     1      -5.220  11.732  73.085  1.00  0.00    -0.045 NA 
HETATM    5  C   UNL     1      -5.654  12.037  71.813  1.00  0.00     0.561 A  
HETATM    6  N   UNL     1      -5.858  13.361  71.649  1.00  0.00    -0.317 NA 
ENDROOT
BRANCH   5   7
HETATM    7  C   UNL     1      -5.814  11.062  70.737  1.00  0.00    -0.065 A  
HETATM    8  N   UNL     1      -6.165  11.505  69.505  1.00  0.00    -0.097 NA 
HETATM    9  C   UNL     1      -6.370  10.567  68.545  1.00  0.00    -0.050 A  
HETATM   10  C   UNL     1      -6.281   9.180  68.726  1.00  0.00    -0.044 A  
HETATM   11  C   UNL     1      -5.658   9.708  71.012  1.00  0.00    -0.064 A  
HETATM   12  C   UNL     1      -5.902   8.773  70.010  1.00  0.00    -0.031 A  
BRANCH  10  13
HETATM   13  C   UNL     1      -6.551   8.215  67.639  1.00  0.00    -0.058 A  
HETATM   14  C   UNL     1      -7.744   7.479  67.558  1.00  0.00    -0.118 A  
HETATM   15  C   UNL     1      -7.982   6.541  66.551  1.00  0.00    -0.109 A  
HETATM   16  F   UNL     1      -8.715   7.644  68.471  1.00  0.00    -0.126 F  
HETATM   17  C   UNL     1      -7.024   6.285  65.572  1.00  0.00    -0.056 A  
HETATM   18  C   UNL     1      -5.617   7.987  66.615  1.00  0.00    -0.032 A  
HETATM   19  C   UNL     1      -5.844   7.036  65.608  1.00  0.00    -0.036 A  
BRANCH  17  20
HETATM   20  N   UNL     1      -7.249   5.329  64.556  1.00  0.00    -0.054 N  
HETATM   21  C   UNL     1      -7.967   4.107  64.752  1.00  0.00    -0.093 C  
HETATM   22  C   UNL     1      -7.398   3.228  63.664  1.00  0.00    -0.058 C  
HETATM   23  O   UNL     1      -7.044   4.163  62.635  1.00  0.00    -0.038 OA 
HETATM   24  O   UNL     1      -6.260   6.288  62.646  1.00  0.00    -0.029 OA 
HETATM   25  C   UNL     1      -6.805   5.375  63.241  1.00  0.00    -0.037 C  
BRANCH  22  26
HETATM   26  C   UNL     1      -6.157   2.438  64.096  1.00  0.00    -0.014 C  
HETATM   27  H   UNL     1      -5.202   1.945  65.781  1.00  0.00     0.000 HD 
HETATM   28  O   UNL     1      -5.971   2.435  65.513  1.00  0.00    -0.018 OA 
ENDBRANCH  22  26
ENDBRANCH  17  20
ENDBRANCH  10  13
ENDBRANCH   5   7
TORSDOF 4
ENDMDL
MODEL      116
REMARK 921   NORMALIZED FREE ENERGY PREDICTED BY IDOCK:   -0.61 KCAL/MOL
REMARK 922        TOTAL FREE ENERGY PREDICTED BY IDOCK:   -1.51 KCAL/MOL
REMARK 923 INTER-LIGAND FREE ENERGY PREDICTED BY IDOCK:   -0.74 KCAL/MOL
REMARK 924 INTRA-LIGAND FREE ENERGY PREDICTED BY IDOCK:   -0.77 KCAL/MOL
REMARK 927      BINDING AFFINITY PREDICTED BY RF-SCORE:    0.00 PKD
ROOT
HETATM    1  C   UNL     1     -10.380  13.417  63.496  1.00  0.00     1.331 C  
HETATM    2  N   UNL     1     -10.891  12.556  64.529  1.00  0.00    -0.308 NA 
HETATM    3  N   UNL     1     -12.101  12.718  65.075  1.00  0.00    -0.415 NA 
HETATM    4  N   UNL     1     -12.156  11.806  66.037  1.00  0.00    -0.276 NA 
HETATM    5  C   UNL     1     -10.952  11.134  66.023  1.00  0.00    -0.123 A  
HETATM    6  N   UNL     1     -10.128  11.589  65.055  1.00  0.00    -0.257 NA 
ENDROOT
BRANCH   5   7
HETATM    7  C   UNL     1     -10.571  10.097  66.979  1.00  0.00    -0.225 A  
HETATM    8  N   UNL     1      -9.442  10.271  67.709  1.00  0.00    -0.147 NA 
HETATM    9  C   UNL     1      -9.083   9.259  68.540  1.00  0.00    -0.132 A  
HETATM   10  C   UNL     1      -9.758   8.039  68.683  1.00  0.00    -0.163 A  
HETATM   11  C   UNL     1     -11.338   8.942  67.076  1.00  0.00     1.348 A  
HETATM   12  C   UNL     1     -10.924   7.915  67.919  1.00  0.00     0.069 A  
BRANCH  10  13
HETATM   13  C   UNL     1      -9.287   6.967  69.585  1.00  0.00    -0.149 A  
HETATM   14  C   UNL     1      -8.314   6.029  69.204  1.00  0.00    -0.114 A  
HETATM   15  C   UNL     1      -7.897   4.995  70.045  1.00  0.00    -0.070 A  
HETATM   16  F   UNL     1      -7.747   6.084  67.988  1.00  0.00    -0.093 F  
HETATM   17  C   UNL     1      -8.444   4.842  71.317  1.00  0.00    -0.116 A  
HETATM   18  C   UNL     1      -9.791   6.835  70.889  1.00  0.00    -0.197 A  
HETATM   19  C   UNL     1      -9.385   5.791  71.735  1.00  0.00    -0.163 A  
BRANCH  17  20
HETATM   20  N   UNL     1      -8.039   3.793  72.171  1.00  0.00    -0.075 N  
HETATM   21  C   UNL     1      -8.615   2.483  72.157  1.00  0.00    -0.066 C  
HETATM   22  C   UNL     1      -8.337   2.001  73.562  1.00  0.00    -0.058 C  
HETATM   23  O   UNL     1      -7.126   2.686  73.913  1.00  0.00    -0.034 OA 
HETATM   24  O   UNL     1      -6.279   4.729  73.425  1.00  0.00    -0.031 OA 
HETATM   25  C   UNL     1      -7.072   3.841  73.166  1.00  0.00    -0.054 C  
BRANCH  22  26
HETATM   26  C   UNL     1      -9.442   2.355  74.563  1.00  0.00    -0.084 C  
HETATM   27  H   UNL     1     -11.438   2.358  74.660  1.00  0.00     0.000 HD 
HETATM   28  O   UNL     1     -10.753   2.139  74.039  1.00  0.00    -0.136 OA 
ENDBRANCH  22  26
ENDBRANCH  17  20
ENDBRANCH  10  13
ENDBRANCH   5   7
TORSDOF 4
ENDMDL
MODEL      117
REMARK 921   NORMALIZED FREE ENERGY PREDICTED BY IDOCK:   -0.22 KCAL/MOL
REMARK 922        TOTAL FREE ENERGY PREDICTED BY IDOCK:   -1.02 KCAL/MOL
REMARK 923 INTER-LIGAND FREE ENERGY PREDICTED BY IDOCK:   -0.66 KCAL/MOL
REMARK 924 INTRA-LIGAND FREE ENERGY PREDICTED BY IDOCK:   -0.36 KCAL/MOL
REMARK 927      BINDING AFFINITY PREDICTED BY RF-SCORE:    0.00 PKD
ROOT
HETATM    1  C   UNL     1     -12.281  16.927  73.594  1.00  0.00    -0.046 C  
HETATM    2  N   UNL     1     -12.486  16.166  72.391  1.00  0.00    -0.453 NA 
HETATM    3  N   UNL     1     -13.674  16.069  71.786  1.00  0.00    -0.163 NA 
HETATM    4  N   UNL     1     -13.472  15.217  70.789  1.00  0.00    -0.346 NA 
HETATM    5  C   UNL     1     -12.150  14.834  70.851  1.00  0.00    -0.324 A  
HETATM    6  N   UNL     1     -11.492  15.438  71.863  1.00  0.00    -0.431 NA 
ENDROOT
BRANCH   5   7
HETATM    7  C   UNL     1     -11.534  13.839  69.975  1.00  0.00    -0.118 A  
HETATM    8  N   UNL     1     -10.443  13.169  70.420  1.00  0.00     2.170 NA 
HETATM    9  C   UNL     1      -9.857  12.301  69.557  1.00  0.00     1.116 A  
HETATM   10  C   UNL     1     -10.263  12.061  68.237  1.00  0.00    -0.207 A  
HETATM   11  C   UNL     1     -12.044  13.645  68.697  1.00  0.00    -0.325 A  
HETATM   12  C   UNL     1     -11.402  12.766  67.831  1.00  0.00    -0.339 A  
BRANCH  10  13
HETATM   13  C   UNL     1      -9.553  11.123  67.342  1.00  0.00    -0.183 A  
HETATM   14  C   UNL     1      -8.215  11.305  66.959  1.00  0.00    -0.151 A  
HETATM   15  C   UNL     1      -7.558  10.437  66.085  1.00  0.00    -0.130 A  
HETATM   16  F   UNL     1      -7.507  12.349  67.419  1.00  0.00    -0.119 F  
HETATM   17  C   UNL     1      -8.217   9.338  65.538  1.00  0.00    -0.124 A  
HETATM   18  C   UNL     1     -10.190   9.981  66.827  1.00  0.00    -0.295 A  
HETATM   19  C   UNL     1      -9.539   9.111  65.938  1.00  0.00    -0.343 A  
BRANCH  17  20
HETATM   20  N   UNL     1      -7.566   8.460  64.642  1.00  0.00    -0.098 N  
HETATM   21  C   UNL     1      -7.520   8.654  63.226  1.00  0.00    -0.106 C  
HETATM   22  C   UNL     1      -7.322   7.244  62.721  1.00  0.00    -0.090 C  
HETATM   23  O   UNL     1      -6.601   6.610  63.786  1.00  0.00    -0.042 OA 
HETATM   24  O   UNL     1      -6.627   6.816  66.041  1.00  0.00    -0.048 OA 
HETATM   25  C   UNL     1      -6.908   7.278  64.949  1.00  0.00    -0.050 C  
BRANCH  22  26
HETATM   26  C   UNL     1      -8.633   6.493  62.463  1.00  0.00     0.188 C  
HETATM   27  H   UNL     1      -9.929   5.345  63.461  1.00  0.00     0.000 HD 
HETATM   28  O   UNL     1      -9.116   5.810  63.621  1.00  0.00     0.401 OA 
ENDBRANCH  22  26
ENDBRANCH  17  20
ENDBRANCH  10  13
ENDBRANCH   5   7
TORSDOF 4
ENDMDL
MODEL      118
REMARK 921   NORMALIZED FREE ENERGY PREDICTED BY IDOCK:    2.20 KCAL/MOL
REMARK 922        TOTAL FREE ENERGY PREDICTED BY IDOCK:    1.96 KCAL/MOL
REMARK 923 INTER-LIGAND FREE ENERGY PREDICTED BY IDOCK:    2.26 KCAL/MOL
REMARK 924 INTRA-LIGAND FREE ENERGY PREDICTED BY IDOCK:   -0.29 KCAL/MOL
REMARK 927      BINDING AFFINITY PREDICTED BY RF-SCORE:    0.00 PKD
ROOT
HETATM    1  C   UNL     1     -11.730  17.403  63.516  1.00  0.00     6.831 C  
HETATM    2  N   UNL     1     -11.904  16.088  64.073  1.00  0.00    -0.784 NA 
HETATM    3  N   UNL     1     -12.779  15.203  63.584  1.00  0.00    -0.310 NA 
HETATM    4  N   UNL     1     -12.710  14.173  64.418  1.00  0.00    -0.651 NA 
HETATM    5  C   UNL     1     -11.785  14.500  65.386  1.00  0.00    -0.354 A  
HETATM    6  N   UNL     1     -11.245  15.720  65.180  1.00  0.00    -0.290 NA 
ENDROOT
BRANCH   5   7
HETATM    7  C   UNL     1     -11.467  13.667  66.543  1.00  0.00    -0.335 A  
HETATM    8  N   UNL     1     -10.232  13.113  66.624  1.00  0.00    -0.254 NA 
HETATM    9  C   UNL     1      -9.992  12.292  67.678  1.00  0.00    -0.198 A  
HETATM   10  C   UNL     1     -10.918  11.942  68.670  1.00  0.00    -0.271 A  
HETATM   11  C   UNL     1     -12.447  13.419  67.497  1.00  0.00     0.164 A  
HETATM   12  C   UNL     1     -12.172  12.551  68.550  1.00  0.00     0.066 A  
BRANCH  10  13
HETATM   13  C   UNL     1     -10.593  11.013  69.772  1.00  0.00    -0.055 A  
HETATM   14  C   UNL     1      -9.436  10.217  69.777  1.00  0.00    -0.167 A  
HETATM   15  C   UNL     1      -9.150   9.313  70.802  1.00  0.00    -0.306 A  
HETATM   16  F   UNL     1      -8.551  10.288  68.770  1.00  0.00    -0.111 F  
HETATM   17  C   UNL     1     -10.020   9.153  71.879  1.00  0.00    -0.094 A  
HETATM   18  C   UNL     1     -11.434  10.882  70.890  1.00  0.00     0.020 A  
HETATM   19  C   UNL     1     -11.158   9.966  71.918  1.00  0.00     0.634 A  
BRANCH  17  20
HETATM   20  N   UNL     1      -9.746   8.232  72.915  1.00  0.00    -0.265 N  
HETATM   21  C   UNL     1      -8.666   8.371  73.843  1.00  0.00     0.036 C  
HETATM   22  C   UNL     1      -8.426   6.940  74.263  1.00  0.00    -0.155 C  
HETATM   23  O   UNL     1      -9.721   6.337  74.138  1.00  0.00    -0.180 OA 
HETATM   24  O   UNL     1     -11.460   6.629  72.717  1.00  0.00    -0.227 OA 
HETATM   25  C   UNL     1     -10.423   7.053  73.196  1.00  0.00    -0.303 C  
BRANCH  22  26
HETATM   26  C   UNL     1      -7.420   6.198  73.375  1.00  0.00    -0.092 C  
HETATM   27  H   UNL     1      -7.069   4.339  72.731  1.00  0.00     0.000 HD 
HETATM   28  O   UNL     1      -7.692   4.799  73.282  1.00  0.00    -0.089 OA 
ENDBRANCH  22  26
ENDBRANCH  17  20
ENDBRANCH  10  13
ENDBRANCH   5   7
TORSDOF 4
ENDMDL
MODEL      119
REMARK 921   NORMALIZED FREE ENERGY PREDICTED BY IDOCK:    2.38 KCAL/MOL
REMARK 922        TOTAL FREE ENERGY PREDICTED BY IDOCK:    2.18 KCAL/MOL
REMARK 923 INTER-LIGAND FREE ENERGY PREDICTED BY IDOCK:    2.82 KCAL/MOL
REMARK 924 INTRA-LIGAND FREE ENERGY PREDICTED BY IDOCK:   -0.64 KCAL/MOL
REMARK 927      BINDING AFFINITY PREDICTED BY RF-SCORE:    0.00 PKD
ROOT
HETATM    1  C   UNL     1     -11.753  18.189  68.361  1.00  0.00     2.294 C  
HETATM    2  N   UNL     1     -11.686  16.829  67.897  1.00  0.00     0.375 NA 
HETATM    3  N   UNL     1     -12.687  16.238  67.236  1.00  0.00     2.750 NA 
HETATM    4  N   UNL     1     -12.285  14.983  67.076  1.00  0.00     0.113 NA 
HETATM    5  C   UNL     1     -11.043  14.882  67.665  1.00  0.00    -0.311 A  
HETATM    6  N   UNL     1     -10.632  16.056  68.189  1.00  0.00    -0.275 NA 
ENDROOT
BRANCH   5   7
HETATM    7  C   UNL     1     -10.279  13.642  67.779  1.00  0.00    -0.242 A  
HETATM    8  N   UNL     1      -9.197  13.470  66.981  1.00  0.00    -0.239 NA 
HETATM    9  C   UNL     1      -8.549  12.280  67.066  1.00  0.00    -0.191 A  
HETATM   10  C   UNL     1      -8.922  11.203  67.882  1.00  0.00    -0.143 A  
HETATM   11  C   UNL     1     -10.709  12.652  68.656  1.00  0.00    -0.269 A  
HETATM   12  C   UNL     1     -10.036  11.435  68.697  1.00  0.00    -0.209 A  
BRANCH  10  13
HETATM   13  C   UNL     1      -8.185   9.921  67.897  1.00  0.00    -0.113 A  
HETATM   14  C   UNL     1      -6.790   9.851  68.039  1.00  0.00    -0.072 A  
HETATM   15  C   UNL     1      -6.093   8.641  68.016  1.00  0.00    -0.051 A  
HETATM   16  F   UNL     1      -6.059  10.966  68.191  1.00  0.00    -0.049 F  
HETATM   17  C   UNL     1      -6.763   7.432  67.840  1.00  0.00    -0.062 A  
HETATM   18  C   UNL     1      -8.854   8.692  67.776  1.00  0.00    -0.137 A  
HETATM   19  C   UNL     1      -8.158   7.474  67.740  1.00  0.00    -0.119 A  
BRANCH  17  20
HETATM   20  N   UNL     1      -6.066   6.203  67.803  1.00  0.00    -0.017 N  
HETATM   21  C   UNL     1      -5.435   5.678  66.632  1.00  0.00    -0.012 C  
HETATM   22  C   UNL     1      -5.425   4.194  66.917  1.00  0.00    -0.013 C  
HETATM   23  O   UNL     1      -5.352   4.134  68.349  1.00  0.00    -0.011 OA 
HETATM   24  O   UNL     1      -6.184   5.417  70.019  1.00  0.00    -0.024 OA 
HETATM   25  C   UNL     1      -5.899   5.297  68.841  1.00  0.00    -0.020 C  
BRANCH  22  26
HETATM   26  C   UNL     1      -6.683   3.466  66.430  1.00  0.00    -0.052 C  
HETATM   27  H   UNL     1      -8.237   3.798  65.219  1.00  0.00     0.000 HD 
HETATM   28  O   UNL     1      -7.458   4.249  65.521  1.00  0.00    -0.078 OA 
ENDBRANCH  22  26
ENDBRANCH  17  20
ENDBRANCH  10  13
ENDBRANCH   5   7
TORSDOF 4
ENDMDL
MODEL      120
REMARK 921   NORMALIZED FREE ENERGY PREDICTED BY IDOCK:    2.46 KCAL/MOL
REMARK 922        TOTAL FREE ENERGY PREDICTED BY IDOCK:    2.28 KCAL/MOL
REMARK 923 INTER-LIGAND FREE ENERGY PREDICTED BY IDOCK:    2.40 KCAL/MOL
REMARK 924 INTRA-LIGAND FREE ENERGY PREDICTED BY IDOCK:   -0.12 KCAL/MOL
REMARK 927      BINDING AFFINITY PREDICTED BY RF-SCORE:    0.00 PKD
ROOT
HETATM    1  C   UNL     1      -5.944  13.908  73.663  1.00  0.00     0.392 C  
HETATM    2  N   UNL     1      -5.794  12.519  73.319  1.00  0.00     1.097 NA 
HETATM    3  N   UNL     1      -5.331  11.605  74.177  1.00  0.00    -0.049 NA 
HETATM    4  N   UNL     1      -5.251  10.489  73.463  1.00  0.00    -0.311 NA 
HETATM    5  C   UNL     1      -5.673  10.797  72.188  1.00  0.00     0.772 A  
HETATM    6  N   UNL     1      -6.039  12.091  72.073  1.00  0.00     1.382 NA 
ENDROOT
BRANCH   5   7
HETATM    7  C   UNL     1      -5.666   9.863  71.065  1.00  0.00    -0.085 A  
HETATM    8  N   UNL     1      -5.871  10.347  69.816  1.00  0.00    -0.044 NA 
HETATM    9  C   UNL     1      -5.924   9.444  68.804  1.00  0.00    -0.043 A  
HETATM   10  C   UNL     1      -5.816   8.053  68.942  1.00  0.00    -0.035 A  
HETATM   11  C   UNL     1      -5.504   8.503  71.307  1.00  0.00    -0.034 A  
HETATM   12  C   UNL     1      -5.590   7.605  70.249  1.00  0.00    -0.023 A  
BRANCH  10  13
HETATM   13  C   UNL     1      -5.916   7.127  67.795  1.00  0.00    -0.033 A  
HETATM   14  C   UNL     1      -6.730   7.386  66.680  1.00  0.00    -0.061 A  
HETATM   15  C   UNL     1      -6.851   6.493  65.614  1.00  0.00    -0.049 A  
HETATM   16  F   UNL     1      -7.445   8.520  66.602  1.00  0.00    -0.078 F  
HETATM   17  C   UNL     1      -6.165   5.280  65.615  1.00  0.00    -0.034 A  
HETATM   18  C   UNL     1      -5.187   5.927  67.759  1.00  0.00    -0.004 A  
HETATM   19  C   UNL     1      -5.315   5.018  66.696  1.00  0.00    -0.009 A  
BRANCH  17  20
HETATM   20  N   UNL     1      -6.290   4.363  64.548  1.00  0.00    -0.033 N  
HETATM   21  C   UNL     1      -6.340   4.742  63.170  1.00  0.00    -0.026 C  
HETATM   22  C   UNL     1      -7.083   3.582  62.550  1.00  0.00    -0.036 C  
HETATM   23  O   UNL     1      -6.731   2.476  63.392  1.00  0.00    -0.029 OA 
HETATM   24  O   UNL     1      -6.311   2.259  65.607  1.00  0.00    -0.023 OA 
HETATM   25  C   UNL     1      -6.418   2.983  64.632  1.00  0.00    -0.027 C  
BRANCH  22  26
HETATM   26  C   UNL     1      -8.606   3.762  62.539  1.00  0.00    -0.082 C  
HETATM   27  H   UNL     1     -10.227   2.893  63.319  1.00  0.00     0.000 HD 
HETATM   28  O   UNL     1      -9.283   2.781  63.326  1.00  0.00    -0.095 OA 
ENDBRANCH  22  26
ENDBRANCH  17  20
ENDBRANCH  10  13
ENDBRANCH   5   7
TORSDOF 4
ENDMDL
MODEL      121
REMARK 921   NORMALIZED FREE ENERGY PREDICTED BY IDOCK:   13.79 KCAL/MOL
REMARK 922        TOTAL FREE ENERGY PREDICTED BY IDOCK:   16.27 KCAL/MOL
REMARK 923 INTER-LIGAND FREE ENERGY PREDICTED BY IDOCK:   16.90 KCAL/MOL
REMARK 924 INTRA-LIGAND FREE ENERGY PREDICTED BY IDOCK:   -0.63 KCAL/MOL
REMARK 927      BINDING AFFINITY PREDICTED BY RF-SCORE:    0.00 PKD
ROOT
HETATM    1  C   UNL     1      -6.657  16.787  72.995  1.00  0.00     6.545 C  
HETATM    2  N   UNL     1      -6.606  15.351  72.911  1.00  0.00     2.859 NA 
HETATM    3  N   UNL     1      -6.377  14.570  73.972  1.00  0.00     0.534 NA 
HETATM    4  N   UNL     1      -6.310  13.343  73.473  1.00  0.00     1.118 NA 
HETATM    5  C   UNL     1      -6.500  13.452  72.112  1.00  0.00     2.625 A  
HETATM    6  N   UNL     1      -6.705  14.730  71.728  1.00  0.00     1.124 NA 
ENDROOT
BRANCH   5   7
HETATM    7  C   UNL     1      -6.424  12.335  71.173  1.00  0.00     2.023 A  
HETATM    8  N   UNL     1      -7.291  12.302  70.131  1.00  0.00     1.093 NA 
HETATM    9  C   UNL     1      -7.236  11.218  69.316  1.00  0.00    -0.094 A  
HETATM   10  C   UNL     1      -6.384  10.117  69.476  1.00  0.00    -0.051 A  
HETATM   11  C   UNL     1      -5.508  11.314  71.398  1.00  0.00     0.112 A  
HETATM   12  C   UNL     1      -5.499  10.206  70.557  1.00  0.00    -0.060 A  
BRANCH  10  13
HETATM   13  C   UNL     1      -6.404   8.953  68.565  1.00  0.00    -0.054 A  
HETATM   14  C   UNL     1      -5.986   9.032  67.227  1.00  0.00    -0.050 A  
HETATM   15  C   UNL     1      -6.040   7.941  66.357  1.00  0.00    -0.045 A  
HETATM   16  F   UNL     1      -5.522  10.185  66.720  1.00  0.00    -0.042 F  
HETATM   17  C   UNL     1      -6.527   6.708  66.785  1.00  0.00    -0.043 A  
HETATM   18  C   UNL     1      -6.842   7.691  68.999  1.00  0.00    -0.057 A  
HETATM   19  C   UNL     1      -6.910   6.593  68.127  1.00  0.00    -0.074 A  
BRANCH  17  20
HETATM   20  N   UNL     1      -6.598   5.600  65.911  1.00  0.00    -0.040 N  
HETATM   21  C   UNL     1      -7.354   5.588  64.696  1.00  0.00    -0.064 C  
HETATM   22  C   UNL     1      -7.621   4.113  64.506  1.00  0.00    -0.076 C  
HETATM   23  O   UNL     1      -6.486   3.489  65.122  1.00  0.00    -0.033 OA 
HETATM   24  O   UNL     1      -5.194   3.996  66.911  1.00  0.00    -0.011 OA 
HETATM   25  C   UNL     1      -6.003   4.357  66.075  1.00  0.00    -0.023 C  
BRANCH  22  26
HETATM   26  C   UNL     1      -8.909   3.629  65.181  1.00  0.00    -0.120 C  
HETATM   27  H   UNL     1     -10.871   3.569  64.806  1.00  0.00     0.000 HD 
HETATM   28  O   UNL     1     -10.073   3.869  64.387  1.00  0.00    -0.194 OA 
ENDBRANCH  22  26
ENDBRANCH  17  20
ENDBRANCH  10  13
ENDBRANCH   5   7
TORSDOF 4
ENDMDL
MODEL      122
REMARK 921   NORMALIZED FREE ENERGY PREDICTED BY IDOCK:   14.88 KCAL/MOL
REMARK 922        TOTAL FREE ENERGY PREDICTED BY IDOCK:   17.61 KCAL/MOL
REMARK 923 INTER-LIGAND FREE ENERGY PREDICTED BY IDOCK:   17.81 KCAL/MOL
REMARK 924 INTRA-LIGAND FREE ENERGY PREDICTED BY IDOCK:   -0.20 KCAL/MOL
REMARK 927      BINDING AFFINITY PREDICTED BY RF-SCORE:    0.00 PKD
ROOT
HETATM    1  C   UNL     1     -12.212  19.331  67.228  1.00  0.00     3.252 C  
HETATM    2  N   UNL     1     -12.255  17.907  67.029  1.00  0.00     3.497 NA 
HETATM    3  N   UNL     1     -13.308  17.280  66.493  1.00  0.00     9.582 NA 
HETATM    4  N   UNL     1     -13.003  15.991  66.572  1.00  0.00     3.507 NA 
HETATM    5  C   UNL     1     -11.763  15.908  67.167  1.00  0.00     0.432 A  
HETATM    6  N   UNL     1     -11.256  17.125  67.459  1.00  0.00     0.028 NA 
ENDROOT
BRANCH   5   7
HETATM    7  C   UNL     1     -11.092  14.656  67.512  1.00  0.00    -0.313 A  
HETATM    8  N   UNL     1     -11.464  13.522  66.869  1.00  0.00    -0.329 NA 
HETATM    9  C   UNL     1     -10.867  12.367  67.260  1.00  0.00    -0.243 A  
HETATM   10  C   UNL     1      -9.925  12.241  68.290  1.00  0.00    -0.216 A  
HETATM   11  C   UNL     1     -10.135  14.648  68.520  1.00  0.00    -0.238 A  
HETATM   12  C   UNL     1      -9.564  13.442  68.912  1.00  0.00     0.155 A  
BRANCH  10  13
HETATM   13  C   UNL     1      -9.341  10.941  68.683  1.00  0.00    -0.188 A  
HETATM   14  C   UNL     1      -9.588   9.754  67.974  1.00  0.00    -0.142 A  
HETATM   15  C   UNL     1      -9.065   8.521  68.368  1.00  0.00    -0.139 A  
HETATM   16  F   UNL     1     -10.363   9.759  66.877  1.00  0.00    -0.261 F  
HETATM   17  C   UNL     1      -8.269   8.412  69.506  1.00  0.00    -0.118 A  
HETATM   18  C   UNL     1      -8.492  10.827  69.796  1.00  0.00     0.367 A  
HETATM   19  C   UNL     1      -7.973   9.589  70.205  1.00  0.00    -0.171 A  
BRANCH  17  20
HETATM   20  N   UNL     1      -7.744   7.167  69.921  1.00  0.00    -0.105 N  
HETATM   21  C   UNL     1      -8.549   6.054  70.320  1.00  0.00    -0.143 C  
HETATM   22  C   UNL     1      -7.607   5.290  71.220  1.00  0.00    -0.100 C  
HETATM   23  O   UNL     1      -6.313   5.598  70.682  1.00  0.00    -0.029 OA 
HETATM   24  O   UNL     1      -5.414   7.432  69.705  1.00  0.00    -0.022 OA 
HETATM   25  C   UNL     1      -6.408   6.815  70.048  1.00  0.00    -0.039 C  
BRANCH  22  26
HETATM   26  C   UNL     1      -7.673   5.722  72.690  1.00  0.00    -0.101 C  
HETATM   27  H   UNL     1      -8.624   7.070  73.818  1.00  0.00     0.000 HD 
HETATM   28  O   UNL     1      -8.582   6.803  72.907  1.00  0.00    -0.117 OA 
ENDBRANCH  22  26
ENDBRANCH  17  20
ENDBRANCH  10  13
ENDBRANCH   5   7
TORSDOF 4
ENDMDL
MODEL      123
REMARK 921   NORMALIZED FREE ENERGY PREDICTED BY IDOCK:   26.69 KCAL/MOL
REMARK 922        TOTAL FREE ENERGY PREDICTED BY IDOCK:   32.18 KCAL/MOL
REMARK 923 INTER-LIGAND FREE ENERGY PREDICTED BY IDOCK:   32.81 KCAL/MOL
REMARK 924 INTRA-LIGAND FREE ENERGY PREDICTED BY IDOCK:   -0.63 KCAL/MOL
REMARK 927      BINDING AFFINITY PREDICTED BY RF-SCORE:    0.00 PKD
ROOT
HETATM    1  C   UNL     1      -8.373  14.597  62.505  1.00  0.00    23.553 C  
HETATM    2  N   UNL     1      -8.735  13.940  63.732  1.00  0.00     6.888 NA 
HETATM    3  N   UNL     1      -9.163  14.603  64.812  1.00  0.00     1.385 NA 
HETATM    4  N   UNL     1      -9.295  13.669  65.745  1.00  0.00     0.054 NA 
HETATM    5  C   UNL     1      -8.927  12.472  65.170  1.00  0.00     0.920 A  
HETATM    6  N   UNL     1      -8.576  12.617  63.874  1.00  0.00     2.371 NA 
ENDROOT
BRANCH   5   7
HETATM    7  C   UNL     1      -8.855  11.198  65.882  1.00  0.00    -0.186 A  
HETATM    8  N   UNL     1      -7.665  10.551  65.936  1.00  0.00    -0.145 NA 
HETATM    9  C   UNL     1      -7.648   9.340  66.549  1.00  0.00    -0.093 A  
HETATM   10  C   UNL     1      -8.759   8.687  67.101  1.00  0.00    -0.134 A  
HETATM   11  C   UNL     1     -10.010  10.658  66.436  1.00  0.00    -0.273 A  
HETATM   12  C   UNL     1      -9.960   9.402  67.033  1.00  0.00    -0.282 A  
BRANCH  10  13
HETATM   13  C   UNL     1      -8.670   7.350  67.724  1.00  0.00    -0.126 A  
HETATM   14  C   UNL     1      -8.517   6.172  66.975  1.00  0.00    -0.105 A  
HETATM   15  C   UNL     1      -8.470   4.907  67.563  1.00  0.00    -0.104 A  
HETATM   16  F   UNL     1      -8.422   6.219  65.636  1.00  0.00    -0.128 F  
HETATM   17  C   UNL     1      -8.584   4.755  68.944  1.00  0.00    -0.084 A  
HETATM   18  C   UNL     1      -8.728   7.188  69.119  1.00  0.00    -0.133 A  
HETATM   19  C   UNL     1      -8.694   5.918  69.716  1.00  0.00    -0.129 A  
BRANCH  17  20
HETATM   20  N   UNL     1      -8.550   3.479  69.549  1.00  0.00    -0.064 N  
HETATM   21  C   UNL     1      -9.653   2.569  69.556  1.00  0.00     0.028 C  
HETATM   22  C   UNL     1      -9.365   1.732  70.780  1.00  0.00    -0.115 C  
HETATM   23  O   UNL     1      -7.933   1.754  70.865  1.00  0.00    -0.038 OA 
HETATM   24  O   UNL     1      -6.354   3.303  70.380  1.00  0.00    -0.026 OA 
HETATM   25  C   UNL     1      -7.499   2.907  70.252  1.00  0.00    -0.043 C  
BRANCH  22  26
HETATM   26  C   UNL     1      -9.969   2.299  72.069  1.00  0.00    -0.161 C  
HETATM   27  H   UNL     1     -10.816   3.990  72.715  1.00  0.00     0.000 HD 
HETATM   28  O   UNL     1     -10.441   3.638  71.916  1.00  0.00    -0.021 OA 
ENDBRANCH  22  26
ENDBRANCH  17  20
ENDBRANCH  10  13
ENDBRANCH   5   7
TORSDOF 4
ENDMDL
MODEL      124
REMARK 921   NORMALIZED FREE ENERGY PREDICTED BY IDOCK:   28.71 KCAL/MOL
REMARK 922        TOTAL FREE ENERGY PREDICTED BY IDOCK:   34.67 KCAL/MOL
REMARK 923 INTER-LIGAND FREE ENERGY PREDICTED BY IDOCK:   35.27 KCAL/MOL
REMARK 924 INTRA-LIGAND FREE ENERGY PREDICTED BY IDOCK:   -0.60 KCAL/MOL
REMARK 927      BINDING AFFINITY PREDICTED BY RF-SCORE:    0.00 PKD
ROOT
HETATM    1  C   UNL     1     -13.821  11.978  63.399  1.00  0.00     2.123 C  
HETATM    2  N   UNL     1     -13.464  11.587  64.737  1.00  0.00     1.870 NA 
HETATM    3  N   UNL     1     -13.648  12.381  65.797  1.00  0.00     2.520 NA 
HETATM    4  N   UNL     1     -13.111  11.712  66.810  1.00  0.00     4.445 NA 
HETATM    5  C   UNL     1     -12.618  10.532  66.295  1.00  0.00     6.884 A  
HETATM    6  N   UNL     1     -12.843  10.423  64.968  1.00  0.00     6.743 NA 
ENDROOT
BRANCH   5   7
HETATM    7  C   UNL     1     -11.876   9.538  67.066  1.00  0.00     3.598 A  
HETATM    8  N   UNL     1     -12.569   8.586  67.737  1.00  0.00     7.027 NA 
HETATM    9  C   UNL     1     -11.852   7.719  68.496  1.00  0.00     2.048 A  
HETATM   10  C   UNL     1     -10.462   7.743  68.673  1.00  0.00    -0.199 A  
HETATM   11  C   UNL     1     -10.490   9.624  67.139  1.00  0.00    -0.317 A  
HETATM   12  C   UNL     1      -9.791   8.734  67.948  1.00  0.00    -0.207 A  
BRANCH  10  13
HETATM   13  C   UNL     1      -9.752   6.783  69.544  1.00  0.00    -0.154 A  
HETATM   14  C   UNL     1      -9.505   7.033  70.904  1.00  0.00    -0.160 A  
HETATM   15  C   UNL     1      -8.802   6.142  71.716  1.00  0.00    -0.138 A  
HETATM   16  F   UNL     1      -9.934   8.167  71.481  1.00  0.00    -0.189 F  
HETATM   17  C   UNL     1      -8.298   4.949  71.202  1.00  0.00    -0.113 A  
HETATM   18  C   UNL     1      -9.286   5.553  69.051  1.00  0.00    -0.152 A  
HETATM   19  C   UNL     1      -8.568   4.658  69.859  1.00  0.00    -0.096 A  
BRANCH  17  20
HETATM   20  N   UNL     1      -7.574   4.046  72.011  1.00  0.00    -0.065 N  
HETATM   21  C   UNL     1      -6.211   4.237  72.401  1.00  0.00    -0.017 C  
HETATM   22  C   UNL     1      -5.754   2.821  72.658  1.00  0.00    -0.008 C  
HETATM   23  O   UNL     1      -6.954   2.157  73.079  1.00  0.00    -0.025 OA 
HETATM   24  O   UNL     1      -9.140   2.364  72.525  1.00  0.00    -0.076 OA 
HETATM   25  C   UNL     1      -8.018   2.837  72.530  1.00  0.00    -0.055 C  
BRANCH  22  26
HETATM   26  C   UNL     1      -5.184   2.124  71.417  1.00  0.00    -0.004 C  
HETATM   27  H   UNL     1      -5.166   2.366  69.433  1.00  0.00     0.000 HD 
HETATM   28  O   UNL     1      -5.519   2.797  70.202  1.00  0.00    -0.014 OA 
ENDBRANCH  22  26
ENDBRANCH  17  20
ENDBRANCH  10  13
ENDBRANCH   5   7
TORSDOF 4
ENDMDL
MODEL      125
REMARK 921   NORMALIZED FREE ENERGY PREDICTED BY IDOCK:   38.75 KCAL/MOL
REMARK 922        TOTAL FREE ENERGY PREDICTED BY IDOCK:   47.07 KCAL/MOL
REMARK 923 INTER-LIGAND FREE ENERGY PREDICTED BY IDOCK:   47.58 KCAL/MOL
REMARK 924 INTRA-LIGAND FREE ENERGY PREDICTED BY IDOCK:   -0.51 KCAL/MOL
REMARK 927      BINDING AFFINITY PREDICTED BY RF-SCORE:    0.00 PKD
ROOT
HETATM    1  C   UNL     1      -6.840  17.131  72.596  1.00  0.00     7.788 C  
HETATM    2  N   UNL     1      -7.126  15.728  72.458  1.00  0.00     5.655 NA 
HETATM    3  N   UNL     1      -7.028  14.864  73.474  1.00  0.00     3.208 NA 
HETATM    4  N   UNL     1      -7.271  13.679  72.927  1.00  0.00     4.609 NA 
HETATM    5  C   UNL     1      -7.502  13.896  71.586  1.00  0.00     4.894 A  
HETATM    6  N   UNL     1      -7.426  15.204  71.262  1.00  0.00     1.960 NA 
ENDROOT
BRANCH   5   7
HETATM    7  C   UNL     1      -7.734  12.839  70.604  1.00  0.00     4.800 A  
HETATM    8  N   UNL     1      -8.976  12.307  70.504  1.00  0.00     5.402 NA 
HETATM    9  C   UNL     1      -9.141  11.282  69.628  1.00  0.00     0.878 A  
HETATM   10  C   UNL     1      -8.132  10.706  68.844  1.00  0.00    -0.139 A  
HETATM   11  C   UNL     1      -6.671  12.369  69.840  1.00  0.00     0.221 A  
HETATM   12  C   UNL     1      -6.871  11.301  68.973  1.00  0.00    -0.099 A  
BRANCH  10  13
HETATM   13  C   UNL     1      -8.380   9.568  67.935  1.00  0.00    -0.115 A  
HETATM   14  C   UNL     1      -9.034   9.712  66.701  1.00  0.00    -0.146 A  
HETATM   15  C   UNL     1      -9.300   8.629  65.860  1.00  0.00    -0.262 A  
HETATM   16  F   UNL     1      -9.449  10.918  66.282  1.00  0.00    -0.191 F  
HETATM   17  C   UNL     1      -8.928   7.335  66.220  1.00  0.00    -0.156 A  
HETATM   18  C   UNL     1      -7.961   8.267  68.261  1.00  0.00    -0.119 A  
HETATM   19  C   UNL     1      -8.235   7.173  67.426  1.00  0.00    -0.116 A  
BRANCH  17  20
HETATM   20  N   UNL     1      -9.202   6.231  65.383  1.00  0.00     0.173 N  
HETATM   21  C   UNL     1      -9.067   6.254  63.959  1.00  0.00     1.075 C  
HETATM   22  C   UNL     1     -10.029   5.170  63.533  1.00  0.00     1.086 C  
HETATM   23  O   UNL     1     -10.014   4.260  64.643  1.00  0.00    -0.175 OA 
HETATM   24  O   UNL     1      -9.806   4.518  66.883  1.00  0.00    -0.193 OA 
HETATM   25  C   UNL     1      -9.668   4.980  65.764  1.00  0.00    -0.141 C  
BRANCH  22  26
HETATM   26  C   UNL     1     -11.457   5.673  63.294  1.00  0.00     5.761 C  
HETATM   27  H   UNL     1     -13.184   4.996  62.551  1.00  0.00     0.000 HD 
HETATM   28  O   UNL     1     -12.298   4.684  62.699  1.00  0.00     1.923 OA 
ENDBRANCH  22  26
ENDBRANCH  17  20
ENDBRANCH  10  13
ENDBRANCH   5   7
TORSDOF 4
ENDMDL
MODEL      126
REMARK 921   NORMALIZED FREE ENERGY PREDICTED BY IDOCK:   41.23 KCAL/MOL
REMARK 922        TOTAL FREE ENERGY PREDICTED BY IDOCK:   50.12 KCAL/MOL
REMARK 923 INTER-LIGAND FREE ENERGY PREDICTED BY IDOCK:   50.06 KCAL/MOL
REMARK 924 INTRA-LIGAND FREE ENERGY PREDICTED BY IDOCK:    0.05 KCAL/MOL
REMARK 927      BINDING AFFINITY PREDICTED BY RF-SCORE:    0.00 PKD
ROOT
HETATM    1  C   UNL     1     -14.333  12.525  62.919  1.00  0.00     6.311 C  
HETATM    2  N   UNL     1     -13.977  12.118  64.252  1.00  0.00     0.935 NA 
HETATM    3  N   UNL     1     -14.165  12.897  65.323  1.00  0.00     2.677 NA 
HETATM    4  N   UNL     1     -13.627  12.216  66.327  1.00  0.00     5.196 NA 
HETATM    5  C   UNL     1     -13.130  11.045  65.797  1.00  0.00     7.568 A  
HETATM    6  N   UNL     1     -13.353  10.953  64.469  1.00  0.00     3.829 NA 
ENDROOT
BRANCH   5   7
HETATM    7  C   UNL     1     -12.385  10.043  66.557  1.00  0.00     6.829 A  
HETATM    8  N   UNL     1     -13.077   9.080  67.214  1.00  0.00    12.676 NA 
HETATM    9  C   UNL     1     -12.358   8.205  67.962  1.00  0.00     5.828 A  
HETATM   10  C   UNL     1     -10.968   8.231  68.141  1.00  0.00     0.149 A  
HETATM   11  C   UNL     1     -11.000  10.133  66.632  1.00  0.00     0.007 A  
HETATM   12  C   UNL     1     -10.299   9.234  67.430  1.00  0.00    -0.327 A  
BRANCH  10  13
HETATM   13  C   UNL     1     -10.256   7.262  69.000  1.00  0.00    -0.197 A  
HETATM   14  C   UNL     1      -9.224   6.440  68.521  1.00  0.00    -0.124 A  
HETATM   15  C   UNL     1      -8.577   5.500  69.326  1.00  0.00    -0.104 A  
HETATM   16  F   UNL     1      -8.821   6.520  67.243  1.00  0.00    -0.114 F  
HETATM   17  C   UNL     1      -8.941   5.328  70.660  1.00  0.00    -0.134 A  
HETATM   18  C   UNL     1     -10.576   7.118  70.361  1.00  0.00    -0.242 A  
HETATM   19  C   UNL     1      -9.938   6.167  71.172  1.00  0.00    -0.218 A  
BRANCH  17  20
HETATM   20  N   UNL     1      -8.302   4.371  71.480  1.00  0.00    -0.095 N  
HETATM   21  C   UNL     1      -8.833   3.901  72.722  1.00  0.00    -0.098 C  
HETATM   22  C   UNL     1      -7.587   3.457  73.451  1.00  0.00    -0.061 C  
HETATM   23  O   UNL     1      -6.707   3.060  72.390  1.00  0.00    -0.018 OA 
HETATM   24  O   UNL     1      -6.359   3.800  70.278  1.00  0.00    -0.026 OA 
HETATM   25  C   UNL     1      -7.075   3.759  71.263  1.00  0.00    -0.033 C  
BRANCH  22  26
HETATM   26  C   UNL     1      -6.931   4.567  74.280  1.00  0.00    -0.071 C  
HETATM   27  H   UNL     1      -6.705   6.552  74.223  1.00  0.00     0.000 HD 
HETATM   28  O   UNL     1      -7.111   5.864  73.709  1.00  0.00    -0.081 OA 
ENDBRANCH  22  26
ENDBRANCH  17  20
ENDBRANCH  10  13
ENDBRANCH   5   7
TORSDOF 4
ENDMDL
MODEL      127
REMARK 921   NORMALIZED FREE ENERGY PREDICTED BY IDOCK:   44.20 KCAL/MOL
REMARK 922        TOTAL FREE ENERGY PREDICTED BY IDOCK:   53.79 KCAL/MOL
REMARK 923 INTER-LIGAND FREE ENERGY PREDICTED BY IDOCK:   54.30 KCAL/MOL
REMARK 924 INTRA-LIGAND FREE ENERGY PREDICTED BY IDOCK:   -0.51 KCAL/MOL
REMARK 927      BINDING AFFINITY PREDICTED BY RF-SCORE:    0.00 PKD
ROOT
HETATM    1  C   UNL     1      -6.849  17.134  72.601  1.00  0.00     7.788 C  
HETATM    2  N   UNL     1      -7.215  15.749  72.466  1.00  0.00     6.247 NA 
HETATM    3  N   UNL     1      -7.143  14.878  73.478  1.00  0.00     3.692 NA 
HETATM    4  N   UNL     1      -7.464  13.711  72.935  1.00  0.00     5.947 NA 
HETATM    5  C   UNL     1      -7.711  13.944  71.599  1.00  0.00     5.933 A  
HETATM    6  N   UNL     1      -7.570  15.247  71.276  1.00  0.00     2.297 NA 
ENDROOT
BRANCH   5   7
HETATM    7  C   UNL     1      -8.022  12.904  70.621  1.00  0.00     5.532 A  
HETATM    8  N   UNL     1      -7.026  12.442  69.825  1.00  0.00     0.230 NA 
HETATM    9  C   UNL     1      -7.364  11.525  68.884  1.00  0.00    -0.116 A  
HETATM   10  C   UNL     1      -8.656  11.038  68.642  1.00  0.00    -0.157 A  
HETATM   11  C   UNL     1      -9.332  12.456  70.493  1.00  0.00     6.398 A  
HETATM   12  C   UNL     1      -9.645  11.534  69.499  1.00  0.00     0.705 A  
BRANCH  10  13
HETATM   13  C   UNL     1      -8.954  10.061  67.573  1.00  0.00    -0.141 A  
HETATM   14  C   UNL     1      -8.633   8.698  67.682  1.00  0.00    -0.136 A  
HETATM   15  C   UNL     1      -8.882   7.783  66.657  1.00  0.00    -0.166 A  
HETATM   16  F   UNL     1      -8.051   8.217  68.792  1.00  0.00    -0.111 F  
HETATM   17  C   UNL     1      -9.461   8.193  65.458  1.00  0.00     0.342 A  
HETATM   18  C   UNL     1      -9.587  10.450  66.382  1.00  0.00    -0.225 A  
HETATM   19  C   UNL     1      -9.829   9.538  65.343  1.00  0.00    -0.248 A  
BRANCH  17  20
HETATM   20  N   UNL     1      -9.707   7.278  64.409  1.00  0.00     2.976 N  
HETATM   21  C   UNL     1     -10.199   5.950  64.606  1.00  0.00     2.538 C  
HETATM   22  C   UNL     1      -9.692   5.239  63.373  1.00  0.00     0.966 C  
HETATM   23  O   UNL     1      -9.648   6.280  62.387  1.00  0.00     0.978 OA 
HETATM   24  O   UNL     1      -9.188   8.496  62.461  1.00  0.00     0.290 OA 
HETATM   25  C   UNL     1      -9.492   7.474  63.052  1.00  0.00     2.913 C  
BRANCH  22  26
HETATM   26  C   UNL     1      -8.297   4.628  63.545  1.00  0.00    -0.113 C  
HETATM   27  H   UNL     1      -7.057   3.412  62.556  1.00  0.00     0.000 HD 
HETATM   28  O   UNL     1      -7.922   3.791  62.450  1.00  0.00    -0.061 OA 
ENDBRANCH  22  26
ENDBRANCH  17  20
ENDBRANCH  10  13
ENDBRANCH   5   7
TORSDOF 4
ENDMDL
MODEL      128
REMARK 921   NORMALIZED FREE ENERGY PREDICTED BY IDOCK:   46.18 KCAL/MOL
REMARK 922        TOTAL FREE ENERGY PREDICTED BY IDOCK:   56.23 KCAL/MOL
REMARK 923 INTER-LIGAND FREE ENERGY PREDICTED BY IDOCK:   56.84 KCAL/MOL
REMARK 924 INTRA-LIGAND FREE ENERGY PREDICTED BY IDOCK:   -0.61 KCAL/MOL
REMARK 927      BINDING AFFINITY PREDICTED BY RF-SCORE:    0.00 PKD
ROOT
HETATM    1  C   UNL     1     -13.739   6.522  72.663  1.00  0.00     0.897 C  
HETATM    2  N   UNL     1     -13.479   7.921  72.446  1.00  0.00     0.006 NA 
HETATM    3  N   UNL     1     -13.864   8.871  73.305  1.00  0.00    -0.058 NA 
HETATM    4  N   UNL     1     -13.534  10.010  72.709  1.00  0.00     0.234 NA 
HETATM    5  C   UNL     1     -12.963   9.679  71.499  1.00  0.00    -0.395 A  
HETATM    6  N   UNL     1     -12.906   8.343  71.312  1.00  0.00    -0.232 NA 
ENDROOT
BRANCH   5   7
HETATM    7  C   UNL     1     -12.529  10.648  70.495  1.00  0.00    -0.358 A  
HETATM    8  N   UNL     1     -11.980  10.189  69.344  1.00  0.00     0.019 NA 
HETATM    9  C   UNL     1     -11.529  11.117  68.462  1.00  0.00    -0.302 A  
HETATM   10  C   UNL     1     -11.551  12.506  68.652  1.00  0.00    -0.357 A  
HETATM   11  C   UNL     1     -12.639  12.008  70.765  1.00  0.00    -0.312 A  
HETATM   12  C   UNL     1     -12.141  12.929  69.849  1.00  0.00    -0.335 A  
BRANCH  10  13
HETATM   13  C   UNL     1     -11.009  13.457  67.659  1.00  0.00    -0.277 A  
HETATM   14  C   UNL     1     -11.815  14.387  66.982  1.00  0.00    -0.412 A  
HETATM   15  C   UNL     1     -11.307  15.259  66.018  1.00  0.00    -0.162 A  
HETATM   16  F   UNL     1     -13.132  14.464  67.234  1.00  0.00     0.374 F  
HETATM   17  C   UNL     1      -9.957  15.238  65.673  1.00  0.00    -0.364 A  
HETATM   18  C   UNL     1      -9.641  13.482  67.342  1.00  0.00    -0.227 A  
HETATM   19  C   UNL     1      -9.127  14.348  66.364  1.00  0.00    -0.192 A  
BRANCH  17  20
HETATM   20  N   UNL     1      -9.435  16.107  64.689  1.00  0.00     2.106 N  
HETATM   21  C   UNL     1      -8.422  17.084  64.943  1.00  0.00     4.306 C  
HETATM   22  C   UNL     1      -8.680  18.098  63.853  1.00  0.00    13.316 C  
HETATM   23  O   UNL     1      -9.228  17.306  62.789  1.00  0.00    16.874 OA 
HETATM   24  O   UNL     1     -10.560  15.476  62.719  1.00  0.00     5.502 OA 
HETATM   25  C   UNL     1      -9.815  16.199  63.357  1.00  0.00    10.233 C  
BRANCH  22  26
HETATM   26  C   UNL     1      -9.676  19.191  64.253  1.00  0.00     7.383 C  
HETATM   27  H   UNL     1     -10.869  19.648  65.790  1.00  0.00     0.000 HD 
HETATM   28  O   UNL     1     -10.251  18.970  65.542  1.00  0.00    -0.430 OA 
ENDBRANCH  22  26
ENDBRANCH  17  20
ENDBRANCH  10  13
ENDBRANCH   5   7
TORSDOF 4
ENDMDL
