MODEL        1
REMARK 921   NORMALIZED FREE ENERGY PREDICTED BY IDOCK:   -8.18 KCAL/MOL
REMARK 922        TOTAL FREE ENERGY PREDICTED BY IDOCK:  -11.33 KCAL/MOL
REMARK 923 INTER-LIGAND FREE ENERGY PREDICTED BY IDOCK:  -10.57 KCAL/MOL
REMARK 924 INTRA-LIGAND FREE ENERGY PREDICTED BY IDOCK:   -0.76 KCAL/MOL
REMARK 927      BINDING AFFINITY PREDICTED BY RF-SCORE:    0.00 PKD
ROOT
HETATM    1  C   UNL     1     -10.855   3.047  73.603  1.00  0.00    -0.217 C  
HETATM    2  N   UNL     1     -10.735   4.476  73.500  1.00  0.00    -0.230 NA 
HETATM    3  N   UNL     1     -10.383   5.231  74.546  1.00  0.00    -0.273 NA 
HETATM    4  N   UNL     1     -10.403   6.473  74.083  1.00  0.00    -0.354 NA 
HETATM    5  C   UNL     1     -10.776   6.404  72.757  1.00  0.00    -0.239 A  
HETATM    6  N   UNL     1     -10.994   5.133  72.355  1.00  0.00    -0.210 NA 
ENDROOT
BRANCH   5   7
HETATM    7  C   UNL     1     -10.878   7.587  71.902  1.00  0.00    -0.227 A  
HETATM    8  C   UNL     1     -11.949   8.467  72.009  1.00  0.00    -0.427 A  
HETATM    9  C   UNL     1     -12.046   9.535  71.110  1.00  0.00    -0.429 A  
HETATM   10  C   UNL     1     -11.088   9.716  70.101  1.00  0.00    -0.314 A  
HETATM   11  N   UNL     1      -9.904   7.760  70.976  1.00  0.00    -0.174 NA 
HETATM   12  C   UNL     1     -10.032   8.801  70.116  1.00  0.00    -0.184 A  
BRANCH  10  13
HETATM   13  C   UNL     1     -11.228  10.735  69.037  1.00  0.00    -0.322 A  
HETATM   14  C   UNL     1     -11.033  10.401  67.687  1.00  0.00    -0.374 A  
HETATM   15  C   UNL     1     -11.035  11.374  66.677  1.00  0.00    -0.341 A  
HETATM   16  C   UNL     1     -11.238  12.724  66.969  1.00  0.00    -0.292 A  
HETATM   17  F   UNL     1     -11.710  12.502  70.559  1.00  0.00    -0.357 F  
HETATM   18  C   UNL     1     -11.477  13.066  68.301  1.00  0.00    -0.347 A  
HETATM   19  C   UNL     1     -11.474  12.090  69.304  1.00  0.00    -0.301 A  
BRANCH  16  20
HETATM   20  N   UNL     1     -11.233  13.705  65.952  1.00  0.00    -0.303 N  
HETATM   21  C   UNL     1     -10.547  15.611  64.917  1.00  0.00    -0.316 C  
HETATM   22  C   UNL     1     -10.041  14.267  65.384  1.00  0.00    -0.351 C  
HETATM   23  O   UNL     1     -11.897  15.329  64.532  1.00  0.00    -0.403 OA 
HETATM   24  O   UNL     1     -13.512  14.005  65.425  1.00  0.00    -0.679 OA 
HETATM   25  C   UNL     1     -12.332  14.291  65.327  1.00  0.00    -0.424 C  
BRANCH  21  26
HETATM   26  C   UNL     1     -10.564  16.664  66.027  1.00  0.00    -0.233 C  
BRANCH  26  27
HETATM   27  O   UNL     1     -10.566  17.979  65.490  1.00  0.00    -0.639 OA 
HETATM   28  P   UNL     1     -10.001  19.152  66.630  1.00  0.00    -0.443 P  
HETATM   29  O   UNL     1      -8.518  18.820  66.025  1.00  0.00    -0.480 OA 
HETATM   30  O   UNL     1      -9.496  20.202  67.649  1.00  0.00    -0.361 OA 
HETATM   31  O   UNL     1     -10.439  20.265  65.515  1.00  0.00    -0.328 OA 
ENDBRANCH  26  27
ENDBRANCH  21  26
ENDBRANCH  16  20
ENDBRANCH  10  13
ENDBRANCH   5   7
TORSDOF 5
ENDMDL
MODEL        2
REMARK 921   NORMALIZED FREE ENERGY PREDICTED BY IDOCK:   -7.69 KCAL/MOL
REMARK 922        TOTAL FREE ENERGY PREDICTED BY IDOCK:  -10.70 KCAL/MOL
REMARK 923 INTER-LIGAND FREE ENERGY PREDICTED BY IDOCK:   -9.84 KCAL/MOL
REMARK 924 INTRA-LIGAND FREE ENERGY PREDICTED BY IDOCK:   -0.87 KCAL/MOL
REMARK 927      BINDING AFFINITY PREDICTED BY RF-SCORE:    0.00 PKD
ROOT
HETATM    1  C   UNL     1     -11.036   3.349  73.818  1.00  0.00    -0.196 C  
HETATM    2  N   UNL     1     -10.795   4.755  73.631  1.00  0.00    -0.283 NA 
HETATM    3  N   UNL     1     -10.188   5.496  74.564  1.00  0.00    -0.269 NA 
HETATM    4  N   UNL     1     -10.167   6.720  74.056  1.00  0.00    -0.358 NA 
HETATM    5  C   UNL     1     -10.778   6.656  72.820  1.00  0.00    -0.243 A  
HETATM    6  N   UNL     1     -11.190   5.404  72.521  1.00  0.00    -0.262 NA 
ENDROOT
BRANCH   5   7
HETATM    7  C   UNL     1     -10.913   7.819  71.944  1.00  0.00    -0.249 A  
HETATM    8  C   UNL     1     -12.095   8.550  71.889  1.00  0.00    -0.411 A  
HETATM    9  C   UNL     1     -12.204   9.601  70.971  1.00  0.00    -0.409 A  
HETATM   10  C   UNL     1     -11.147   9.911  70.104  1.00  0.00    -0.353 A  
HETATM   11  N   UNL     1      -9.851   8.123  71.160  1.00  0.00    -0.166 NA 
HETATM   12  C   UNL     1      -9.992   9.143  70.278  1.00  0.00    -0.208 A  
BRANCH  10  13
HETATM   13  C   UNL     1     -11.269  10.908  69.016  1.00  0.00    -0.327 A  
HETATM   14  C   UNL     1     -11.127  10.531  67.671  1.00  0.00    -0.375 A  
HETATM   15  C   UNL     1     -11.112  11.478  66.636  1.00  0.00    -0.355 A  
HETATM   16  C   UNL     1     -11.245  12.843  66.897  1.00  0.00    -0.291 A  
HETATM   17  F   UNL     1     -11.628  12.734  70.504  1.00  0.00    -0.279 F  
HETATM   18  C   UNL     1     -11.431  13.229  68.226  1.00  0.00    -0.351 A  
HETATM   19  C   UNL     1     -11.446  12.279  69.254  1.00  0.00    -0.292 A  
BRANCH  16  20
HETATM   20  N   UNL     1     -11.223  13.797  65.855  1.00  0.00    -0.300 N  
HETATM   21  C   UNL     1     -10.623  15.743  64.842  1.00  0.00    -0.284 C  
HETATM   22  C   UNL     1     -10.038  14.472  65.409  1.00  0.00    -0.364 C  
HETATM   23  O   UNL     1     -11.881  15.309  64.314  1.00  0.00    -0.384 OA 
HETATM   24  O   UNL     1     -13.442  13.837  65.059  1.00  0.00    -0.386 OA 
HETATM   25  C   UNL     1     -12.296  14.246  65.088  1.00  0.00    -0.424 C  
BRANCH  21  26
HETATM   26  C   UNL     1     -10.881  16.812  65.906  1.00  0.00    -0.053 C  
BRANCH  26  27
HETATM   27  O   UNL     1      -9.827  17.763  65.948  1.00  0.00    -0.524 OA 
HETATM   28  P   UNL     1     -10.052  18.933  67.203  1.00  0.00    -0.413 P  
HETATM   29  O   UNL     1      -9.240  17.870  68.147  1.00  0.00    -0.264 OA 
HETATM   30  O   UNL     1     -10.252  19.980  68.327  1.00  0.00    -0.433 OA 
HETATM   31  O   UNL     1      -8.749  19.686  66.565  1.00  0.00    -0.328 OA 
ENDBRANCH  26  27
ENDBRANCH  21  26
ENDBRANCH  16  20
ENDBRANCH  10  13
ENDBRANCH   5   7
TORSDOF 5
ENDMDL
MODEL        3
REMARK 921   NORMALIZED FREE ENERGY PREDICTED BY IDOCK:   -7.49 KCAL/MOL
REMARK 922        TOTAL FREE ENERGY PREDICTED BY IDOCK:  -10.43 KCAL/MOL
REMARK 923 INTER-LIGAND FREE ENERGY PREDICTED BY IDOCK:   -9.79 KCAL/MOL
REMARK 924 INTRA-LIGAND FREE ENERGY PREDICTED BY IDOCK:   -0.65 KCAL/MOL
REMARK 927      BINDING AFFINITY PREDICTED BY RF-SCORE:    0.00 PKD
ROOT
HETATM    1  C   UNL     1      -9.860  20.437  67.067  1.00  0.00    -0.453 C  
HETATM    2  N   UNL     1     -10.178  19.041  66.929  1.00  0.00    -0.360 NA 
HETATM    3  N   UNL     1     -10.164  18.430  65.740  1.00  0.00    -0.578 NA 
HETATM    4  N   UNL     1     -10.526  17.182  66.002  1.00  0.00    -0.346 NA 
HETATM    5  C   UNL     1     -10.748  17.102  67.362  1.00  0.00    -0.242 A  
HETATM    6  N   UNL     1     -10.531  18.282  67.983  1.00  0.00    -0.384 NA 
ENDROOT
BRANCH   5   7
HETATM    7  C   UNL     1     -11.137  15.859  68.027  1.00  0.00    -0.334 A  
HETATM    8  C   UNL     1     -11.192  15.768  69.414  1.00  0.00    -0.324 A  
HETATM    9  C   UNL     1     -11.484  14.533  70.004  1.00  0.00    -0.311 A  
HETATM   10  C   UNL     1     -11.706  13.393  69.217  1.00  0.00    -0.383 A  
HETATM   11  N   UNL     1     -11.398  14.794  67.233  1.00  0.00    -0.347 NA 
HETATM   12  C   UNL     1     -11.671  13.611  67.837  1.00  0.00    -0.360 A  
BRANCH  10  13
HETATM   13  C   UNL     1     -11.865  12.039  69.794  1.00  0.00    -0.401 A  
HETATM   14  C   UNL     1     -12.625  11.835  70.958  1.00  0.00    -0.409 A  
HETATM   15  C   UNL     1     -12.684  10.586  71.592  1.00  0.00    -0.550 A  
HETATM   16  C   UNL     1     -11.992   9.482  71.089  1.00  0.00    -0.348 A  
HETATM   17  F   UNL     1     -10.494  10.995  68.151  1.00  0.00    -0.179 F  
HETATM   18  C   UNL     1     -11.267   9.659  69.909  1.00  0.00    -0.244 A  
HETATM   19  C   UNL     1     -11.213  10.909  69.281  1.00  0.00    -0.265 A  
BRANCH  16  20
HETATM   20  N   UNL     1     -12.046   8.225  71.732  1.00  0.00    -0.301 N  
HETATM   21  C   UNL     1     -11.235   6.212  72.415  1.00  0.00    -0.287 C  
HETATM   22  C   UNL     1     -10.993   7.697  72.552  1.00  0.00    -0.324 C  
HETATM   23  O   UNL     1     -12.660   6.129  72.302  1.00  0.00    -0.192 OA 
HETATM   24  O   UNL     1     -14.200   7.408  71.230  1.00  0.00    -0.407 OA 
HETATM   25  C   UNL     1     -13.083   7.296  71.702  1.00  0.00    -0.369 C  
BRANCH  21  26
HETATM   26  C   UNL     1     -10.607   5.616  71.153  1.00  0.00    -0.245 C  
BRANCH  26  27
HETATM   27  O   UNL     1      -9.990   6.620  70.360  1.00  0.00    -0.175 OA 
HETATM   28  P   UNL     1      -9.595   6.050  68.775  1.00  0.00    -0.138 P  
HETATM   29  O   UNL     1     -11.103   6.544  68.374  1.00  0.00    -0.293 OA 
HETATM   30  O   UNL     1      -9.242   5.540  67.356  1.00  0.00    -0.111 OA 
HETATM   31  O   UNL     1      -8.842   7.488  68.580  1.00  0.00    -0.128 OA 
ENDBRANCH  26  27
ENDBRANCH  21  26
ENDBRANCH  16  20
ENDBRANCH  10  13
ENDBRANCH   5   7
TORSDOF 5
ENDMDL
MODEL        4
REMARK 921   NORMALIZED FREE ENERGY PREDICTED BY IDOCK:   -7.42 KCAL/MOL
REMARK 922        TOTAL FREE ENERGY PREDICTED BY IDOCK:  -10.35 KCAL/MOL
REMARK 923 INTER-LIGAND FREE ENERGY PREDICTED BY IDOCK:   -9.40 KCAL/MOL
REMARK 924 INTRA-LIGAND FREE ENERGY PREDICTED BY IDOCK:   -0.95 KCAL/MOL
REMARK 927      BINDING AFFINITY PREDICTED BY RF-SCORE:    0.00 PKD
ROOT
HETATM    1  C   UNL     1     -10.335  19.692  66.085  1.00  0.00    -0.530 C  
HETATM    2  N   UNL     1     -10.619  18.296  65.884  1.00  0.00    -0.507 NA 
HETATM    3  N   UNL     1     -11.041  17.826  64.706  1.00  0.00    -0.599 NA 
HETATM    4  N   UNL     1     -11.218  16.528  64.909  1.00  0.00    -0.426 NA 
HETATM    5  C   UNL     1     -10.891  16.276  66.226  1.00  0.00    -0.098 A  
HETATM    6  N   UNL     1     -10.502  17.395  66.876  1.00  0.00    -0.310 NA 
ENDROOT
BRANCH   5   7
HETATM    7  C   UNL     1     -10.935  14.935  66.808  1.00  0.00    -0.326 A  
HETATM    8  C   UNL     1     -11.862  13.991  66.379  1.00  0.00    -0.437 A  
HETATM    9  C   UNL     1     -11.921  12.752  67.028  1.00  0.00    -0.364 A  
HETATM   10  C   UNL     1     -11.073  12.463  68.107  1.00  0.00    -0.288 A  
HETATM   11  N   UNL     1     -10.063  14.673  67.811  1.00  0.00    -0.227 NA 
HETATM   12  C   UNL     1     -10.152  13.466  68.422  1.00  0.00    -0.244 A  
BRANCH  10  13
HETATM   13  C   UNL     1     -11.202  11.233  68.920  1.00  0.00    -0.315 A  
HETATM   14  C   UNL     1     -11.867  11.251  70.157  1.00  0.00    -0.449 A  
HETATM   15  C   UNL     1     -11.889  10.130  71.000  1.00  0.00    -0.475 A  
HETATM   16  C   UNL     1     -11.254   8.939  70.643  1.00  0.00    -0.266 A  
HETATM   17  F   UNL     1      -9.981   9.886  67.380  1.00  0.00    -0.185 F  
HETATM   18  C   UNL     1     -10.626   8.892  69.397  1.00  0.00    -0.226 A  
HETATM   19  C   UNL     1     -10.608  10.014  68.560  1.00  0.00    -0.215 A  
BRANCH  16  20
HETATM   20  N   UNL     1     -11.271   7.812  71.496  1.00  0.00    -0.240 N  
HETATM   21  C   UNL     1     -10.590   6.531  73.247  1.00  0.00    -0.276 C  
HETATM   22  C   UNL     1     -11.175   7.885  72.925  1.00  0.00    -0.366 C  
HETATM   23  O   UNL     1     -11.170   5.686  72.247  1.00  0.00    -0.266 OA 
HETATM   24  O   UNL     1     -11.613   5.989  70.040  1.00  0.00    -0.317 OA 
HETATM   25  C   UNL     1     -11.383   6.471  71.134  1.00  0.00    -0.314 C  
BRANCH  21  26
HETATM   26  C   UNL     1      -9.067   6.485  73.106  1.00  0.00    -0.127 C  
BRANCH  26  27
HETATM   27  O   UNL     1      -8.454   7.579  73.772  1.00  0.00    -0.152 OA 
HETATM   28  P   UNL     1      -6.950   8.028  73.045  1.00  0.00    -0.100 P  
HETATM   29  O   UNL     1      -7.859   9.007  72.100  1.00  0.00    -0.355 OA 
HETATM   30  O   UNL     1      -5.603   8.430  72.394  1.00  0.00    -0.039 OA 
HETATM   31  O   UNL     1      -6.784   9.049  74.310  1.00  0.00    -0.355 OA 
ENDBRANCH  26  27
ENDBRANCH  21  26
ENDBRANCH  16  20
ENDBRANCH  10  13
ENDBRANCH   5   7
TORSDOF 5
ENDMDL
MODEL        5
REMARK 921   NORMALIZED FREE ENERGY PREDICTED BY IDOCK:   -7.38 KCAL/MOL
REMARK 922        TOTAL FREE ENERGY PREDICTED BY IDOCK:  -10.30 KCAL/MOL
REMARK 923 INTER-LIGAND FREE ENERGY PREDICTED BY IDOCK:   -9.35 KCAL/MOL
REMARK 924 INTRA-LIGAND FREE ENERGY PREDICTED BY IDOCK:   -0.95 KCAL/MOL
REMARK 927      BINDING AFFINITY PREDICTED BY RF-SCORE:    0.00 PKD
ROOT
HETATM    1  C   UNL     1      -9.711  20.571  67.232  1.00  0.00    -0.460 C  
HETATM    2  N   UNL     1     -10.075  19.186  67.103  1.00  0.00    -0.349 NA 
HETATM    3  N   UNL     1     -10.137  18.582  65.912  1.00  0.00    -0.557 NA 
HETATM    4  N   UNL     1     -10.523  17.344  66.185  1.00  0.00    -0.327 NA 
HETATM    5  C   UNL     1     -10.681  17.262  67.554  1.00  0.00    -0.278 A  
HETATM    6  N   UNL     1     -10.398  18.431  68.169  1.00  0.00    -0.375 NA 
ENDROOT
BRANCH   5   7
HETATM    7  C   UNL     1     -11.073  16.026  68.232  1.00  0.00    -0.351 A  
HETATM    8  C   UNL     1     -10.851  15.847  69.593  1.00  0.00    -0.314 A  
HETATM    9  C   UNL     1     -11.164  14.614  70.177  1.00  0.00    -0.230 A  
HETATM   10  C   UNL     1     -11.680  13.563  69.406  1.00  0.00    -0.381 A  
HETATM   11  N   UNL     1     -11.620  15.053  67.465  1.00  0.00    -0.333 NA 
HETATM   12  C   UNL     1     -11.905  13.869  68.061  1.00  0.00    -0.375 A  
BRANCH  10  13
HETATM   13  C   UNL     1     -11.881  12.198  69.944  1.00  0.00    -0.392 A  
HETATM   14  C   UNL     1     -12.772  11.964  71.003  1.00  0.00    -0.354 A  
HETATM   15  C   UNL     1     -12.883  10.705  71.612  1.00  0.00    -0.570 A  
HETATM   16  C   UNL     1     -12.112   9.622  71.185  1.00  0.00    -0.362 A  
HETATM   17  F   UNL     1     -10.299  11.202  68.468  1.00  0.00    -0.166 F  
HETATM   18  C   UNL     1     -11.253   9.828  70.103  1.00  0.00    -0.324 A  
HETATM   19  C   UNL     1     -11.149  11.087  69.501  1.00  0.00    -0.263 A  
BRANCH  16  20
HETATM   20  N   UNL     1     -12.219   8.355  71.802  1.00  0.00    -0.311 N  
HETATM   21  C   UNL     1     -11.462   6.337  72.530  1.00  0.00    -0.261 C  
HETATM   22  C   UNL     1     -11.245   7.820  72.710  1.00  0.00    -0.398 C  
HETATM   23  O   UNL     1     -12.870   6.248  72.282  1.00  0.00    -0.127 OA 
HETATM   24  O   UNL     1     -14.310   7.535  71.087  1.00  0.00    -0.370 OA 
HETATM   25  C   UNL     1     -13.242   7.421  71.661  1.00  0.00    -0.362 C  
BRANCH  21  26
HETATM   26  C   UNL     1     -10.715   5.762  71.325  1.00  0.00    -0.258 C  
BRANCH  26  27
HETATM   27  O   UNL     1      -9.600   6.570  70.976  1.00  0.00    -0.174 OA 
HETATM   28  P   UNL     1      -8.124   5.667  70.940  1.00  0.00    -0.122 P  
HETATM   29  O   UNL     1      -8.505   5.374  69.376  1.00  0.00    -0.098 OA 
HETATM   30  O   UNL     1      -6.803   4.860  70.908  1.00  0.00    -0.037 OA 
HETATM   31  O   UNL     1      -7.391   7.110  70.712  1.00  0.00    -0.070 OA 
ENDBRANCH  26  27
ENDBRANCH  21  26
ENDBRANCH  16  20
ENDBRANCH  10  13
ENDBRANCH   5   7
TORSDOF 5
ENDMDL
MODEL        6
REMARK 921   NORMALIZED FREE ENERGY PREDICTED BY IDOCK:   -7.34 KCAL/MOL
REMARK 922        TOTAL FREE ENERGY PREDICTED BY IDOCK:  -10.25 KCAL/MOL
REMARK 923 INTER-LIGAND FREE ENERGY PREDICTED BY IDOCK:   -9.78 KCAL/MOL
REMARK 924 INTRA-LIGAND FREE ENERGY PREDICTED BY IDOCK:   -0.47 KCAL/MOL
REMARK 927      BINDING AFFINITY PREDICTED BY RF-SCORE:    0.00 PKD
ROOT
HETATM    1  C   UNL     1     -10.701   3.193  74.124  1.00  0.00    -0.177 C  
HETATM    2  N   UNL     1     -10.585   4.569  73.721  1.00  0.00    -0.225 NA 
HETATM    3  N   UNL     1     -10.104   5.506  74.544  1.00  0.00    -0.253 NA 
HETATM    4  N   UNL     1     -10.172   6.631  73.846  1.00  0.00    -0.323 NA 
HETATM    5  C   UNL     1     -10.705   6.310  72.614  1.00  0.00    -0.232 A  
HETATM    6  N   UNL     1     -10.979   4.992  72.506  1.00  0.00    -0.205 NA 
ENDROOT
BRANCH   5   7
HETATM    7  C   UNL     1     -10.903   7.302  71.556  1.00  0.00    -0.224 A  
HETATM    8  C   UNL     1     -10.943   6.931  70.217  1.00  0.00    -0.322 A  
HETATM    9  C   UNL     1     -11.046   7.926  69.238  1.00  0.00     0.114 A  
HETATM   10  C   UNL     1     -11.094   9.282  69.592  1.00  0.00    -0.134 A  
HETATM   11  N   UNL     1     -11.001   8.597  71.941  1.00  0.00    -0.318 NA 
HETATM   12  C   UNL     1     -11.093   9.536  70.967  1.00  0.00    -0.363 A  
BRANCH  10  13
HETATM   13  C   UNL     1     -11.049  10.373  68.593  1.00  0.00    -0.313 A  
HETATM   14  C   UNL     1     -11.389  11.689  68.944  1.00  0.00    -0.328 A  
HETATM   15  C   UNL     1     -11.477  12.711  67.987  1.00  0.00    -0.366 A  
HETATM   16  C   UNL     1     -11.221  12.465  66.637  1.00  0.00    -0.315 A  
HETATM   17  F   UNL     1     -10.381   8.940  66.812  1.00  0.00    -0.297 F  
HETATM   18  C   UNL     1     -10.839  11.170  66.278  1.00  0.00    -0.266 A  
HETATM   19  C   UNL     1     -10.754  10.156  67.239  1.00  0.00    -0.254 A  
BRANCH  16  20
HETATM   20  N   UNL     1     -11.316  13.493  65.671  1.00  0.00    -0.297 N  
HETATM   21  C   UNL     1     -10.675  15.397  64.606  1.00  0.00    -0.187 C  
HETATM   22  C   UNL     1     -10.199  14.001  64.928  1.00  0.00    -0.348 C  
HETATM   23  O   UNL     1     -12.088  15.225  64.447  1.00  0.00    -0.419 OA 
HETATM   24  O   UNL     1     -13.622  13.969  65.555  1.00  0.00    -0.596 OA 
HETATM   25  C   UNL     1     -12.458  14.180  65.266  1.00  0.00    -0.461 C  
BRANCH  21  26
HETATM   26  C   UNL     1     -10.426  16.393  65.740  1.00  0.00    -0.354 C  
BRANCH  26  27
HETATM   27  O   UNL     1     -10.611  17.732  65.301  1.00  0.00    -0.651 OA 
HETATM   28  P   UNL     1     -10.227  18.883  66.534  1.00  0.00    -0.461 P  
HETATM   29  O   UNL     1      -8.707  18.809  65.934  1.00  0.00    -0.471 OA 
HETATM   30  O   UNL     1      -9.884  19.914  67.637  1.00  0.00    -0.349 OA 
HETATM   31  O   UNL     1     -10.809  20.004  65.496  1.00  0.00    -0.381 OA 
ENDBRANCH  26  27
ENDBRANCH  21  26
ENDBRANCH  16  20
ENDBRANCH  10  13
ENDBRANCH   5   7
TORSDOF 5
ENDMDL
MODEL        7
REMARK 921   NORMALIZED FREE ENERGY PREDICTED BY IDOCK:   -7.32 KCAL/MOL
REMARK 922        TOTAL FREE ENERGY PREDICTED BY IDOCK:  -10.22 KCAL/MOL
REMARK 923 INTER-LIGAND FREE ENERGY PREDICTED BY IDOCK:   -9.79 KCAL/MOL
REMARK 924 INTRA-LIGAND FREE ENERGY PREDICTED BY IDOCK:   -0.43 KCAL/MOL
REMARK 927      BINDING AFFINITY PREDICTED BY RF-SCORE:    0.00 PKD
ROOT
HETATM    1  C   UNL     1      -7.660   4.405  74.274  1.00  0.00    -0.077 C  
HETATM    2  N   UNL     1      -8.661   5.331  73.818  1.00  0.00    -0.114 NA 
HETATM    3  N   UNL     1      -9.739   5.623  74.553  1.00  0.00    -0.185 NA 
HETATM    4  N   UNL     1     -10.429   6.476  73.809  1.00  0.00    -0.312 NA 
HETATM    5  C   UNL     1      -9.722   6.656  72.638  1.00  0.00    -0.160 A  
HETATM    6  N   UNL     1      -8.580   5.934  72.617  1.00  0.00    -0.120 NA 
ENDROOT
BRANCH   5   7
HETATM    7  C   UNL     1     -10.165   7.562  71.578  1.00  0.00    -0.188 A  
HETATM    8  C   UNL     1     -10.202   7.156  70.249  1.00  0.00    -0.207 A  
HETATM    9  C   UNL     1     -10.550   8.086  69.263  1.00  0.00    -0.193 A  
HETATM   10  C   UNL     1     -10.845   9.416  69.599  1.00  0.00    -0.245 A  
HETATM   11  N   UNL     1     -10.496   8.823  71.948  1.00  0.00    -0.335 NA 
HETATM   12  C   UNL     1     -10.822   9.700  70.967  1.00  0.00    -0.342 A  
BRANCH  10  13
HETATM   13  C   UNL     1     -11.067  10.468  68.582  1.00  0.00    -0.319 A  
HETATM   14  C   UNL     1     -10.557  10.335  67.281  1.00  0.00    -0.324 A  
HETATM   15  C   UNL     1     -10.645  11.374  66.342  1.00  0.00    -0.311 A  
HETATM   16  C   UNL     1     -11.253  12.590  66.659  1.00  0.00    -0.307 A  
HETATM   17  F   UNL     1     -12.266  11.888  70.072  1.00  0.00    -0.337 F  
HETATM   18  C   UNL     1     -11.804  12.721  67.936  1.00  0.00    -0.392 A  
HETATM   19  C   UNL     1     -11.712  11.681  68.867  1.00  0.00    -0.334 A  
BRANCH  16  20
HETATM   20  N   UNL     1     -11.336  13.639  65.716  1.00  0.00    -0.303 N  
HETATM   21  C   UNL     1     -10.692  15.576  64.711  1.00  0.00    -0.304 C  
HETATM   22  C   UNL     1     -10.206  14.178  65.014  1.00  0.00    -0.370 C  
HETATM   23  O   UNL     1     -12.099  15.390  64.513  1.00  0.00    -0.328 OA 
HETATM   24  O   UNL     1     -13.644  14.089  65.551  1.00  0.00    -0.596 OA 
HETATM   25  C   UNL     1     -12.476  14.321  65.298  1.00  0.00    -0.421 C  
BRANCH  21  26
HETATM   26  C   UNL     1     -10.486  16.548  65.875  1.00  0.00    -0.323 C  
BRANCH  26  27
HETATM   27  O   UNL     1     -10.599  17.897  65.446  1.00  0.00    -0.656 OA 
HETATM   28  P   UNL     1     -10.116  19.016  66.673  1.00  0.00    -0.456 P  
HETATM   29  O   UNL     1      -8.618  18.854  66.035  1.00  0.00    -0.467 OA 
HETATM   30  O   UNL     1      -9.684  20.019  67.772  1.00  0.00    -0.363 OA 
HETATM   31  O   UNL     1     -10.654  20.176  65.654  1.00  0.00    -0.404 OA 
ENDBRANCH  26  27
ENDBRANCH  21  26
ENDBRANCH  16  20
ENDBRANCH  10  13
ENDBRANCH   5   7
TORSDOF 5
ENDMDL
MODEL        8
REMARK 921   NORMALIZED FREE ENERGY PREDICTED BY IDOCK:   -7.31 KCAL/MOL
REMARK 922        TOTAL FREE ENERGY PREDICTED BY IDOCK:  -10.21 KCAL/MOL
REMARK 923 INTER-LIGAND FREE ENERGY PREDICTED BY IDOCK:   -9.27 KCAL/MOL
REMARK 924 INTRA-LIGAND FREE ENERGY PREDICTED BY IDOCK:   -0.94 KCAL/MOL
REMARK 927      BINDING AFFINITY PREDICTED BY RF-SCORE:    0.00 PKD
ROOT
HETATM    1  C   UNL     1     -10.197  19.714  66.052  1.00  0.00    -0.493 C  
HETATM    2  N   UNL     1     -10.462  18.308  65.906  1.00  0.00    -0.585 NA 
HETATM    3  N   UNL     1     -10.832  17.778  64.736  1.00  0.00    -0.434 NA 
HETATM    4  N   UNL     1     -11.007  16.490  64.993  1.00  0.00    -0.565 NA 
HETATM    5  C   UNL     1     -10.732  16.303  66.332  1.00  0.00    -0.182 A  
HETATM    6  N   UNL     1     -10.378  17.455  66.944  1.00  0.00    -0.326 NA 
ENDROOT
BRANCH   5   7
HETATM    7  C   UNL     1     -10.789  14.991  66.976  1.00  0.00    -0.311 A  
HETATM    8  C   UNL     1     -11.892  14.158  66.822  1.00  0.00    -0.449 A  
HETATM    9  C   UNL     1     -11.937  12.951  67.528  1.00  0.00    -0.354 A  
HETATM   10  C   UNL     1     -10.896  12.583  68.393  1.00  0.00    -0.266 A  
HETATM   11  N   UNL     1      -9.740  14.646  67.760  1.00  0.00    -0.213 NA 
HETATM   12  C   UNL     1      -9.819  13.473  68.435  1.00  0.00    -0.225 A  
BRANCH  10  13
HETATM   13  C   UNL     1     -10.968  11.396  69.275  1.00  0.00    -0.282 A  
HETATM   14  C   UNL     1     -10.179  10.262  69.025  1.00  0.00    -0.225 A  
HETATM   15  C   UNL     1     -10.324   9.082  69.769  1.00  0.00    -0.219 A  
HETATM   16  C   UNL     1     -11.260   8.983  70.800  1.00  0.00    -0.275 A  
HETATM   17  F   UNL     1     -12.643  12.336  70.684  1.00  0.00    -0.373 F  
HETATM   18  C   UNL     1     -12.022  10.118  71.089  1.00  0.00    -0.480 A  
HETATM   19  C   UNL     1     -11.871  11.292  70.343  1.00  0.00    -0.350 A  
BRANCH  16  20
HETATM   20  N   UNL     1     -11.411   7.792  71.546  1.00  0.00    -0.250 N  
HETATM   21  C   UNL     1     -10.832   5.715  72.267  1.00  0.00    -0.242 C  
HETATM   22  C   UNL     1     -10.340   7.142  72.245  1.00  0.00    -0.201 C  
HETATM   23  O   UNL     1     -12.252   5.867  72.369  1.00  0.00    -0.239 OA 
HETATM   24  O   UNL     1     -13.718   7.324  71.429  1.00  0.00    -0.389 OA 
HETATM   25  C   UNL     1     -12.574   7.052  71.742  1.00  0.00    -0.350 C  
BRANCH  21  26
HETATM   26  C   UNL     1     -10.512   4.949  70.982  1.00  0.00    -0.094 C  
BRANCH  26  27
HETATM   27  O   UNL     1      -9.689   5.717  70.115  1.00  0.00    -0.160 OA 
HETATM   28  P   UNL     1      -9.618   5.052  68.520  1.00  0.00    -0.154 P  
HETATM   29  O   UNL     1     -10.934   5.979  68.226  1.00  0.00    -0.303 OA 
HETATM   30  O   UNL     1      -9.555   4.456  67.092  1.00  0.00    -0.168 OA 
HETATM   31  O   UNL     1      -8.486   6.193  68.227  1.00  0.00    -0.113 OA 
ENDBRANCH  26  27
ENDBRANCH  21  26
ENDBRANCH  16  20
ENDBRANCH  10  13
ENDBRANCH   5   7
TORSDOF 5
ENDMDL
MODEL        9
REMARK 921   NORMALIZED FREE ENERGY PREDICTED BY IDOCK:   -7.29 KCAL/MOL
REMARK 922        TOTAL FREE ENERGY PREDICTED BY IDOCK:  -10.18 KCAL/MOL
REMARK 923 INTER-LIGAND FREE ENERGY PREDICTED BY IDOCK:   -9.53 KCAL/MOL
REMARK 924 INTRA-LIGAND FREE ENERGY PREDICTED BY IDOCK:   -0.65 KCAL/MOL
REMARK 927      BINDING AFFINITY PREDICTED BY RF-SCORE:    0.00 PKD
ROOT
HETATM    1  C   UNL     1      -9.973  20.405  66.932  1.00  0.00    -0.408 C  
HETATM    2  N   UNL     1     -10.242  18.997  66.816  1.00  0.00    -0.367 NA 
HETATM    3  N   UNL     1     -10.167  18.359  65.643  1.00  0.00    -0.538 NA 
HETATM    4  N   UNL     1     -10.500  17.107  65.922  1.00  0.00    -0.440 NA 
HETATM    5  C   UNL     1     -10.769  17.052  67.275  1.00  0.00    -0.206 A  
HETATM    6  N   UNL     1     -10.610  18.252  67.874  1.00  0.00    -0.398 NA 
ENDROOT
BRANCH   5   7
HETATM    7  C   UNL     1     -11.144  15.813  67.956  1.00  0.00    -0.337 A  
HETATM    8  C   UNL     1     -11.263  15.757  69.341  1.00  0.00    -0.324 A  
HETATM    9  C   UNL     1     -11.538  14.528  69.951  1.00  0.00    -0.340 A  
HETATM   10  C   UNL     1     -11.678  13.360  69.187  1.00  0.00    -0.375 A  
HETATM   11  N   UNL     1     -11.326  14.718  67.181  1.00  0.00    -0.347 NA 
HETATM   12  C   UNL     1     -11.584  13.542  67.804  1.00  0.00    -0.339 A  
BRANCH  10  13
HETATM   13  C   UNL     1     -11.815  12.017  69.794  1.00  0.00    -0.401 A  
HETATM   14  C   UNL     1     -12.627  11.814  70.921  1.00  0.00    -0.384 A  
HETATM   15  C   UNL     1     -12.671  10.580  71.588  1.00  0.00    -0.550 A  
HETATM   16  C   UNL     1     -11.911   9.492  71.155  1.00  0.00    -0.358 A  
HETATM   17  F   UNL     1     -10.318  10.984  68.256  1.00  0.00    -0.165 F  
HETATM   18  C   UNL     1     -11.132   9.667  70.009  1.00  0.00    -0.293 A  
HETATM   19  C   UNL     1     -11.093  10.900  69.349  1.00  0.00    -0.260 A  
BRANCH  16  20
HETATM   20  N   UNL     1     -11.950   8.252  71.830  1.00  0.00    -0.309 N  
HETATM   21  C   UNL     1     -11.108   6.278  72.585  1.00  0.00    -0.263 C  
HETATM   22  C   UNL     1     -10.905   7.771  72.687  1.00  0.00    -0.354 C  
HETATM   23  O   UNL     1     -12.528   6.158  72.443  1.00  0.00    -0.180 OA 
HETATM   24  O   UNL     1     -14.072   7.371  71.302  1.00  0.00    -0.396 OA 
HETATM   25  C   UNL     1     -12.964   7.297  71.802  1.00  0.00    -0.326 C  
BRANCH  21  26
HETATM   26  C   UNL     1     -10.438   5.664  71.354  1.00  0.00    -0.239 C  
BRANCH  26  27
HETATM   27  O   UNL     1      -9.291   4.907  71.715  1.00  0.00    -0.138 OA 
HETATM   28  P   UNL     1      -9.686   3.270  72.113  1.00  0.00    -0.167 P  
HETATM   29  O   UNL     1      -9.477   2.979  70.516  1.00  0.00    -0.150 OA 
HETATM   30  O   UNL     1     -10.039   1.805  72.469  1.00  0.00    -0.117 OA 
HETATM   31  O   UNL     1      -8.120   3.131  72.559  1.00  0.00    -0.062 OA 
ENDBRANCH  26  27
ENDBRANCH  21  26
ENDBRANCH  16  20
ENDBRANCH  10  13
ENDBRANCH   5   7
TORSDOF 5
ENDMDL
MODEL       10
REMARK 921   NORMALIZED FREE ENERGY PREDICTED BY IDOCK:   -7.14 KCAL/MOL
REMARK 922        TOTAL FREE ENERGY PREDICTED BY IDOCK:   -9.98 KCAL/MOL
REMARK 923 INTER-LIGAND FREE ENERGY PREDICTED BY IDOCK:   -8.99 KCAL/MOL
REMARK 924 INTRA-LIGAND FREE ENERGY PREDICTED BY IDOCK:   -1.00 KCAL/MOL
REMARK 927      BINDING AFFINITY PREDICTED BY RF-SCORE:    0.00 PKD
ROOT
HETATM    1  C   UNL     1     -10.249  19.713  66.156  1.00  0.00    -0.508 C  
HETATM    2  N   UNL     1     -10.544  18.352  65.795  1.00  0.00    -0.579 NA 
HETATM    3  N   UNL     1     -11.066  18.036  64.605  1.00  0.00    -0.159 NA 
HETATM    4  N   UNL     1     -11.219  16.720  64.647  1.00  0.00    -0.914 NA 
HETATM    5  C   UNL     1     -10.777  16.301  65.885  1.00  0.00    -0.229 A  
HETATM    6  N   UNL     1     -10.337  17.329  66.643  1.00  0.00    -0.319 NA 
ENDROOT
BRANCH   5   7
HETATM    7  C   UNL     1     -10.765  14.893  66.285  1.00  0.00    -0.320 A  
HETATM    8  C   UNL     1     -11.937  14.146  66.335  1.00  0.00    -0.457 A  
HETATM    9  C   UNL     1     -11.885  12.830  66.807  1.00  0.00    -0.452 A  
HETATM   10  C   UNL     1     -10.676  12.268  67.240  1.00  0.00    -0.263 A  
HETATM   11  N   UNL     1      -9.570  14.368  66.643  1.00  0.00    -0.270 NA 
HETATM   12  C   UNL     1      -9.556  13.092  67.102  1.00  0.00    -0.235 A  
BRANCH  10  13
HETATM   13  C   UNL     1     -10.597  10.939  67.889  1.00  0.00    -0.246 A  
HETATM   14  C   UNL     1     -10.660  10.812  69.286  1.00  0.00    -0.261 A  
HETATM   15  C   UNL     1     -10.459   9.580  69.926  1.00  0.00    -0.269 A  
HETATM   16  C   UNL     1     -10.193   8.418  69.199  1.00  0.00    -0.211 A  
HETATM   17  F   UNL     1     -10.333   9.766  65.833  1.00  0.00    -0.330 F  
HETATM   18  C   UNL     1     -10.170   8.521  67.806  1.00  0.00    -0.283 A  
HETATM   19  C   UNL     1     -10.372   9.753  67.174  1.00  0.00    -0.248 A  
BRANCH  16  20
HETATM   20  N   UNL     1      -9.984   7.178  69.844  1.00  0.00    -0.180 N  
HETATM   21  C   UNL     1      -9.170   5.065  70.052  1.00  0.00    -0.131 C  
HETATM   22  C   UNL     1      -8.722   6.497  69.883  1.00  0.00    -0.140 C  
HETATM   23  O   UNL     1     -10.354   5.192  70.849  1.00  0.00    -0.229 OA 
HETATM   24  O   UNL     1     -12.060   6.690  70.847  1.00  0.00    -0.377 OA 
HETATM   25  C   UNL     1     -10.916   6.412  70.539  1.00  0.00    -0.306 C  
BRANCH  21  26
HETATM   26  C   UNL     1      -9.540   4.391  68.730  1.00  0.00    -0.155 C  
BRANCH  26  27
HETATM   27  O   UNL     1      -9.059   5.135  67.619  1.00  0.00    -0.109 OA 
HETATM   28  P   UNL     1      -9.464   4.393  66.110  1.00  0.00    -0.211 P  
HETATM   29  O   UNL     1     -10.842   5.272  66.207  1.00  0.00    -0.285 OA 
HETATM   30  O   UNL     1      -9.827   3.729  64.758  1.00  0.00    -0.174 OA 
HETATM   31  O   UNL     1      -8.526   5.547  65.432  1.00  0.00    -0.136 OA 
ENDBRANCH  26  27
ENDBRANCH  21  26
ENDBRANCH  16  20
ENDBRANCH  10  13
ENDBRANCH   5   7
TORSDOF 5
ENDMDL
MODEL       11
REMARK 921   NORMALIZED FREE ENERGY PREDICTED BY IDOCK:   -7.12 KCAL/MOL
REMARK 922        TOTAL FREE ENERGY PREDICTED BY IDOCK:   -9.96 KCAL/MOL
REMARK 923 INTER-LIGAND FREE ENERGY PREDICTED BY IDOCK:   -9.47 KCAL/MOL
REMARK 924 INTRA-LIGAND FREE ENERGY PREDICTED BY IDOCK:   -0.49 KCAL/MOL
REMARK 927      BINDING AFFINITY PREDICTED BY RF-SCORE:    0.00 PKD
ROOT
HETATM    1  C   UNL     1      -9.988  20.315  66.763  1.00  0.00    -0.450 C  
HETATM    2  N   UNL     1     -10.276  18.911  66.652  1.00  0.00    -0.377 NA 
HETATM    3  N   UNL     1     -10.298  18.287  65.470  1.00  0.00    -0.531 NA 
HETATM    4  N   UNL     1     -10.617  17.033  65.759  1.00  0.00    -0.418 NA 
HETATM    5  C   UNL     1     -10.779  16.963  67.128  1.00  0.00    -0.180 A  
HETATM    6  N   UNL     1     -10.565  18.155  67.727  1.00  0.00    -0.407 NA 
ENDROOT
BRANCH   5   7
HETATM    7  C   UNL     1     -11.108  15.718  67.822  1.00  0.00    -0.313 A  
HETATM    8  C   UNL     1     -11.859  15.719  68.993  1.00  0.00    -0.367 A  
HETATM    9  C   UNL     1     -12.072  14.511  69.666  1.00  0.00    -0.369 A  
HETATM   10  C   UNL     1     -11.527  13.312  69.184  1.00  0.00    -0.357 A  
HETATM   11  N   UNL     1     -10.611  14.573  67.296  1.00  0.00    -0.277 NA 
HETATM   12  C   UNL     1     -10.830  13.421  67.977  1.00  0.00    -0.247 A  
BRANCH  10  13
HETATM   13  C   UNL     1     -11.595  12.041  69.939  1.00  0.00    -0.315 A  
HETATM   14  C   UNL     1     -10.798  10.943  69.577  1.00  0.00    -0.286 A  
HETATM   15  C   UNL     1     -10.939   9.691  70.196  1.00  0.00    -0.320 A  
HETATM   16  C   UNL     1     -11.877   9.483  71.209  1.00  0.00    -0.373 A  
HETATM   17  F   UNL     1     -13.278  12.823  71.432  1.00  0.00    -0.420 F  
HETATM   18  C   UNL     1     -12.646  10.578  71.610  1.00  0.00    -0.498 A  
HETATM   19  C   UNL     1     -12.500  11.823  70.988  1.00  0.00    -0.309 A  
BRANCH  16  20
HETATM   20  N   UNL     1     -12.023   8.221  71.828  1.00  0.00    -0.297 N  
HETATM   21  C   UNL     1     -11.327   6.188  72.572  1.00  0.00    -0.286 C  
HETATM   22  C   UNL     1     -11.076   7.666  72.751  1.00  0.00    -0.383 C  
HETATM   23  O   UNL     1     -12.733   6.133  72.304  1.00  0.00    -0.140 OA 
HETATM   24  O   UNL     1     -14.123   7.451  71.085  1.00  0.00    -0.345 OA 
HETATM   25  C   UNL     1     -13.067   7.312  71.674  1.00  0.00    -0.369 C  
BRANCH  21  26
HETATM   26  C   UNL     1     -10.577   5.591  71.380  1.00  0.00    -0.243 C  
BRANCH  26  27
HETATM   27  O   UNL     1      -9.501   4.768  71.807  1.00  0.00    -0.140 OA 
HETATM   28  P   UNL     1     -10.025   3.174  72.229  1.00  0.00    -0.115 P  
HETATM   29  O   UNL     1      -9.773   2.825  70.651  1.00  0.00    -0.134 OA 
HETATM   30  O   UNL     1     -10.493   1.747  72.608  1.00  0.00    -0.139 OA 
HETATM   31  O   UNL     1      -8.491   2.940  72.744  1.00  0.00    -0.070 OA 
ENDBRANCH  26  27
ENDBRANCH  21  26
ENDBRANCH  16  20
ENDBRANCH  10  13
ENDBRANCH   5   7
TORSDOF 5
ENDMDL
MODEL       12
REMARK 921   NORMALIZED FREE ENERGY PREDICTED BY IDOCK:   -7.10 KCAL/MOL
REMARK 922        TOTAL FREE ENERGY PREDICTED BY IDOCK:   -9.93 KCAL/MOL
REMARK 923 INTER-LIGAND FREE ENERGY PREDICTED BY IDOCK:   -9.21 KCAL/MOL
REMARK 924 INTRA-LIGAND FREE ENERGY PREDICTED BY IDOCK:   -0.72 KCAL/MOL
REMARK 927      BINDING AFFINITY PREDICTED BY RF-SCORE:    0.00 PKD
ROOT
HETATM    1  C   UNL     1     -11.045   1.658  74.319  1.00  0.00    -0.091 C  
HETATM    2  N   UNL     1     -10.588   2.941  73.858  1.00  0.00    -0.163 NA 
HETATM    3  N   UNL     1      -9.289   3.257  73.824  1.00  0.00    -0.091 NA 
HETATM    4  N   UNL     1      -9.261   4.504  73.376  1.00  0.00    -0.113 NA 
HETATM    5  C   UNL     1     -10.569   4.887  73.161  1.00  0.00    -0.220 A  
HETATM    6  N   UNL     1     -11.443   3.902  73.462  1.00  0.00    -0.184 NA 
ENDROOT
BRANCH   5   7
HETATM    7  C   UNL     1     -10.931   6.203  72.632  1.00  0.00    -0.256 A  
HETATM    8  C   UNL     1     -12.127   6.404  71.952  1.00  0.00    -0.362 A  
HETATM    9  C   UNL     1     -12.387   7.659  71.390  1.00  0.00    -0.358 A  
HETATM   10  C   UNL     1     -11.454   8.701  71.493  1.00  0.00    -0.363 A  
HETATM   11  N   UNL     1     -10.030   7.199  72.800  1.00  0.00    -0.175 NA 
HETATM   12  C   UNL     1     -10.310   8.401  72.237  1.00  0.00    -0.333 A  
BRANCH  10  13
HETATM   13  C   UNL     1     -11.615   9.993  70.787  1.00  0.00    -0.444 A  
HETATM   14  C   UNL     1     -10.889  10.272  69.618  1.00  0.00    -0.311 A  
HETATM   15  C   UNL     1     -10.930  11.534  69.007  1.00  0.00    -0.285 A  
HETATM   16  C   UNL     1     -11.702  12.572  69.532  1.00  0.00    -0.309 A  
HETATM   17  F   UNL     1     -13.178  10.852  72.366  1.00  0.00    -0.538 F  
HETATM   18  C   UNL     1     -12.463  12.296  70.670  1.00  0.00    -0.323 A  
HETATM   19  C   UNL     1     -12.418  11.034  71.275  1.00  0.00    -0.370 A  
BRANCH  16  20
HETATM   20  N   UNL     1     -11.737  13.845  68.920  1.00  0.00    -0.314 N  
HETATM   21  C   UNL     1     -11.197  15.406  67.356  1.00  0.00    -0.287 C  
HETATM   22  C   UNL     1     -11.850  14.052  67.505  1.00  0.00    -0.407 C  
HETATM   23  O   UNL     1     -11.552  16.068  68.576  1.00  0.00    -0.381 OA 
HETATM   24  O   UNL     1     -11.705  15.358  70.728  1.00  0.00    -0.286 OA 
HETATM   25  C   UNL     1     -11.676  15.091  69.540  1.00  0.00    -0.322 C  
BRANCH  21  26
HETATM   26  C   UNL     1      -9.672  15.330  67.265  1.00  0.00    -0.212 C  
BRANCH  26  27
HETATM   27  O   UNL     1      -9.067  16.528  67.730  1.00  0.00    -0.202 OA 
HETATM   28  P   UNL     1      -8.050  17.254  66.533  1.00  0.00    -0.298 P  
HETATM   29  O   UNL     1      -9.409  18.030  66.052  1.00  0.00    -0.505 OA 
HETATM   30  O   UNL     1      -7.140  17.905  65.463  1.00  0.00    -0.487 OA 
HETATM   31  O   UNL     1      -7.618  18.300  67.713  1.00  0.00    -0.221 OA 
ENDBRANCH  26  27
ENDBRANCH  21  26
ENDBRANCH  16  20
ENDBRANCH  10  13
ENDBRANCH   5   7
TORSDOF 5
ENDMDL
MODEL       13
REMARK 921   NORMALIZED FREE ENERGY PREDICTED BY IDOCK:   -7.07 KCAL/MOL
REMARK 922        TOTAL FREE ENERGY PREDICTED BY IDOCK:   -9.89 KCAL/MOL
REMARK 923 INTER-LIGAND FREE ENERGY PREDICTED BY IDOCK:   -9.16 KCAL/MOL
REMARK 924 INTRA-LIGAND FREE ENERGY PREDICTED BY IDOCK:   -0.74 KCAL/MOL
REMARK 927      BINDING AFFINITY PREDICTED BY RF-SCORE:    0.00 PKD
ROOT
HETATM    1  C   UNL     1     -10.019   1.490  74.340  1.00  0.00    -0.081 C  
HETATM    2  N   UNL     1      -9.764   2.718  73.636  1.00  0.00    -0.097 NA 
HETATM    3  N   UNL     1      -8.574   2.982  73.087  1.00  0.00    -0.079 NA 
HETATM    4  N   UNL     1      -8.709   4.190  72.560  1.00  0.00    -0.103 NA 
HETATM    5  C   UNL     1      -9.999   4.605  72.826  1.00  0.00    -0.155 A  
HETATM    6  N   UNL     1     -10.699   3.678  73.515  1.00  0.00    -0.198 NA 
ENDROOT
BRANCH   5   7
HETATM    7  C   UNL     1     -10.526   5.890  72.366  1.00  0.00    -0.208 A  
HETATM    8  C   UNL     1     -11.193   6.005  71.152  1.00  0.00    -0.328 A  
HETATM    9  C   UNL     1     -11.601   7.271  70.717  1.00  0.00    -0.334 A  
HETATM   10  C   UNL     1     -11.333   8.416  71.481  1.00  0.00    -0.334 A  
HETATM   11  N   UNL     1     -10.296   6.965  73.158  1.00  0.00    -0.239 NA 
HETATM   12  C   UNL     1     -10.699   8.177  72.704  1.00  0.00    -0.351 A  
BRANCH  10  13
HETATM   13  C   UNL     1     -11.606   9.787  70.994  1.00  0.00    -0.455 A  
HETATM   14  C   UNL     1     -10.845  10.351  69.957  1.00  0.00    -0.348 A  
HETATM   15  C   UNL     1     -11.002  11.689  69.568  1.00  0.00    -0.159 A  
HETATM   16  C   UNL     1     -11.931  12.523  70.193  1.00  0.00    -0.301 A  
HETATM   17  F   UNL     1     -13.367  10.170  72.552  1.00  0.00    -0.461 F  
HETATM   18  C   UNL     1     -12.726  11.965  71.196  1.00  0.00    -0.384 A  
HETATM   19  C   UNL     1     -12.564  10.628  71.578  1.00  0.00    -0.412 A  
BRANCH  16  20
HETATM   20  N   UNL     1     -12.085  13.874  69.805  1.00  0.00    -0.332 N  
HETATM   21  C   UNL     1     -11.779  15.693  68.475  1.00  0.00    -0.327 C  
HETATM   22  C   UNL     1     -12.354  14.297  68.461  1.00  0.00     0.001 C  
HETATM   23  O   UNL     1     -12.031  16.130  69.816  1.00  0.00    -0.244 OA 
HETATM   24  O   UNL     1     -11.928  15.078  71.826  1.00  0.00    -0.333 OA 
HETATM   25  C   UNL     1     -12.012  15.006  70.613  1.00  0.00    -0.318 C  
BRANCH  21  26
HETATM   26  C   UNL     1     -10.270  15.723  68.226  1.00  0.00    -0.225 C  
BRANCH  26  27
HETATM   27  O   UNL     1      -9.932  15.048  67.022  1.00  0.00    -0.238 OA 
HETATM   28  P   UNL     1     -10.597  15.825  65.628  1.00  0.00    -0.367 P  
HETATM   29  O   UNL     1      -9.212  16.695  65.624  1.00  0.00    -0.491 OA 
HETATM   30  O   UNL     1     -11.193  16.520  64.379  1.00  0.00    -0.919 OA 
HETATM   31  O   UNL     1     -10.038  14.534  64.795  1.00  0.00    -0.340 OA 
ENDBRANCH  26  27
ENDBRANCH  21  26
ENDBRANCH  16  20
ENDBRANCH  10  13
ENDBRANCH   5   7
TORSDOF 5
ENDMDL
MODEL       14
REMARK 921   NORMALIZED FREE ENERGY PREDICTED BY IDOCK:   -7.05 KCAL/MOL
REMARK 922        TOTAL FREE ENERGY PREDICTED BY IDOCK:   -9.86 KCAL/MOL
REMARK 923 INTER-LIGAND FREE ENERGY PREDICTED BY IDOCK:   -8.88 KCAL/MOL
REMARK 924 INTRA-LIGAND FREE ENERGY PREDICTED BY IDOCK:   -0.98 KCAL/MOL
REMARK 927      BINDING AFFINITY PREDICTED BY RF-SCORE:    0.00 PKD
ROOT
HETATM    1  C   UNL     1     -10.311  19.556  65.724  1.00  0.00    -0.382 C  
HETATM    2  N   UNL     1     -10.596  18.147  65.685  1.00  0.00    -0.595 NA 
HETATM    3  N   UNL     1     -11.072  17.555  64.584  1.00  0.00    -0.725 NA 
HETATM    4  N   UNL     1     -11.230  16.285  64.930  1.00  0.00    -0.398 NA 
HETATM    5  C   UNL     1     -10.838  16.173  66.248  1.00  0.00    -0.135 A  
HETATM    6  N   UNL     1     -10.424  17.354  66.758  1.00  0.00    -0.292 NA 
ENDROOT
BRANCH   5   7
HETATM    7  C   UNL     1     -10.845  14.900  66.970  1.00  0.00    -0.315 A  
HETATM    8  C   UNL     1     -11.861  13.970  66.783  1.00  0.00    -0.450 A  
HETATM    9  C   UNL     1     -11.870  12.806  67.561  1.00  0.00    -0.402 A  
HETATM   10  C   UNL     1     -10.879  12.580  68.528  1.00  0.00    -0.271 A  
HETATM   11  N   UNL     1      -9.842  14.692  67.855  1.00  0.00    -0.215 NA 
HETATM   12  C   UNL     1      -9.884  13.558  68.597  1.00  0.00    -0.125 A  
BRANCH  10  13
HETATM   13  C   UNL     1     -10.931  11.444  69.477  1.00  0.00    -0.226 A  
HETATM   14  C   UNL     1     -10.073  10.342  69.331  1.00  0.00    -0.251 A  
HETATM   15  C   UNL     1     -10.192   9.201  70.139  1.00  0.00    -0.237 A  
HETATM   16  C   UNL     1     -11.168   9.113  71.133  1.00  0.00    -0.325 A  
HETATM   17  F   UNL     1     -12.716  12.373  70.751  1.00  0.00    -0.369 F  
HETATM   18  C   UNL     1     -12.001  10.219  71.318  1.00  0.00    -0.457 A  
HETATM   19  C   UNL     1     -11.876  11.354  70.509  1.00  0.00    -0.297 A  
BRANCH  16  20
HETATM   20  N   UNL     1     -11.292   7.962  71.943  1.00  0.00    -0.262 N  
HETATM   21  C   UNL     1     -10.539   6.263  73.255  1.00  0.00    -0.262 C  
HETATM   22  C   UNL     1     -10.589   7.770  73.179  1.00  0.00    -0.352 C  
HETATM   23  O   UNL     1     -11.774   5.871  72.643  1.00  0.00    -0.280 OA 
HETATM   24  O   UNL     1     -12.926   6.658  70.851  1.00  0.00    -0.118 OA 
HETATM   25  C   UNL     1     -12.086   6.840  71.714  1.00  0.00    -0.350 C  
BRANCH  21  26
HETATM   26  C   UNL     1      -9.383   5.659  72.456  1.00  0.00    -0.142 C  
BRANCH  26  27
HETATM   27  O   UNL     1      -9.545   4.257  72.292  1.00  0.00    -0.130 OA 
HETATM   28  P   UNL     1      -9.475   3.780  70.631  1.00  0.00    -0.168 P  
HETATM   29  O   UNL     1      -7.863   3.647  70.882  1.00  0.00    -0.047 OA 
HETATM   30  O   UNL     1      -9.412   3.352  69.144  1.00  0.00    -0.170 OA 
HETATM   31  O   UNL     1      -9.895   2.295  71.169  1.00  0.00    -0.138 OA 
ENDBRANCH  26  27
ENDBRANCH  21  26
ENDBRANCH  16  20
ENDBRANCH  10  13
ENDBRANCH   5   7
TORSDOF 5
ENDMDL
MODEL       15
REMARK 921   NORMALIZED FREE ENERGY PREDICTED BY IDOCK:   -7.04 KCAL/MOL
REMARK 922        TOTAL FREE ENERGY PREDICTED BY IDOCK:   -9.86 KCAL/MOL
REMARK 923 INTER-LIGAND FREE ENERGY PREDICTED BY IDOCK:   -9.00 KCAL/MOL
REMARK 924 INTRA-LIGAND FREE ENERGY PREDICTED BY IDOCK:   -0.86 KCAL/MOL
REMARK 927      BINDING AFFINITY PREDICTED BY RF-SCORE:    0.00 PKD
ROOT
HETATM    1  C   UNL     1      -9.932   2.718  72.569  1.00  0.00    -0.159 C  
HETATM    2  N   UNL     1      -9.880   3.478  71.349  1.00  0.00    -0.171 NA 
HETATM    3  N   UNL     1      -9.360   2.973  70.225  1.00  0.00    -0.152 NA 
HETATM    4  N   UNL     1      -9.463   3.954  69.340  1.00  0.00    -0.181 NA 
HETATM    5  C   UNL     1     -10.047   5.024  69.987  1.00  0.00    -0.272 A  
HETATM    6  N   UNL     1     -10.327   4.746  71.279  1.00  0.00    -0.159 NA 
ENDROOT
BRANCH   5   7
HETATM    7  C   UNL     1     -10.349   6.287  69.312  1.00  0.00    -0.218 A  
HETATM    8  C   UNL     1     -10.682   6.324  67.963  1.00  0.00    -0.369 A  
HETATM    9  C   UNL     1     -10.877   7.563  67.344  1.00  0.00    -0.272 A  
HETATM   10  C   UNL     1     -10.726   8.759  68.062  1.00  0.00    -0.151 A  
HETATM   11  N   UNL     1     -10.247   7.417  70.052  1.00  0.00    -0.205 NA 
HETATM   12  C   UNL     1     -10.435   8.601  69.419  1.00  0.00    -0.218 A  
BRANCH  10  13
HETATM   13  C   UNL     1     -10.770  10.091  67.418  1.00  0.00    -0.336 A  
HETATM   14  C   UNL     1      -9.978  10.376  66.294  1.00  0.00    -0.283 A  
HETATM   15  C   UNL     1      -9.908  11.666  65.747  1.00  0.00    -0.268 A  
HETATM   16  C   UNL     1     -10.631  12.728  66.295  1.00  0.00    -0.257 A  
HETATM   17  F   UNL     1     -12.337  10.977  68.977  1.00  0.00    -0.398 F  
HETATM   18  C   UNL     1     -11.456  12.450  67.387  1.00  0.00    -0.418 A  
HETATM   19  C   UNL     1     -11.521  11.160  67.927  1.00  0.00    -0.284 A  
BRANCH  16  20
HETATM   20  N   UNL     1     -10.555  14.029  65.749  1.00  0.00    -0.290 N  
HETATM   21  C   UNL     1     -10.158  16.268  65.782  1.00  0.00    -0.347 C  
HETATM   22  C   UNL     1      -9.472  14.939  65.990  1.00  0.00    -0.281 C  
HETATM   23  O   UNL     1     -11.117  15.978  64.759  1.00  0.00    -0.480 OA 
HETATM   24  O   UNL     1     -12.456  14.187  64.363  1.00  0.00    -0.626 OA 
HETATM   25  C   UNL     1     -11.472  14.654  64.906  1.00  0.00    -0.401 C  
BRANCH  21  26
HETATM   26  C   UNL     1     -10.902  16.760  67.025  1.00  0.00    -0.066 C  
BRANCH  26  27
HETATM   27  O   UNL     1     -10.096  17.642  67.794  1.00  0.00    -0.307 OA 
HETATM   28  P   UNL     1      -9.439  18.927  66.841  1.00  0.00    -0.345 P  
HETATM   29  O   UNL     1     -10.817  19.725  67.220  1.00  0.00    -0.444 OA 
HETATM   30  O   UNL     1      -8.851  20.078  65.987  1.00  0.00    -0.343 OA 
HETATM   31  O   UNL     1      -8.591  19.322  68.181  1.00  0.00    -0.305 OA 
ENDBRANCH  26  27
ENDBRANCH  21  26
ENDBRANCH  16  20
ENDBRANCH  10  13
ENDBRANCH   5   7
TORSDOF 5
ENDMDL
MODEL       16
REMARK 921   NORMALIZED FREE ENERGY PREDICTED BY IDOCK:   -7.03 KCAL/MOL
REMARK 922        TOTAL FREE ENERGY PREDICTED BY IDOCK:   -9.84 KCAL/MOL
REMARK 923 INTER-LIGAND FREE ENERGY PREDICTED BY IDOCK:   -9.04 KCAL/MOL
REMARK 924 INTRA-LIGAND FREE ENERGY PREDICTED BY IDOCK:   -0.81 KCAL/MOL
REMARK 927      BINDING AFFINITY PREDICTED BY RF-SCORE:    0.00 PKD
ROOT
HETATM    1  C   UNL     1     -10.215   4.378  74.489  1.00  0.00    -0.241 C  
HETATM    2  N   UNL     1     -10.887   5.272  73.585  1.00  0.00    -0.294 NA 
HETATM    3  N   UNL     1     -12.092   4.987  73.079  1.00  0.00    -0.026 NA 
HETATM    4  N   UNL     1     -12.371   6.012  72.286  1.00  0.00    -0.143 NA 
HETATM    5  C   UNL     1     -11.299   6.879  72.352  1.00  0.00    -0.271 A  
HETATM    6  N   UNL     1     -10.331   6.428  73.181  1.00  0.00    -0.211 NA 
ENDROOT
BRANCH   5   7
HETATM    7  C   UNL     1     -11.262   8.148  71.626  1.00  0.00    -0.261 A  
HETATM    8  C   UNL     1     -12.384   8.966  71.542  1.00  0.00    -0.381 A  
HETATM    9  C   UNL     1     -12.323  10.126  70.763  1.00  0.00    -0.422 A  
HETATM   10  C   UNL     1     -11.157  10.462  70.060  1.00  0.00    -0.379 A  
HETATM   11  N   UNL     1     -10.101   8.466  71.006  1.00  0.00    -0.190 NA 
HETATM   12  C   UNL     1     -10.079   9.594  70.254  1.00  0.00    -0.275 A  
BRANCH  10  13
HETATM   13  C   UNL     1     -11.094  11.591  69.105  1.00  0.00    -0.316 A  
HETATM   14  C   UNL     1     -10.546  11.424  67.823  1.00  0.00    -0.231 A  
HETATM   15  C   UNL     1     -10.360  12.507  66.951  1.00  0.00    -0.242 A  
HETATM   16  C   UNL     1     -10.719  13.805  67.319  1.00  0.00    -0.283 A  
HETATM   17  F   UNL     1     -12.057  13.150  70.627  1.00  0.00    -0.399 F  
HETATM   18  C   UNL     1     -11.305  13.981  68.574  1.00  0.00    -0.308 A  
HETATM   19  C   UNL     1     -11.488  12.896  69.438  1.00  0.00    -0.260 A  
BRANCH  16  20
HETATM   20  N   UNL     1     -10.525  14.897  66.443  1.00  0.00    -0.290 N  
HETATM   21  C   UNL     1     -10.018  17.046  65.894  1.00  0.00    -0.217 C  
HETATM   22  C   UNL     1      -9.424  15.814  66.534  1.00  0.00    -0.272 C  
HETATM   23  O   UNL     1     -10.889  16.500  64.896  1.00  0.00    -0.684 OA 
HETATM   24  O   UNL     1     -12.275  14.701  64.876  1.00  0.00    -0.401 OA 
HETATM   25  C   UNL     1     -11.324  15.280  65.368  1.00  0.00    -0.253 C  
BRANCH  21  26
HETATM   26  C   UNL     1     -10.851  17.885  66.865  1.00  0.00    -0.052 C  
BRANCH  26  27
HETATM   27  O   UNL     1     -10.039  18.449  67.886  1.00  0.00    -0.327 OA 
HETATM   28  P   UNL     1      -8.801  19.473  67.246  1.00  0.00    -0.329 P  
HETATM   29  O   UNL     1      -9.919  20.663  67.364  1.00  0.00    -0.438 OA 
HETATM   30  O   UNL     1      -7.692  20.390  66.674  1.00  0.00    -0.281 OA 
HETATM   31  O   UNL     1      -8.246  19.553  68.781  1.00  0.00    -0.357 OA 
ENDBRANCH  26  27
ENDBRANCH  21  26
ENDBRANCH  16  20
ENDBRANCH  10  13
ENDBRANCH   5   7
TORSDOF 5
ENDMDL
MODEL       17
REMARK 921   NORMALIZED FREE ENERGY PREDICTED BY IDOCK:   -7.01 KCAL/MOL
REMARK 922        TOTAL FREE ENERGY PREDICTED BY IDOCK:   -9.82 KCAL/MOL
REMARK 923 INTER-LIGAND FREE ENERGY PREDICTED BY IDOCK:   -8.92 KCAL/MOL
REMARK 924 INTRA-LIGAND FREE ENERGY PREDICTED BY IDOCK:   -0.90 KCAL/MOL
REMARK 927      BINDING AFFINITY PREDICTED BY RF-SCORE:    0.00 PKD
ROOT
HETATM    1  C   UNL     1     -10.195  19.534  66.288  1.00  0.00    -0.488 C  
HETATM    2  N   UNL     1     -10.511  18.214  65.814  1.00  0.00    -0.613 NA 
HETATM    3  N   UNL     1     -11.048  18.007  64.607  1.00  0.00    -0.159 NA 
HETATM    4  N   UNL     1     -11.217  16.695  64.536  1.00  0.00    -0.982 NA 
HETATM    5  C   UNL     1     -10.769  16.165  65.729  1.00  0.00    -0.280 A  
HETATM    6  N   UNL     1     -10.308  17.118  66.568  1.00  0.00    -0.321 NA 
ENDROOT
BRANCH   5   7
HETATM    7  C   UNL     1     -10.770  14.728  66.006  1.00  0.00    -0.312 A  
HETATM    8  C   UNL     1     -11.952  13.994  66.012  1.00  0.00    -0.434 A  
HETATM    9  C   UNL     1     -11.911  12.642  66.368  1.00  0.00    -0.466 A  
HETATM   10  C   UNL     1     -10.703  12.028  66.730  1.00  0.00    -0.280 A  
HETATM   11  N   UNL     1      -9.576  14.158  66.297  1.00  0.00    -0.289 NA 
HETATM   12  C   UNL     1      -9.574  12.848  66.644  1.00  0.00    -0.257 A  
BRANCH  10  13
HETATM   13  C   UNL     1     -10.632  10.648  67.260  1.00  0.00    -0.313 A  
HETATM   14  C   UNL     1     -10.906  10.378  68.610  1.00  0.00    -0.270 A  
HETATM   15  C   UNL     1     -10.720   9.101  69.161  1.00  0.00    -0.190 A  
HETATM   16  C   UNL     1     -10.260   8.035  68.385  1.00  0.00    -0.207 A  
HETATM   17  F   UNL     1      -9.963   9.704  65.177  1.00  0.00    -0.375 F  
HETATM   18  C   UNL     1     -10.025   8.278  67.030  1.00  0.00    -0.325 A  
HETATM   19  C   UNL     1     -10.213   9.554  66.488  1.00  0.00    -0.237 A  
BRANCH  16  20
HETATM   20  N   UNL     1     -10.067   6.750  68.941  1.00  0.00    -0.158 N  
HETATM   21  C   UNL     1     -10.472   5.035  70.379  1.00  0.00    -0.167 C  
HETATM   22  C   UNL     1     -11.136   5.865  69.307  1.00  0.00    -0.282 C  
HETATM   23  O   UNL     1      -9.114   4.959  69.930  1.00  0.00    -0.108 OA 
HETATM   24  O   UNL     1      -7.727   6.468  68.952  1.00  0.00    -0.104 OA 
HETATM   25  C   UNL     1      -8.860   6.117  69.227  1.00  0.00    -0.124 C  
BRANCH  21  26
HETATM   26  C   UNL     1     -10.497   5.701  71.756  1.00  0.00    -0.228 C  
BRANCH  26  27
HETATM   27  O   UNL     1      -9.224   5.636  72.384  1.00  0.00    -0.144 OA 
HETATM   28  P   UNL     1      -8.679   7.188  72.920  1.00  0.00    -0.130 P  
HETATM   29  O   UNL     1      -9.472   6.832  74.306  1.00  0.00    -0.212 OA 
HETATM   30  O   UNL     1      -8.192   8.578  73.400  1.00  0.00    -0.379 OA 
HETATM   31  O   UNL     1      -7.275   6.434  73.280  1.00  0.00    -0.085 OA 
ENDBRANCH  26  27
ENDBRANCH  21  26
ENDBRANCH  16  20
ENDBRANCH  10  13
ENDBRANCH   5   7
TORSDOF 5
ENDMDL
MODEL       18
REMARK 921   NORMALIZED FREE ENERGY PREDICTED BY IDOCK:   -6.96 KCAL/MOL
REMARK 922        TOTAL FREE ENERGY PREDICTED BY IDOCK:   -9.76 KCAL/MOL
REMARK 923 INTER-LIGAND FREE ENERGY PREDICTED BY IDOCK:   -8.86 KCAL/MOL
REMARK 924 INTRA-LIGAND FREE ENERGY PREDICTED BY IDOCK:   -0.90 KCAL/MOL
REMARK 927      BINDING AFFINITY PREDICTED BY RF-SCORE:    0.00 PKD
ROOT
HETATM    1  C   UNL     1     -10.000  19.594  66.420  1.00  0.00    -0.455 C  
HETATM    2  N   UNL     1     -10.308  18.308  65.855  1.00  0.00    -0.596 NA 
HETATM    3  N   UNL     1     -11.092  18.180  64.779  1.00  0.00    -0.283 NA 
HETATM    4  N   UNL     1     -11.165  16.873  64.573  1.00  0.00    -1.066 NA 
HETATM    5  C   UNL     1     -10.409  16.265  65.555  1.00  0.00    -0.338 A  
HETATM    6  N   UNL     1      -9.846  17.164  66.392  1.00  0.00    -0.287 NA 
ENDROOT
BRANCH   5   7
HETATM    7  C   UNL     1     -10.229  14.815  65.630  1.00  0.00    -0.358 A  
HETATM    8  C   UNL     1     -10.870  13.960  64.740  1.00  0.00    -0.430 A  
HETATM    9  C   UNL     1     -10.734  12.577  64.908  1.00  0.00    -0.327 A  
HETATM   10  C   UNL     1      -9.976  12.051  65.964  1.00  0.00    -0.258 A  
HETATM   11  N   UNL     1      -9.445  14.346  66.630  1.00  0.00    -0.272 NA 
HETATM   12  C   UNL     1      -9.340  13.001  66.768  1.00  0.00    -0.244 A  
BRANCH  10  13
HETATM   13  C   UNL     1      -9.929  10.604  66.273  1.00  0.00    -0.274 A  
HETATM   14  C   UNL     1     -10.584  10.085  67.402  1.00  0.00    -0.330 A  
HETATM   15  C   UNL     1     -10.446   8.742  67.783  1.00  0.00    -0.292 A  
HETATM   16  C   UNL     1      -9.654   7.856  67.050  1.00  0.00    -0.192 A  
HETATM   17  F   UNL     1      -8.541  10.081  64.409  1.00  0.00    -0.145 F  
HETATM   18  C   UNL     1      -9.032   8.347  65.901  1.00  0.00    -0.223 A  
HETATM   19  C   UNL     1      -9.174   9.688  65.526  1.00  0.00    -0.234 A  
BRANCH  16  20
HETATM   20  N   UNL     1      -9.510   6.504  67.438  1.00  0.00    -0.123 N  
HETATM   21  C   UNL     1      -9.997   4.630  68.632  1.00  0.00    -0.070 C  
HETATM   22  C   UNL     1     -10.611   5.612  67.663  1.00  0.00    -0.204 C  
HETATM   23  O   UNL     1      -8.630   4.573  68.206  1.00  0.00    -0.096 OA 
HETATM   24  O   UNL     1      -7.179   6.153  67.463  1.00  0.00    -0.072 OA 
HETATM   25  C   UNL     1      -8.327   5.804  67.665  1.00  0.00    -0.104 C  
BRANCH  21  26
HETATM   26  C   UNL     1     -10.038   5.113  70.083  1.00  0.00    -0.272 C  
BRANCH  26  27
HETATM   27  O   UNL     1     -10.875   6.252  70.225  1.00  0.00    -0.252 OA 
HETATM   28  P   UNL     1     -10.867   6.872  71.839  1.00  0.00    -0.243 P  
HETATM   29  O   UNL     1      -9.593   7.769  71.339  1.00  0.00    -0.154 OA 
HETATM   30  O   UNL     1     -10.860   7.429  73.284  1.00  0.00    -0.374 OA 
HETATM   31  O   UNL     1     -12.048   7.879  71.326  1.00  0.00    -0.296 OA 
ENDBRANCH  26  27
ENDBRANCH  21  26
ENDBRANCH  16  20
ENDBRANCH  10  13
ENDBRANCH   5   7
TORSDOF 5
ENDMDL
MODEL       19
REMARK 921   NORMALIZED FREE ENERGY PREDICTED BY IDOCK:   -6.89 KCAL/MOL
REMARK 922        TOTAL FREE ENERGY PREDICTED BY IDOCK:   -9.67 KCAL/MOL
REMARK 923 INTER-LIGAND FREE ENERGY PREDICTED BY IDOCK:   -8.80 KCAL/MOL
REMARK 924 INTRA-LIGAND FREE ENERGY PREDICTED BY IDOCK:   -0.87 KCAL/MOL
REMARK 927      BINDING AFFINITY PREDICTED BY RF-SCORE:    0.00 PKD
ROOT
HETATM    1  C   UNL     1     -10.500   3.125  74.356  1.00  0.00    -0.182 C  
HETATM    2  N   UNL     1     -10.290   3.529  72.992  1.00  0.00    -0.158 NA 
HETATM    3  N   UNL     1     -10.000   2.645  72.032  1.00  0.00    -0.163 NA 
HETATM    4  N   UNL     1      -9.855   3.378  70.937  1.00  0.00    -0.118 NA 
HETATM    5  C   UNL     1     -10.065   4.693  71.299  1.00  0.00    -0.175 A  
HETATM    6  N   UNL     1     -10.348   4.819  72.614  1.00  0.00    -0.192 NA 
ENDROOT
BRANCH   5   7
HETATM    7  C   UNL     1     -10.017   5.795  70.337  1.00  0.00    -0.198 A  
HETATM    8  C   UNL     1      -9.066   6.804  70.442  1.00  0.00    -0.153 A  
HETATM    9  C   UNL     1      -9.117   7.882  69.550  1.00  0.00    -0.149 A  
HETATM   10  C   UNL     1     -10.117   7.959  68.570  1.00  0.00    -0.216 A  
HETATM   11  N   UNL     1     -10.965   5.806  69.371  1.00  0.00    -0.337 NA 
HETATM   12  C   UNL     1     -10.990   6.868  68.528  1.00  0.00    -0.136 A  
BRANCH  10  13
HETATM   13  C   UNL     1     -10.304   9.147  67.708  1.00  0.00    -0.302 A  
HETATM   14  C   UNL     1     -10.945  10.298  68.194  1.00  0.00    -0.328 A  
HETATM   15  C   UNL     1     -11.246  11.385  67.359  1.00  0.00    -0.370 A  
HETATM   16  C   UNL     1     -10.914  11.373  66.003  1.00  0.00    -0.226 A  
HETATM   17  F   UNL     1      -9.289   8.135  65.806  1.00  0.00    -0.219 F  
HETATM   18  C   UNL     1     -10.237  10.253  65.515  1.00  0.00    -0.308 A  
HETATM   19  C   UNL     1      -9.940   9.173  66.354  1.00  0.00    -0.288 A  
BRANCH  16  20
HETATM   20  N   UNL     1     -11.223  12.465  65.160  1.00  0.00    -0.306 N  
HETATM   21  C   UNL     1     -11.036  14.591  64.374  1.00  0.00    -0.161 C  
HETATM   22  C   UNL     1     -10.239  13.322  64.564  1.00  0.00    -0.310 C  
HETATM   23  O   UNL     1     -12.354  14.102  64.095  1.00  0.00    -0.628 OA 
HETATM   24  O   UNL     1     -13.568  12.377  64.934  1.00  0.00    -0.289 OA 
HETATM   25  C   UNL     1     -12.484  12.900  64.757  1.00  0.00    -0.455 C  
BRANCH  21  26
HETATM   26  C   UNL     1     -11.092  15.459  65.633  1.00  0.00    -0.271 C  
BRANCH  26  27
HETATM   27  O   UNL     1     -10.841  16.824  65.329  1.00  0.00    -0.497 OA 
HETATM   28  P   UNL     1      -9.978  17.628  66.594  1.00  0.00    -0.354 P  
HETATM   29  O   UNL     1      -8.635  17.121  65.809  1.00  0.00    -0.525 OA 
HETATM   30  O   UNL     1      -9.205  18.347  67.727  1.00  0.00    -0.271 OA 
HETATM   31  O   UNL     1     -10.226  18.992  65.729  1.00  0.00    -0.517 OA 
ENDBRANCH  26  27
ENDBRANCH  21  26
ENDBRANCH  16  20
ENDBRANCH  10  13
ENDBRANCH   5   7
TORSDOF 5
ENDMDL
MODEL       20
REMARK 921   NORMALIZED FREE ENERGY PREDICTED BY IDOCK:   -6.86 KCAL/MOL
REMARK 922        TOTAL FREE ENERGY PREDICTED BY IDOCK:   -9.62 KCAL/MOL
REMARK 923 INTER-LIGAND FREE ENERGY PREDICTED BY IDOCK:   -8.59 KCAL/MOL
REMARK 924 INTRA-LIGAND FREE ENERGY PREDICTED BY IDOCK:   -1.03 KCAL/MOL
REMARK 927      BINDING AFFINITY PREDICTED BY RF-SCORE:    0.00 PKD
ROOT
HETATM    1  C   UNL     1     -10.753   1.869  74.542  1.00  0.00    -0.097 C  
HETATM    2  N   UNL     1     -10.316   2.906  73.647  1.00  0.00    -0.122 NA 
HETATM    3  N   UNL     1      -9.133   2.850  73.026  1.00  0.00    -0.085 NA 
HETATM    4  N   UNL     1      -9.073   3.970  72.321  1.00  0.00    -0.113 NA 
HETATM    5  C   UNL     1     -10.243   4.662  72.559  1.00  0.00    -0.185 A  
HETATM    6  N   UNL     1     -11.061   4.000  73.406  1.00  0.00    -0.249 NA 
ENDROOT
BRANCH   5   7
HETATM    7  C   UNL     1     -10.548   5.943  71.921  1.00  0.00    -0.231 A  
HETATM    8  C   UNL     1     -11.092   6.002  70.642  1.00  0.00    -0.371 A  
HETATM    9  C   UNL     1     -11.284   7.252  70.042  1.00  0.00    -0.234 A  
HETATM   10  C   UNL     1     -10.923   8.433  70.706  1.00  0.00    -0.276 A  
HETATM   11  N   UNL     1     -10.237   7.063  72.615  1.00  0.00    -0.186 NA 
HETATM   12  C   UNL     1     -10.430   8.257  72.002  1.00  0.00    -0.280 A  
BRANCH  10  13
HETATM   13  C   UNL     1     -10.963   9.762  70.056  1.00  0.00    -0.319 A  
HETATM   14  C   UNL     1     -10.085  10.080  69.007  1.00  0.00    -0.211 A  
HETATM   15  C   UNL     1     -10.019  11.372  68.464  1.00  0.00    -0.203 A  
HETATM   16  C   UNL     1     -10.833  12.402  68.940  1.00  0.00    -0.197 A  
HETATM   17  F   UNL     1     -12.703  10.582  71.461  1.00  0.00    -0.415 F  
HETATM   18  C   UNL     1     -11.742  12.090  69.953  1.00  0.00    -0.374 A  
HETATM   19  C   UNL     1     -11.802  10.799  70.490  1.00  0.00    -0.356 A  
BRANCH  16  20
HETATM   20  N   UNL     1     -10.762  13.706  68.398  1.00  0.00    -0.251 N  
HETATM   21  C   UNL     1     -11.146  15.327  66.850  1.00  0.00    -0.288 C  
HETATM   22  C   UNL     1     -11.867  14.377  67.776  1.00  0.00    -0.368 C  
HETATM   23  O   UNL     1      -9.960  15.652  67.585  1.00  0.00    -0.233 OA 
HETATM   24  O   UNL     1      -8.571  14.422  68.894  1.00  0.00    -0.147 OA 
HETATM   25  C   UNL     1      -9.660  14.556  68.365  1.00  0.00    -0.213 C  
BRANCH  21  26
HETATM   26  C   UNL     1     -10.739  14.680  65.524  1.00  0.00    -0.349 C  
BRANCH  26  27
HETATM   27  O   UNL     1     -11.824  13.971  64.942  1.00  0.00    -0.355 OA 
HETATM   28  P   UNL     1     -11.293  12.603  64.026  1.00  0.00    -0.484 P  
HETATM   29  O   UNL     1     -11.411  11.787  65.439  1.00  0.00    -0.299 OA 
HETATM   30  O   UNL     1     -10.819  11.378  63.205  1.00  0.00    -0.349 OA 
HETATM   31  O   UNL     1     -12.856  12.459  63.569  1.00  0.00    -0.749 OA 
ENDBRANCH  26  27
ENDBRANCH  21  26
ENDBRANCH  16  20
ENDBRANCH  10  13
ENDBRANCH   5   7
TORSDOF 5
ENDMDL
MODEL       21
REMARK 921   NORMALIZED FREE ENERGY PREDICTED BY IDOCK:   -6.82 KCAL/MOL
REMARK 922        TOTAL FREE ENERGY PREDICTED BY IDOCK:   -9.58 KCAL/MOL
REMARK 923 INTER-LIGAND FREE ENERGY PREDICTED BY IDOCK:   -8.67 KCAL/MOL
REMARK 924 INTRA-LIGAND FREE ENERGY PREDICTED BY IDOCK:   -0.91 KCAL/MOL
REMARK 927      BINDING AFFINITY PREDICTED BY RF-SCORE:    0.00 PKD
ROOT
HETATM    1  C   UNL     1     -10.127  19.786  66.410  1.00  0.00    -0.491 C  
HETATM    2  N   UNL     1     -10.442  18.478  65.901  1.00  0.00    -0.600 NA 
HETATM    3  N   UNL     1     -11.050  18.309  64.722  1.00  0.00    -0.170 NA 
HETATM    4  N   UNL     1     -11.193  16.997  64.606  1.00  0.00    -0.972 NA 
HETATM    5  C   UNL     1     -10.658  16.429  65.744  1.00  0.00    -0.315 A  
HETATM    6  N   UNL     1     -10.167  17.358  66.593  1.00  0.00    -0.316 NA 
ENDROOT
BRANCH   5   7
HETATM    7  C   UNL     1     -10.609  14.982  65.958  1.00  0.00    -0.322 A  
HETATM    8  C   UNL     1     -11.724  14.181  65.737  1.00  0.00    -0.360 A  
HETATM    9  C   UNL     1     -11.652  12.816  66.039  1.00  0.00    -0.432 A  
HETATM   10  C   UNL     1     -10.481  12.258  66.573  1.00  0.00    -0.254 A  
HETATM   11  N   UNL     1      -9.444  14.470  66.421  1.00  0.00    -0.290 NA 
HETATM   12  C   UNL     1      -9.410  13.146  66.710  1.00  0.00    -0.244 A  
BRANCH  10  13
HETATM   13  C   UNL     1     -10.406  10.859  67.050  1.00  0.00    -0.276 A  
HETATM   14  C   UNL     1     -10.415  10.563  68.423  1.00  0.00    -0.212 A  
HETATM   15  C   UNL     1     -10.217   9.258  68.899  1.00  0.00    -0.217 A  
HETATM   16  C   UNL     1     -10.007   8.190  68.025  1.00  0.00    -0.184 A  
HETATM   17  F   UNL     1     -10.253   9.942  64.857  1.00  0.00    -0.393 F  
HETATM   18  C   UNL     1     -10.039   8.462  66.656  1.00  0.00    -0.358 A  
HETATM   19  C   UNL     1     -10.238   9.766  66.188  1.00  0.00    -0.208 A  
BRANCH  16  20
HETATM   20  N   UNL     1      -9.801   6.877  68.505  1.00  0.00    -0.142 N  
HETATM   21  C   UNL     1      -9.170   4.696  68.362  1.00  0.00    -0.128 C  
HETATM   22  C   UNL     1      -8.626   6.099  68.234  1.00  0.00    -0.116 C  
HETATM   23  O   UNL     1     -10.164   4.830  69.385  1.00  0.00    -0.210 OA 
HETATM   24  O   UNL     1     -11.688   6.448  69.851  1.00  0.00    -0.426 OA 
HETATM   25  C   UNL     1     -10.655   6.115  69.300  1.00  0.00    -0.285 C  
BRANCH  21  26
HETATM   26  C   UNL     1      -9.845   4.195  67.084  1.00  0.00    -0.137 C  
BRANCH  26  27
HETATM   27  O   UNL     1      -8.936   3.467  66.271  1.00  0.00    -0.131 OA 
HETATM   28  P   UNL     1      -9.247   3.687  64.584  1.00  0.00    -0.164 P  
HETATM   29  O   UNL     1      -8.237   4.969  64.708  1.00  0.00    -0.116 OA 
HETATM   30  O   UNL     1      -9.524   3.884  63.073  1.00  0.00    -0.118 OA 
HETATM   31  O   UNL     1      -8.105   2.541  64.350  1.00  0.00    -0.080 OA 
ENDBRANCH  26  27
ENDBRANCH  21  26
ENDBRANCH  16  20
ENDBRANCH  10  13
ENDBRANCH   5   7
TORSDOF 5
ENDMDL
MODEL       22
REMARK 921   NORMALIZED FREE ENERGY PREDICTED BY IDOCK:   -6.75 KCAL/MOL
REMARK 922        TOTAL FREE ENERGY PREDICTED BY IDOCK:   -9.48 KCAL/MOL
REMARK 923 INTER-LIGAND FREE ENERGY PREDICTED BY IDOCK:   -8.60 KCAL/MOL
REMARK 924 INTRA-LIGAND FREE ENERGY PREDICTED BY IDOCK:   -0.88 KCAL/MOL
REMARK 927      BINDING AFFINITY PREDICTED BY RF-SCORE:    0.00 PKD
ROOT
HETATM    1  C   UNL     1      -8.511   3.132  74.537  1.00  0.00    -0.076 C  
HETATM    2  N   UNL     1      -9.506   3.995  73.960  1.00  0.00    -0.098 NA 
HETATM    3  N   UNL     1     -10.812   3.811  74.178  1.00  0.00    -0.192 NA 
HETATM    4  N   UNL     1     -11.406   4.766  73.476  1.00  0.00    -0.319 NA 
HETATM    5  C   UNL     1     -10.409   5.490  72.854  1.00  0.00    -0.195 A  
HETATM    6  N   UNL     1      -9.178   5.018  73.149  1.00  0.00    -0.122 NA 
ENDROOT
BRANCH   5   7
HETATM    7  C   UNL     1     -10.686   6.653  72.011  1.00  0.00    -0.219 A  
HETATM    8  C   UNL     1     -11.207   6.509  70.729  1.00  0.00    -0.377 A  
HETATM    9  C   UNL     1     -11.372   7.645  69.930  1.00  0.00    -0.017 A  
HETATM   10  C   UNL     1     -11.007   8.915  70.400  1.00  0.00    -0.275 A  
HETATM   11  N   UNL     1     -10.372   7.868  72.520  1.00  0.00    -0.260 NA 
HETATM   12  C   UNL     1     -10.539   8.948  71.717  1.00  0.00    -0.362 A  
BRANCH  10  13
HETATM   13  C   UNL     1     -11.019  10.121  69.542  1.00  0.00    -0.295 A  
HETATM   14  C   UNL     1     -10.096  10.271  68.494  1.00  0.00    -0.181 A  
HETATM   15  C   UNL     1     -10.006  11.458  67.752  1.00  0.00    -0.192 A  
HETATM   16  C   UNL     1     -10.839  12.547  68.019  1.00  0.00    -0.225 A  
HETATM   17  F   UNL     1     -12.817  11.147  70.720  1.00  0.00    -0.390 F  
HETATM   18  C   UNL     1     -11.791  12.397  69.029  1.00  0.00    -0.349 A  
HETATM   19  C   UNL     1     -11.875  11.209  69.765  1.00  0.00    -0.349 A  
BRANCH  16  20
HETATM   20  N   UNL     1     -10.744  13.745  67.276  1.00  0.00    -0.281 N  
HETATM   21  C   UNL     1     -10.298  15.952  66.956  1.00  0.00    -0.297 C  
HETATM   22  C   UNL     1      -9.638  14.656  67.359  1.00  0.00    -0.215 C  
HETATM   23  O   UNL     1     -11.279  15.529  66.001  1.00  0.00    -0.247 OA 
HETATM   24  O   UNL     1     -12.662  13.731  65.905  1.00  0.00    -0.467 OA 
HETATM   25  C   UNL     1     -11.659  14.253  66.357  1.00  0.00    -0.372 C  
BRANCH  21  26
HETATM   26  C   UNL     1     -11.013  16.649  68.116  1.00  0.00    -0.327 C  
BRANCH  26  27
HETATM   27  O   UNL     1     -10.369  17.867  68.461  1.00  0.00    -0.369 OA 
HETATM   28  P   UNL     1      -9.438  18.509  67.152  1.00  0.00    -0.307 P  
HETATM   29  O   UNL     1     -10.823  19.267  66.723  1.00  0.00    -0.438 OA 
HETATM   30  O   UNL     1      -8.604  19.084  65.980  1.00  0.00    -0.457 OA 
HETATM   31  O   UNL     1      -8.915  19.620  68.231  1.00  0.00    -0.330 OA 
ENDBRANCH  26  27
ENDBRANCH  21  26
ENDBRANCH  16  20
ENDBRANCH  10  13
ENDBRANCH   5   7
TORSDOF 5
ENDMDL
MODEL       23
REMARK 921   NORMALIZED FREE ENERGY PREDICTED BY IDOCK:   -6.74 KCAL/MOL
REMARK 922        TOTAL FREE ENERGY PREDICTED BY IDOCK:   -9.47 KCAL/MOL
REMARK 923 INTER-LIGAND FREE ENERGY PREDICTED BY IDOCK:   -8.51 KCAL/MOL
REMARK 924 INTRA-LIGAND FREE ENERGY PREDICTED BY IDOCK:   -0.96 KCAL/MOL
REMARK 927      BINDING AFFINITY PREDICTED BY RF-SCORE:    0.00 PKD
ROOT
HETATM    1  C   UNL     1      -8.233   4.158  66.527  1.00  0.00    -0.101 C  
HETATM    2  N   UNL     1      -9.116   5.284  66.666  1.00  0.00    -0.119 NA 
HETATM    3  N   UNL     1     -10.368   5.147  67.116  1.00  0.00    -0.208 NA 
HETATM    4  N   UNL     1     -10.870   6.373  67.083  1.00  0.00    -0.357 NA 
HETATM    5  C   UNL     1      -9.879   7.204  66.603  1.00  0.00    -0.169 A  
HETATM    6  N   UNL     1      -8.740   6.531  66.328  1.00  0.00    -0.140 NA 
ENDROOT
BRANCH   5   7
HETATM    7  C   UNL     1     -10.060   8.648  66.456  1.00  0.00    -0.269 A  
HETATM    8  C   UNL     1      -9.492   9.344  65.395  1.00  0.00    -0.322 A  
HETATM    9  C   UNL     1      -9.621  10.737  65.347  1.00  0.00    -0.272 A  
HETATM   10  C   UNL     1     -10.300  11.432  66.359  1.00  0.00    -0.284 A  
HETATM   11  N   UNL     1     -10.769   9.278  67.423  1.00  0.00    -0.253 NA 
HETATM   12  C   UNL     1     -10.869  10.629  67.350  1.00  0.00    -0.296 A  
BRANCH  10  13
HETATM   13  C   UNL     1     -10.331  12.910  66.433  1.00  0.00    -0.277 A  
HETATM   14  C   UNL     1      -9.194  13.638  66.819  1.00  0.00    -0.251 A  
HETATM   15  C   UNL     1      -9.237  15.026  67.019  1.00  0.00    -0.246 A  
HETATM   16  C   UNL     1     -10.417  15.750  66.836  1.00  0.00    -0.315 A  
HETATM   17  F   UNL     1     -12.623  13.061  65.803  1.00  0.00    -0.491 F  
HETATM   18  C   UNL     1     -11.545  15.046  66.410  1.00  0.00    -0.172 A  
HETATM   19  C   UNL     1     -11.494  13.662  66.212  1.00  0.00    -0.333 A  
BRANCH  16  20
HETATM   20  N   UNL     1     -10.462  17.147  67.044  1.00  0.00    -0.309 N  
HETATM   21  C   UNL     1      -9.886  19.315  66.670  1.00  0.00    -0.367 C  
HETATM   22  C   UNL     1     -10.496  18.115  65.986  1.00  0.00    -0.335 C  
HETATM   23  O   UNL     1     -10.339  19.177  68.022  1.00  0.00    -0.377 OA 
HETATM   24  O   UNL     1     -10.597  17.380  69.387  1.00  0.00    -0.269 OA 
HETATM   25  C   UNL     1     -10.486  17.827  68.260  1.00  0.00    -0.364 C  
BRANCH  21  26
HETATM   26  C   UNL     1      -8.356  19.298  66.662  1.00  0.00    -0.306 C  
BRANCH  26  27
HETATM   27  O   UNL     1      -7.827  19.923  67.822  1.00  0.00    -0.283 OA 
HETATM   28  P   UNL     1      -6.764  18.879  68.700  1.00  0.00    -0.289 P  
HETATM   29  O   UNL     1      -5.592  19.491  67.736  1.00  0.00    -0.186 OA 
HETATM   30  O   UNL     1      -5.812  17.944  69.487  1.00  0.00    -0.215 OA 
HETATM   31  O   UNL     1      -6.742  20.057  69.833  1.00  0.00    -0.336 OA 
ENDBRANCH  26  27
ENDBRANCH  21  26
ENDBRANCH  16  20
ENDBRANCH  10  13
ENDBRANCH   5   7
TORSDOF 5
ENDMDL
MODEL       24
REMARK 921   NORMALIZED FREE ENERGY PREDICTED BY IDOCK:   -6.68 KCAL/MOL
REMARK 922        TOTAL FREE ENERGY PREDICTED BY IDOCK:   -9.39 KCAL/MOL
REMARK 923 INTER-LIGAND FREE ENERGY PREDICTED BY IDOCK:   -8.61 KCAL/MOL
REMARK 924 INTRA-LIGAND FREE ENERGY PREDICTED BY IDOCK:   -0.77 KCAL/MOL
REMARK 927      BINDING AFFINITY PREDICTED BY RF-SCORE:    0.00 PKD
ROOT
HETATM    1  C   UNL     1      -9.315   2.082  71.861  1.00  0.00    -0.098 C  
HETATM    2  N   UNL     1      -9.454   2.912  70.695  1.00  0.00    -0.154 NA 
HETATM    3  N   UNL     1      -9.217   2.444  69.465  1.00  0.00    -0.119 NA 
HETATM    4  N   UNL     1      -9.420   3.483  68.668  1.00  0.00    -0.164 NA 
HETATM    5  C   UNL     1      -9.771   4.548  69.472  1.00  0.00    -0.212 A  
HETATM    6  N   UNL     1      -9.802   4.209  70.780  1.00  0.00    -0.195 NA 
ENDROOT
BRANCH   5   7
HETATM    7  C   UNL     1     -10.103   5.868  68.936  1.00  0.00    -0.180 A  
HETATM    8  C   UNL     1     -10.919   6.011  67.819  1.00  0.00    -0.333 A  
HETATM    9  C   UNL     1     -11.135   7.289  67.293  1.00  0.00    -0.151 A  
HETATM   10  C   UNL     1     -10.530   8.416  67.868  1.00  0.00    -0.255 A  
HETATM   11  N   UNL     1      -9.544   6.938  69.552  1.00  0.00    -0.149 NA 
HETATM   12  C   UNL     1      -9.769   8.161  69.012  1.00  0.00    -0.163 A  
BRANCH  10  13
HETATM   13  C   UNL     1     -10.604   9.763  67.259  1.00  0.00    -0.320 A  
HETATM   14  C   UNL     1     -11.274  10.813  67.907  1.00  0.00    -0.386 A  
HETATM   15  C   UNL     1     -11.466  12.059  67.292  1.00  0.00    -0.403 A  
HETATM   16  C   UNL     1     -10.992  12.314  66.003  1.00  0.00    -0.292 A  
HETATM   17  F   UNL     1      -9.409   9.126  65.299  1.00  0.00    -0.269 F  
HETATM   18  C   UNL     1     -10.286  11.294  65.363  1.00  0.00    -0.323 A  
HETATM   19  C   UNL     1     -10.097  10.053  65.983  1.00  0.00    -0.248 A  
BRANCH  16  20
HETATM   20  N   UNL     1     -11.191  13.567  65.381  1.00  0.00    -0.288 N  
HETATM   21  C   UNL     1     -10.745  15.753  64.939  1.00  0.00    -0.361 C  
HETATM   22  C   UNL     1     -10.133  14.376  64.848  1.00  0.00    -0.218 C  
HETATM   23  O   UNL     1     -12.135  15.502  64.702  1.00  0.00    -0.199 OA 
HETATM   24  O   UNL     1     -13.533  13.834  65.352  1.00  0.00    -0.620 OA 
HETATM   25  C   UNL     1     -12.397  14.231  65.168  1.00  0.00    -0.424 C  
BRANCH  21  26
HETATM   26  C   UNL     1     -10.591  16.389  66.322  1.00  0.00    -0.242 C  
BRANCH  26  27
HETATM   27  O   UNL     1     -10.641  17.807  66.246  1.00  0.00    -0.318 OA 
HETATM   28  P   UNL     1     -10.184  18.557  67.737  1.00  0.00    -0.406 P  
HETATM   29  O   UNL     1      -8.662  18.496  67.140  1.00  0.00    -0.261 OA 
HETATM   30  O   UNL     1      -9.776  19.230  69.070  1.00  0.00    -0.414 OA 
HETATM   31  O   UNL     1     -10.634  19.959  67.025  1.00  0.00    -0.449 OA 
ENDBRANCH  26  27
ENDBRANCH  21  26
ENDBRANCH  16  20
ENDBRANCH  10  13
ENDBRANCH   5   7
TORSDOF 5
ENDMDL
MODEL       25
REMARK 921   NORMALIZED FREE ENERGY PREDICTED BY IDOCK:   -6.67 KCAL/MOL
REMARK 922        TOTAL FREE ENERGY PREDICTED BY IDOCK:   -9.38 KCAL/MOL
REMARK 923 INTER-LIGAND FREE ENERGY PREDICTED BY IDOCK:   -8.44 KCAL/MOL
REMARK 924 INTRA-LIGAND FREE ENERGY PREDICTED BY IDOCK:   -0.94 KCAL/MOL
REMARK 927      BINDING AFFINITY PREDICTED BY RF-SCORE:    0.00 PKD
ROOT
HETATM    1  C   UNL     1      -6.684  20.185  65.268  1.00  0.00    -0.302 C  
HETATM    2  N   UNL     1      -7.657  19.186  65.620  1.00  0.00    -0.457 NA 
HETATM    3  N   UNL     1      -8.938  19.497  65.845  1.00  0.00    -0.399 NA 
HETATM    4  N   UNL     1      -9.511  18.345  66.160  1.00  0.00    -0.495 NA 
HETATM    5  C   UNL     1      -8.528  17.378  66.114  1.00  0.00    -0.163 A  
HETATM    6  N   UNL     1      -7.326  17.890  65.767  1.00  0.00    -0.534 NA 
ENDROOT
BRANCH   5   7
HETATM    7  C   UNL     1      -8.797  15.964  66.377  1.00  0.00    -0.333 A  
HETATM    8  C   UNL     1      -7.929  15.193  67.143  1.00  0.00    -0.248 A  
HETATM    9  C   UNL     1      -8.185  13.826  67.293  1.00  0.00    -0.173 A  
HETATM   10  C   UNL     1      -9.291  13.228  66.670  1.00  0.00    -0.247 A  
HETATM   11  N   UNL     1      -9.904  15.434  65.805  1.00  0.00    -0.349 NA 
HETATM   12  C   UNL     1     -10.119  14.104  65.964  1.00  0.00    -0.316 A  
BRANCH  10  13
HETATM   13  C   UNL     1      -9.517  11.765  66.672  1.00  0.00    -0.215 A  
HETATM   14  C   UNL     1      -9.617  11.051  67.877  1.00  0.00    -0.180 A  
HETATM   15  C   UNL     1      -9.702   9.651  67.902  1.00  0.00    -0.169 A  
HETATM   16  C   UNL     1      -9.698   8.902  66.724  1.00  0.00    -0.219 A  
HETATM   17  F   UNL     1      -9.507  11.592  64.297  1.00  0.00    -0.232 F  
HETATM   18  C   UNL     1      -9.643   9.600  65.516  1.00  0.00    -0.351 A  
HETATM   19  C   UNL     1      -9.558  10.997  65.499  1.00  0.00    -0.222 A  
BRANCH  16  20
HETATM   20  N   UNL     1      -9.778   7.491  66.749  1.00  0.00    -0.204 N  
HETATM   21  C   UNL     1     -10.519   5.472  67.490  1.00  0.00    -0.204 C  
HETATM   22  C   UNL     1     -11.006   6.758  66.866  1.00  0.00    -0.300 C  
HETATM   23  O   UNL     1      -9.216   5.311  66.917  1.00  0.00    -0.118 OA 
HETATM   24  O   UNL     1      -7.553   6.779  66.433  1.00  0.00    -0.086 OA 
HETATM   25  C   UNL     1      -8.730   6.576  66.666  1.00  0.00    -0.128 C  
BRANCH  21  26
HETATM   26  C   UNL     1     -10.379   5.559  69.011  1.00  0.00    -0.233 C  
BRANCH  26  27
HETATM   27  O   UNL     1     -11.431   6.321  69.584  1.00  0.00    -0.432 OA 
HETATM   28  P   UNL     1     -11.204   6.579  71.280  1.00  0.00    -0.314 P  
HETATM   29  O   UNL     1     -10.376   7.914  70.824  1.00  0.00    -0.201 OA 
HETATM   30  O   UNL     1     -11.002   6.810  72.797  1.00  0.00    -0.248 OA 
HETATM   31  O   UNL     1     -12.699   7.239  71.254  1.00  0.00    -0.362 OA 
ENDBRANCH  26  27
ENDBRANCH  21  26
ENDBRANCH  16  20
ENDBRANCH  10  13
ENDBRANCH   5   7
TORSDOF 5
ENDMDL
MODEL       26
REMARK 921   NORMALIZED FREE ENERGY PREDICTED BY IDOCK:   -6.62 KCAL/MOL
REMARK 922        TOTAL FREE ENERGY PREDICTED BY IDOCK:   -9.31 KCAL/MOL
REMARK 923 INTER-LIGAND FREE ENERGY PREDICTED BY IDOCK:   -8.62 KCAL/MOL
REMARK 924 INTRA-LIGAND FREE ENERGY PREDICTED BY IDOCK:   -0.70 KCAL/MOL
REMARK 927      BINDING AFFINITY PREDICTED BY RF-SCORE:    0.00 PKD
ROOT
HETATM    1  C   UNL     1      -9.211   2.478  68.764  1.00  0.00    -0.166 C  
HETATM    2  N   UNL     1      -9.632   3.823  69.051  1.00  0.00    -0.163 NA 
HETATM    3  N   UNL     1     -10.078   4.178  70.260  1.00  0.00    -0.078 NA 
HETATM    4  N   UNL     1     -10.390   5.461  70.137  1.00  0.00    -0.273 NA 
HETATM    5  C   UNL     1     -10.115   5.821  68.833  1.00  0.00    -0.186 A  
HETATM    6  N   UNL     1      -9.626   4.788  68.113  1.00  0.00    -0.141 NA 
ENDROOT
BRANCH   5   7
HETATM    7  C   UNL     1     -10.307   7.181  68.332  1.00  0.00    -0.194 A  
HETATM    8  C   UNL     1     -10.236   7.468  66.973  1.00  0.00    -0.368 A  
HETATM    9  C   UNL     1     -10.340   8.798  66.551  1.00  0.00    -0.254 A  
HETATM   10  C   UNL     1     -10.498   9.837  67.479  1.00  0.00    -0.309 A  
HETATM   11  N   UNL     1     -10.514   8.151  69.254  1.00  0.00    -0.222 NA 
HETATM   12  C   UNL     1     -10.603   9.430  68.812  1.00  0.00    -0.208 A  
BRANCH  10  13
HETATM   13  C   UNL     1     -10.459  11.267  67.096  1.00  0.00    -0.259 A  
HETATM   14  C   UNL     1     -11.643  11.993  66.891  1.00  0.00    -0.389 A  
HETATM   15  C   UNL     1     -11.628  13.308  66.404  1.00  0.00    -0.387 A  
HETATM   16  C   UNL     1     -10.430  13.960  66.108  1.00  0.00    -0.297 A  
HETATM   17  F   UNL     1      -8.079  11.357  67.037  1.00  0.00    -0.130 F  
HETATM   18  C   UNL     1      -9.242  13.266  66.348  1.00  0.00    -0.133 A  
HETATM   19  C   UNL     1      -9.264  11.954  66.834  1.00  0.00    -0.193 A  
BRANCH  16  20
HETATM   20  N   UNL     1     -10.415  15.283  65.611  1.00  0.00    -0.331 N  
HETATM   21  C   UNL     1     -10.173  17.541  65.743  1.00  0.00    -0.173 C  
HETATM   22  C   UNL     1      -9.410  16.253  65.941  1.00  0.00    -0.264 C  
HETATM   23  O   UNL     1     -11.057  17.227  64.660  1.00  0.00    -1.052 OA 
HETATM   24  O   UNL     1     -12.250  15.368  64.133  1.00  0.00    -0.598 OA 
HETATM   25  C   UNL     1     -11.328  15.878  64.743  1.00  0.00    -0.309 C  
BRANCH  21  26
HETATM   26  C   UNL     1     -11.011  17.935  66.961  1.00  0.00     0.059 C  
BRANCH  26  27
HETATM   27  O   UNL     1     -10.188  18.361  68.038  1.00  0.00    -0.346 OA 
HETATM   28  P   UNL     1      -9.040  19.559  67.549  1.00  0.00    -0.325 P  
HETATM   29  O   UNL     1     -10.217  20.635  67.916  1.00  0.00    -0.257 OA 
HETATM   30  O   UNL     1      -8.012  20.632  67.113  1.00  0.00    -0.329 OA 
HETATM   31  O   UNL     1      -8.421  19.402  69.054  1.00  0.00    -0.345 OA 
ENDBRANCH  26  27
ENDBRANCH  21  26
ENDBRANCH  16  20
ENDBRANCH  10  13
ENDBRANCH   5   7
TORSDOF 5
ENDMDL
MODEL       27
REMARK 921   NORMALIZED FREE ENERGY PREDICTED BY IDOCK:   -6.59 KCAL/MOL
REMARK 922        TOTAL FREE ENERGY PREDICTED BY IDOCK:   -9.27 KCAL/MOL
REMARK 923 INTER-LIGAND FREE ENERGY PREDICTED BY IDOCK:   -8.65 KCAL/MOL
REMARK 924 INTRA-LIGAND FREE ENERGY PREDICTED BY IDOCK:   -0.62 KCAL/MOL
REMARK 927      BINDING AFFINITY PREDICTED BY RF-SCORE:    0.00 PKD
ROOT
HETATM    1  C   UNL     1     -10.419   5.360  70.240  1.00  0.00    -0.285 C  
HETATM    2  N   UNL     1     -10.504   6.386  69.236  1.00  0.00    -0.208 NA 
HETATM    3  N   UNL     1     -10.802   6.104  67.963  1.00  0.00    -0.302 NA 
HETATM    4  N   UNL     1     -10.764   7.275  67.344  1.00  0.00    -0.289 NA 
HETATM    5  C   UNL     1     -10.434   8.223  68.291  1.00  0.00    -0.161 A  
HETATM    6  N   UNL     1     -10.263   7.680  69.516  1.00  0.00    -0.203 NA 
ENDROOT
BRANCH   5   7
HETATM    7  C   UNL     1     -10.328   9.648  67.979  1.00  0.00    -0.218 A  
HETATM    8  C   UNL     1      -9.211  10.388  68.350  1.00  0.00    -0.147 A  
HETATM    9  C   UNL     1      -9.196  11.766  68.107  1.00  0.00    -0.186 A  
HETATM   10  C   UNL     1     -10.294  12.404  67.511  1.00  0.00    -0.223 A  
HETATM   11  N   UNL     1     -11.385  10.219  67.353  1.00  0.00    -0.262 NA 
HETATM   12  C   UNL     1     -11.341  11.557  67.138  1.00  0.00    -0.284 A  
BRANCH  10  13
HETATM   13  C   UNL     1     -10.388  13.875  67.373  1.00  0.00    -0.252 A  
HETATM   14  C   UNL     1      -9.587  14.567  66.450  1.00  0.00    -0.324 A  
HETATM   15  C   UNL     1      -9.567  15.969  66.393  1.00  0.00    -0.309 A  
HETATM   16  C   UNL     1     -10.352  16.742  67.252  1.00  0.00    -0.304 A  
HETATM   17  F   UNL     1     -12.029  14.098  69.085  1.00  0.00    -0.320 F  
HETATM   18  C   UNL     1     -11.186  16.067  68.146  1.00  0.00    -0.325 A  
HETATM   19  C   UNL     1     -11.201  14.668  68.196  1.00  0.00    -0.289 A  
BRANCH  16  20
HETATM   20  N   UNL     1     -10.327  18.154  67.199  1.00  0.00    -0.365 N  
HETATM   21  C   UNL     1      -9.768  20.184  66.338  1.00  0.00    -0.415 C  
HETATM   22  C   UNL     1     -10.513  18.915  65.997  1.00  0.00    -0.446 C  
HETATM   23  O   UNL     1      -9.992  20.318  67.747  1.00  0.00    -0.405 OA 
HETATM   24  O   UNL     1     -10.063  18.814  69.447  1.00  0.00    -0.208 OA 
HETATM   25  C   UNL     1     -10.130  19.043  68.253  1.00  0.00    -0.396 C  
BRANCH  21  26
HETATM   26  C   UNL     1      -8.262  20.081  66.089  1.00  0.00    -0.272 C  
BRANCH  26  27
HETATM   27  O   UNL     1      -7.522  20.651  67.159  1.00  0.00    -0.321 OA 
HETATM   28  P   UNL     1      -6.598  19.468  68.019  1.00  0.00    -0.250 P  
HETATM   29  O   UNL     1      -5.425  19.794  66.925  1.00  0.00    -0.170 OA 
HETATM   30  O   UNL     1      -5.770  18.410  68.789  1.00  0.00    -0.189 OA 
HETATM   31  O   UNL     1      -6.253  20.677  69.064  1.00  0.00    -0.326 OA 
ENDBRANCH  26  27
ENDBRANCH  21  26
ENDBRANCH  16  20
ENDBRANCH  10  13
ENDBRANCH   5   7
TORSDOF 5
ENDMDL
MODEL       28
REMARK 921   NORMALIZED FREE ENERGY PREDICTED BY IDOCK:   -6.52 KCAL/MOL
REMARK 922        TOTAL FREE ENERGY PREDICTED BY IDOCK:   -9.18 KCAL/MOL
REMARK 923 INTER-LIGAND FREE ENERGY PREDICTED BY IDOCK:   -8.55 KCAL/MOL
REMARK 924 INTRA-LIGAND FREE ENERGY PREDICTED BY IDOCK:   -0.64 KCAL/MOL
REMARK 927      BINDING AFFINITY PREDICTED BY RF-SCORE:    0.00 PKD
ROOT
HETATM    1  C   UNL     1      -7.343   1.558  71.818  1.00  0.00    -0.035 C  
HETATM    2  N   UNL     1      -8.457   2.422  72.101  1.00  0.00    -0.061 NA 
HETATM    3  N   UNL     1      -9.432   2.063  72.941  1.00  0.00    -0.080 NA 
HETATM    4  N   UNL     1     -10.277   3.084  72.929  1.00  0.00    -0.148 NA 
HETATM    5  C   UNL     1      -9.760   4.026  72.062  1.00  0.00    -0.165 A  
HETATM    6  N   UNL     1      -8.590   3.627  71.517  1.00  0.00    -0.082 NA 
ENDROOT
BRANCH   5   7
HETATM    7  C   UNL     1     -10.410   5.313  71.814  1.00  0.00    -0.214 A  
HETATM    8  C   UNL     1     -10.965   5.616  70.575  1.00  0.00    -0.267 A  
HETATM    9  C   UNL     1     -11.497   6.892  70.362  1.00  0.00    -0.387 A  
HETATM   10  C   UNL     1     -11.464   7.865  71.372  1.00  0.00    -0.293 A  
HETATM   11  N   UNL     1     -10.408   6.207  72.832  1.00  0.00    -0.190 NA 
HETATM   12  C   UNL     1     -10.925   7.436  72.589  1.00  0.00    -0.317 A  
BRANCH  10  13
HETATM   13  C   UNL     1     -11.872   9.269  71.146  1.00  0.00    -0.396 A  
HETATM   14  C   UNL     1     -11.167  10.092  70.252  1.00  0.00    -0.379 A  
HETATM   15  C   UNL     1     -11.458  11.458  70.119  1.00  0.00    -0.302 A  
HETATM   16  C   UNL     1     -12.470  12.062  70.868  1.00  0.00    -0.288 A  
HETATM   17  F   UNL     1     -13.670   9.173  72.706  1.00  0.00    -0.475 F  
HETATM   18  C   UNL     1     -13.208  11.247  71.728  1.00  0.00    -0.480 A  
HETATM   19  C   UNL     1     -12.913   9.885  71.856  1.00  0.00    -0.448 A  
BRANCH  16  20
HETATM   20  N   UNL     1     -12.758  13.439  70.738  1.00  0.00    -0.269 N  
HETATM   21  C   UNL     1     -12.408  15.569  70.020  1.00  0.00    -0.317 C  
HETATM   22  C   UNL     1     -12.651  14.170  69.508  1.00  0.00     0.029 C  
HETATM   23  O   UNL     1     -13.169  15.603  71.233  1.00  0.00    -0.494 OA 
HETATM   24  O   UNL     1     -13.520  14.076  72.877  1.00  0.00    -0.647 OA 
HETATM   25  C   UNL     1     -13.185  14.318  71.731  1.00  0.00    -0.367 C  
BRANCH  21  26
HETATM   26  C   UNL     1     -10.939  15.838  70.355  1.00  0.00    -0.355 C  
BRANCH  26  27
HETATM   27  O   UNL     1     -10.351  16.728  69.417  1.00  0.00    -0.302 OA 
HETATM   28  P   UNL     1      -8.938  16.057  68.677  1.00  0.00    -0.235 P  
HETATM   29  O   UNL     1      -9.979  15.447  67.571  1.00  0.00    -0.224 OA 
HETATM   30  O   UNL     1      -7.674  15.456  68.014  1.00  0.00    -0.117 OA 
HETATM   31  O   UNL     1      -8.746  17.530  67.996  1.00  0.00    -0.241 OA 
ENDBRANCH  26  27
ENDBRANCH  21  26
ENDBRANCH  16  20
ENDBRANCH  10  13
ENDBRANCH   5   7
TORSDOF 5
ENDMDL
MODEL       29
REMARK 921   NORMALIZED FREE ENERGY PREDICTED BY IDOCK:   -6.51 KCAL/MOL
REMARK 922        TOTAL FREE ENERGY PREDICTED BY IDOCK:   -9.18 KCAL/MOL
REMARK 923 INTER-LIGAND FREE ENERGY PREDICTED BY IDOCK:   -8.40 KCAL/MOL
REMARK 924 INTRA-LIGAND FREE ENERGY PREDICTED BY IDOCK:   -0.77 KCAL/MOL
REMARK 927      BINDING AFFINITY PREDICTED BY RF-SCORE:    0.00 PKD
ROOT
HETATM    1  C   UNL     1      -9.441   1.993  64.829  1.00  0.00    -0.061 C  
HETATM    2  N   UNL     1      -9.303   3.197  65.603  1.00  0.00    -0.142 NA 
HETATM    3  N   UNL     1      -8.826   3.182  66.852  1.00  0.00    -0.132 NA 
HETATM    4  N   UNL     1      -8.869   4.448  67.241  1.00  0.00    -0.105 NA 
HETATM    5  C   UNL     1      -9.383   5.178  66.189  1.00  0.00    -0.155 A  
HETATM    6  N   UNL     1      -9.670   4.399  65.122  1.00  0.00    -0.178 NA 
ENDROOT
BRANCH   5   7
HETATM    7  C   UNL     1      -9.551   6.630  66.241  1.00  0.00    -0.039 A  
HETATM    8  C   UNL     1     -10.615   7.211  66.923  1.00  0.00    -0.371 A  
HETATM    9  C   UNL     1     -10.780   8.600  66.871  1.00  0.00    -0.152 A  
HETATM   10  C   UNL     1      -9.899   9.402  66.131  1.00  0.00    -0.356 A  
HETATM   11  N   UNL     1      -8.648   7.376  65.561  1.00  0.00    -0.117 NA 
HETATM   12  C   UNL     1      -8.841   8.718  65.525  1.00  0.00    -0.188 A  
BRANCH  10  13
HETATM   13  C   UNL     1     -10.120  10.850  65.920  1.00  0.00    -0.307 A  
HETATM   14  C   UNL     1     -10.335  11.368  64.633  1.00  0.00    -0.362 A  
HETATM   15  C   UNL     1     -10.418  12.748  64.395  1.00  0.00    -0.410 A  
HETATM   16  C   UNL     1     -10.297  13.673  65.434  1.00  0.00    -0.332 A  
HETATM   17  F   UNL     1      -9.878  11.394  68.227  1.00  0.00    -0.172 F  
HETATM   18  C   UNL     1     -10.127  13.171  66.726  1.00  0.00    -0.253 A  
HETATM   19  C   UNL     1     -10.045  11.793  66.956  1.00  0.00    -0.209 A  
BRANCH  16  20
HETATM   20  N   UNL     1     -10.375  15.063  65.194  1.00  0.00    -0.394 N  
HETATM   21  C   UNL     1     -10.180  17.268  65.718  1.00  0.00    -0.198 C  
HETATM   22  C   UNL     1      -9.366  16.003  65.589  1.00  0.00    -0.089 C  
HETATM   23  O   UNL     1     -11.172  17.115  64.696  1.00  0.00    -1.003 OA 
HETATM   24  O   UNL     1     -12.367  15.329  63.961  1.00  0.00    -0.665 OA 
HETATM   25  C   UNL     1     -11.396  15.762  64.554  1.00  0.00    -0.316 C  
BRANCH  21  26
HETATM   26  C   UNL     1     -10.885  17.394  67.070  1.00  0.00    -0.049 C  
BRANCH  26  27
HETATM   27  O   UNL     1     -10.052  18.030  68.029  1.00  0.00    -0.326 OA 
HETATM   28  P   UNL     1      -9.096  19.292  67.330  1.00  0.00    -0.316 P  
HETATM   29  O   UNL     1     -10.371  20.258  67.676  1.00  0.00    -0.358 OA 
HETATM   30  O   UNL     1      -8.241  20.421  66.705  1.00  0.00    -0.287 OA 
HETATM   31  O   UNL     1      -8.365  19.377  68.789  1.00  0.00    -0.363 OA 
ENDBRANCH  26  27
ENDBRANCH  21  26
ENDBRANCH  16  20
ENDBRANCH  10  13
ENDBRANCH   5   7
TORSDOF 5
ENDMDL
MODEL       30
REMARK 921   NORMALIZED FREE ENERGY PREDICTED BY IDOCK:   -6.48 KCAL/MOL
REMARK 922        TOTAL FREE ENERGY PREDICTED BY IDOCK:   -9.14 KCAL/MOL
REMARK 923 INTER-LIGAND FREE ENERGY PREDICTED BY IDOCK:   -8.48 KCAL/MOL
REMARK 924 INTRA-LIGAND FREE ENERGY PREDICTED BY IDOCK:   -0.66 KCAL/MOL
REMARK 927      BINDING AFFINITY PREDICTED BY RF-SCORE:    0.00 PKD
ROOT
HETATM    1  C   UNL     1     -10.271  19.032  66.147  1.00  0.00    -0.446 C  
HETATM    2  N   UNL     1     -10.512  17.683  65.711  1.00  0.00    -0.578 NA 
HETATM    3  N   UNL     1     -11.174  17.416  64.580  1.00  0.00    -0.824 NA 
HETATM    4  N   UNL     1     -11.221  16.093  64.525  1.00  0.00    -0.592 NA 
HETATM    5  C   UNL     1     -10.577  15.618  65.650  1.00  0.00    -0.378 A  
HETATM    6  N   UNL     1     -10.110  16.619  66.428  1.00  0.00    -0.301 NA 
ENDROOT
BRANCH   5   7
HETATM    7  C   UNL     1     -10.402  14.190  65.918  1.00  0.00    -0.316 A  
HETATM    8  C   UNL     1     -11.348  13.257  65.506  1.00  0.00    -0.315 A  
HETATM    9  C   UNL     1     -11.179  11.915  65.862  1.00  0.00    -0.373 A  
HETATM   10  C   UNL     1     -10.082  11.508  66.637  1.00  0.00    -0.242 A  
HETATM   11  N   UNL     1      -9.303  13.828  66.620  1.00  0.00    -0.275 NA 
HETATM   12  C   UNL     1      -9.173  12.521  66.955  1.00  0.00    -0.214 A  
BRANCH  10  13
HETATM   13  C   UNL     1      -9.942  10.133  67.167  1.00  0.00    -0.243 A  
HETATM   14  C   UNL     1     -10.354   9.023  66.412  1.00  0.00    -0.219 A  
HETATM   15  C   UNL     1     -10.349   7.724  66.944  1.00  0.00    -0.396 A  
HETATM   16  C   UNL     1      -9.926   7.476  68.251  1.00  0.00    -0.173 A  
HETATM   17  F   UNL     1      -9.029  10.848  69.247  1.00  0.00    -0.168 F  
HETATM   18  C   UNL     1      -9.472   8.565  68.999  1.00  0.00    -0.150 A  
HETATM   19  C   UNL     1      -9.480   9.857  68.462  1.00  0.00    -0.146 A  
BRANCH  16  20
HETATM   20  N   UNL     1      -9.927   6.170  68.790  1.00  0.00    -0.138 N  
HETATM   21  C   UNL     1      -9.998   4.613  70.447  1.00  0.00    -0.230 C  
HETATM   22  C   UNL     1     -10.806   5.734  69.837  1.00  0.00    -0.347 C  
HETATM   23  O   UNL     1      -9.308   4.064  69.318  1.00  0.00    -0.139 OA 
HETATM   24  O   UNL     1      -8.333   5.009  67.498  1.00  0.00    -0.106 OA 
HETATM   25  C   UNL     1      -9.117   5.097  68.424  1.00  0.00    -0.112 C  
BRANCH  21  26
HETATM   26  C   UNL     1      -8.963   5.103  71.462  1.00  0.00    -0.137 C  
BRANCH  26  27
HETATM   27  O   UNL     1      -9.526   5.209  72.762  1.00  0.00    -0.141 OA 
HETATM   28  P   UNL     1     -10.314   3.750  73.254  1.00  0.00    -0.192 P  
HETATM   29  O   UNL     1      -8.846   3.319  73.836  1.00  0.00    -0.083 OA 
HETATM   30  O   UNL     1     -11.019   2.444  73.696  1.00  0.00    -0.165 OA 
HETATM   31  O   UNL     1     -10.814   4.605  74.555  1.00  0.00    -0.339 OA 
ENDBRANCH  26  27
ENDBRANCH  21  26
ENDBRANCH  16  20
ENDBRANCH  10  13
ENDBRANCH   5   7
TORSDOF 5
ENDMDL
MODEL       31
REMARK 921   NORMALIZED FREE ENERGY PREDICTED BY IDOCK:   -6.47 KCAL/MOL
REMARK 922        TOTAL FREE ENERGY PREDICTED BY IDOCK:   -9.13 KCAL/MOL
REMARK 923 INTER-LIGAND FREE ENERGY PREDICTED BY IDOCK:   -8.43 KCAL/MOL
REMARK 924 INTRA-LIGAND FREE ENERGY PREDICTED BY IDOCK:   -0.70 KCAL/MOL
REMARK 927      BINDING AFFINITY PREDICTED BY RF-SCORE:    0.00 PKD
ROOT
HETATM    1  C   UNL     1      -9.582   1.906  71.291  1.00  0.00    -0.143 C  
HETATM    2  N   UNL     1      -9.656   2.983  70.341  1.00  0.00    -0.141 NA 
HETATM    3  N   UNL     1      -9.365   2.804  69.048  1.00  0.00    -0.154 NA 
HETATM    4  N   UNL     1      -9.518   4.003  68.503  1.00  0.00    -0.159 NA 
HETATM    5  C   UNL     1      -9.898   4.862  69.514  1.00  0.00    -0.217 A  
HETATM    6  N   UNL     1      -9.996   4.233  70.706  1.00  0.00    -0.188 NA 
ENDROOT
BRANCH   5   7
HETATM    7  C   UNL     1     -10.191   6.276  69.281  1.00  0.00    -0.193 A  
HETATM    8  C   UNL     1     -10.253   6.799  67.994  1.00  0.00    -0.200 A  
HETATM    9  C   UNL     1     -10.449   8.175  67.827  1.00  0.00    -0.279 A  
HETATM   10  C   UNL     1     -10.568   9.025  68.936  1.00  0.00    -0.203 A  
HETATM   11  N   UNL     1     -10.355   7.056  70.376  1.00  0.00    -0.200 NA 
HETATM   12  C   UNL     1     -10.536   8.386  70.179  1.00  0.00    -0.233 A  
BRANCH  10  13
HETATM   13  C   UNL     1     -10.622  10.499  68.813  1.00  0.00    -0.233 A  
HETATM   14  C   UNL     1      -9.619  11.204  68.129  1.00  0.00    -0.181 A  
HETATM   15  C   UNL     1      -9.583  12.606  68.111  1.00  0.00    -0.219 A  
HETATM   16  C   UNL     1     -10.551  13.367  68.769  1.00  0.00    -0.210 A  
HETATM   17  F   UNL     1     -12.632  10.698  70.077  1.00  0.00    -0.364 F  
HETATM   18  C   UNL     1     -11.580  12.680  69.416  1.00  0.00    -0.369 A  
HETATM   19  C   UNL     1     -11.610  11.281  69.431  1.00  0.00    -0.321 A  
BRANCH  16  20
HETATM   20  N   UNL     1     -10.511  14.780  68.755  1.00  0.00    -0.243 N  
HETATM   21  C   UNL     1     -10.807  16.851  67.863  1.00  0.00    -0.310 C  
HETATM   22  C   UNL     1     -11.570  15.608  68.254  1.00  0.00    -0.319 C  
HETATM   23  O   UNL     1      -9.763  16.908  68.842  1.00  0.00    -0.252 OA 
HETATM   24  O   UNL     1      -8.474  15.312  69.816  1.00  0.00    -0.200 OA 
HETATM   25  C   UNL     1      -9.486  15.608  69.208  1.00  0.00    -0.264 C  
BRANCH  21  26
HETATM   26  C   UNL     1     -10.171  16.752  66.474  1.00  0.00    -0.316 C  
BRANCH  26  27
HETATM   27  O   UNL     1     -10.513  17.872  65.670  1.00  0.00    -0.610 OA 
HETATM   28  P   UNL     1     -10.243  19.372  66.488  1.00  0.00    -0.528 P  
HETATM   29  O   UNL     1      -8.733  19.280  65.863  1.00  0.00    -0.443 OA 
HETATM   30  O   UNL     1     -10.001  20.715  67.220  1.00  0.00    -0.448 OA 
HETATM   31  O   UNL     1     -10.964  20.065  65.196  1.00  0.00    -0.291 OA 
ENDBRANCH  26  27
ENDBRANCH  21  26
ENDBRANCH  16  20
ENDBRANCH  10  13
ENDBRANCH   5   7
TORSDOF 5
ENDMDL
MODEL       32
REMARK 921   NORMALIZED FREE ENERGY PREDICTED BY IDOCK:   -6.44 KCAL/MOL
REMARK 922        TOTAL FREE ENERGY PREDICTED BY IDOCK:   -9.09 KCAL/MOL
REMARK 923 INTER-LIGAND FREE ENERGY PREDICTED BY IDOCK:   -8.39 KCAL/MOL
REMARK 924 INTRA-LIGAND FREE ENERGY PREDICTED BY IDOCK:   -0.69 KCAL/MOL
REMARK 927      BINDING AFFINITY PREDICTED BY RF-SCORE:    0.00 PKD
ROOT
HETATM    1  C   UNL     1      -9.843   2.705  72.519  1.00  0.00    -0.146 C  
HETATM    2  N   UNL     1     -10.345   4.053  72.493  1.00  0.00    -0.171 NA 
HETATM    3  N   UNL     1     -11.087   4.548  73.489  1.00  0.00    -0.306 NA 
HETATM    4  N   UNL     1     -11.378   5.783  73.106  1.00  0.00    -0.210 NA 
HETATM    5  C   UNL     1     -10.788   5.974  71.873  1.00  0.00    -0.254 A  
HETATM    6  N   UNL     1     -10.116   4.879  71.455  1.00  0.00    -0.192 NA 
ENDROOT
BRANCH   5   7
HETATM    7  C   UNL     1     -10.868   7.242  71.146  1.00  0.00    -0.242 A  
HETATM    8  C   UNL     1     -10.553   7.321  69.794  1.00  0.00    -0.247 A  
HETATM    9  C   UNL     1     -10.561   8.571  69.166  1.00  0.00    -0.188 A  
HETATM   10  C   UNL     1     -10.866   9.736  69.884  1.00  0.00    -0.306 A  
HETATM   11  N   UNL     1     -11.221   8.337  71.861  1.00  0.00    -0.279 NA 
HETATM   12  C   UNL     1     -11.212   9.533  71.223  1.00  0.00    -0.382 A  
BRANCH  10  13
HETATM   13  C   UNL     1     -10.738  11.092  69.303  1.00  0.00    -0.263 A  
HETATM   14  C   UNL     1     -11.829  11.976  69.285  1.00  0.00    -0.377 A  
HETATM   15  C   UNL     1     -11.767  13.213  68.627  1.00  0.00    -0.362 A  
HETATM   16  C   UNL     1     -10.610  13.626  67.964  1.00  0.00    -0.249 A  
HETATM   17  F   UNL     1      -8.464  10.786  68.665  1.00  0.00    -0.113 F  
HETATM   18  C   UNL     1      -9.503  12.777  68.010  1.00  0.00    -0.213 A  
HETATM   19  C   UNL     1      -9.572  11.544  68.669  1.00  0.00    -0.152 A  
BRANCH  16  20
HETATM   20  N   UNL     1     -10.549  14.870  67.296  1.00  0.00    -0.268 N  
HETATM   21  C   UNL     1      -9.635  16.446  65.934  1.00  0.00    -0.274 C  
HETATM   22  C   UNL     1     -10.151  15.027  65.926  1.00  0.00    -0.320 C  
HETATM   23  O   UNL     1     -10.484  17.090  66.892  1.00  0.00    -0.313 OA 
HETATM   24  O   UNL     1     -11.349  16.420  68.882  1.00  0.00    -0.332 OA 
HETATM   25  C   UNL     1     -10.854  16.129  67.808  1.00  0.00    -0.318 C  
BRANCH  21  26
HETATM   26  C   UNL     1      -8.186  16.556  66.412  1.00  0.00    -0.329 C  
BRANCH  26  27
HETATM   27  O   UNL     1      -7.447  17.470  65.614  1.00  0.00    -0.462 OA 
HETATM   28  P   UNL     1      -7.398  19.053  66.310  1.00  0.00    -0.270 P  
HETATM   29  O   UNL     1      -6.058  18.519  67.083  1.00  0.00    -0.164 OA 
HETATM   30  O   UNL     1      -7.353  20.470  66.933  1.00  0.00    -0.288 OA 
HETATM   31  O   UNL     1      -6.671  19.508  64.919  1.00  0.00    -0.402 OA 
ENDBRANCH  26  27
ENDBRANCH  21  26
ENDBRANCH  16  20
ENDBRANCH  10  13
ENDBRANCH   5   7
TORSDOF 5
ENDMDL
MODEL       33
REMARK 921   NORMALIZED FREE ENERGY PREDICTED BY IDOCK:   -6.43 KCAL/MOL
REMARK 922        TOTAL FREE ENERGY PREDICTED BY IDOCK:   -9.07 KCAL/MOL
REMARK 923 INTER-LIGAND FREE ENERGY PREDICTED BY IDOCK:   -8.15 KCAL/MOL
REMARK 924 INTRA-LIGAND FREE ENERGY PREDICTED BY IDOCK:   -0.92 KCAL/MOL
REMARK 927      BINDING AFFINITY PREDICTED BY RF-SCORE:    0.00 PKD
ROOT
HETATM    1  C   UNL     1      -8.391   1.566  67.635  1.00  0.00    -0.068 C  
HETATM    2  N   UNL     1      -8.817   2.738  66.919  1.00  0.00    -0.131 NA 
HETATM    3  N   UNL     1      -9.275   2.670  65.665  1.00  0.00    -0.125 NA 
HETATM    4  N   UNL     1      -9.541   3.927  65.338  1.00  0.00    -0.175 NA 
HETATM    5  C   UNL     1      -9.221   4.706  66.432  1.00  0.00    -0.133 A  
HETATM    6  N   UNL     1      -8.755   3.967  67.463  1.00  0.00    -0.101 NA 
ENDROOT
BRANCH   5   7
HETATM    7  C   UNL     1      -9.412   6.156  66.453  1.00  0.00    -0.144 A  
HETATM    8  C   UNL     1     -10.458   6.737  67.160  1.00  0.00    -0.364 A  
HETATM    9  C   UNL     1     -10.650   8.121  67.077  1.00  0.00    -0.346 A  
HETATM   10  C   UNL     1      -9.813   8.918  66.283  1.00  0.00    -0.355 A  
HETATM   11  N   UNL     1      -8.549   6.898  65.718  1.00  0.00    -0.146 NA 
HETATM   12  C   UNL     1      -8.768   8.235  65.654  1.00  0.00    -0.156 A  
BRANCH  10  13
HETATM   13  C   UNL     1     -10.068  10.356  66.043  1.00  0.00    -0.307 A  
HETATM   14  C   UNL     1     -10.356  10.833  64.754  1.00  0.00    -0.380 A  
HETATM   15  C   UNL     1     -10.473  12.204  64.482  1.00  0.00    -0.339 A  
HETATM   16  C   UNL     1     -10.315  13.160  65.488  1.00  0.00    -0.290 A  
HETATM   17  F   UNL     1      -9.720  10.969  68.318  1.00  0.00    -0.154 F  
HETATM   18  C   UNL     1     -10.072  12.699  66.783  1.00  0.00    -0.243 A  
HETATM   19  C   UNL     1      -9.956  11.329  67.046  1.00  0.00    -0.198 A  
BRANCH  16  20
HETATM   20  N   UNL     1     -10.427  14.542  65.213  1.00  0.00    -0.363 N  
HETATM   21  C   UNL     1     -10.254  16.764  65.668  1.00  0.00    -0.236 C  
HETATM   22  C   UNL     1      -9.422  15.510  65.544  1.00  0.00    -0.133 C  
HETATM   23  O   UNL     1     -11.281  16.565  64.689  1.00  0.00    -0.626 OA 
HETATM   24  O   UNL     1     -12.468  14.738  64.049  1.00  0.00    -0.803 OA 
HETATM   25  C   UNL     1     -11.484  15.205  64.593  1.00  0.00    -0.362 C  
BRANCH  21  26
HETATM   26  C   UNL     1     -10.911  16.915  67.042  1.00  0.00    -0.055 C  
BRANCH  26  27
HETATM   27  O   UNL     1     -10.342  16.019  67.987  1.00  0.00    -0.252 OA 
HETATM   28  P   UNL     1     -11.264  15.939  69.448  1.00  0.00    -0.368 P  
HETATM   29  O   UNL     1     -12.094  14.747  68.695  1.00  0.00    -0.277 OA 
HETATM   30  O   UNL     1     -12.089  15.866  70.757  1.00  0.00    -0.389 OA 
HETATM   31  O   UNL     1     -10.043  15.016  70.022  1.00  0.00    -0.134 OA 
ENDBRANCH  26  27
ENDBRANCH  21  26
ENDBRANCH  16  20
ENDBRANCH  10  13
ENDBRANCH   5   7
TORSDOF 5
ENDMDL
MODEL       34
REMARK 921   NORMALIZED FREE ENERGY PREDICTED BY IDOCK:   -6.40 KCAL/MOL
REMARK 922        TOTAL FREE ENERGY PREDICTED BY IDOCK:   -9.03 KCAL/MOL
REMARK 923 INTER-LIGAND FREE ENERGY PREDICTED BY IDOCK:   -8.51 KCAL/MOL
REMARK 924 INTRA-LIGAND FREE ENERGY PREDICTED BY IDOCK:   -0.52 KCAL/MOL
REMARK 927      BINDING AFFINITY PREDICTED BY RF-SCORE:    0.00 PKD
ROOT
HETATM    1  C   UNL     1      -9.204  20.042  66.603  1.00  0.00    -0.376 C  
HETATM    2  N   UNL     1      -9.771  18.821  66.097  1.00  0.00    -0.477 NA 
HETATM    3  N   UNL     1     -10.683  18.820  65.119  1.00  0.00    -0.356 NA 
HETATM    4  N   UNL     1     -10.982  17.541  64.942  1.00  0.00    -0.827 NA 
HETATM    5  C   UNL     1     -10.223  16.820  65.842  1.00  0.00    -0.328 A  
HETATM    6  N   UNL     1      -9.435  17.618  66.596  1.00  0.00    -0.271 NA 
ENDROOT
BRANCH   5   7
HETATM    7  C   UNL     1     -10.263  15.360  65.919  1.00  0.00    -0.344 A  
HETATM    8  C   UNL     1     -11.233  14.627  65.243  1.00  0.00    -0.358 A  
HETATM    9  C   UNL     1     -11.282  13.240  65.419  1.00  0.00    -0.306 A  
HETATM   10  C   UNL     1     -10.380  12.589  66.274  1.00  0.00    -0.269 A  
HETATM   11  N   UNL     1      -9.341  14.762  66.710  1.00  0.00    -0.236 NA 
HETATM   12  C   UNL     1      -9.421  13.417  66.864  1.00  0.00    -0.253 A  
BRANCH  10  13
HETATM   13  C   UNL     1     -10.489  11.152  66.609  1.00  0.00    -0.298 A  
HETATM   14  C   UNL     1     -11.006  10.736  67.847  1.00  0.00    -0.344 A  
HETATM   15  C   UNL     1     -10.999   9.389  68.236  1.00  0.00    -0.085 A  
HETATM   16  C   UNL     1     -10.482   8.394  67.403  1.00  0.00    -0.283 A  
HETATM   17  F   UNL     1      -9.536  10.427  64.550  1.00  0.00    -0.250 F  
HETATM   18  C   UNL     1     -10.005   8.787  66.151  1.00  0.00    -0.244 A  
HETATM   19  C   UNL     1     -10.015  10.133  65.770  1.00  0.00    -0.271 A  
BRANCH  16  20
HETATM   20  N   UNL     1     -10.470   7.037  67.798  1.00  0.00    -0.203 N  
HETATM   21  C   UNL     1     -10.329   5.312  69.273  1.00  0.00    -0.215 C  
HETATM   22  C   UNL     1     -11.160   6.530  68.949  1.00  0.00    -0.301 C  
HETATM   23  O   UNL     1      -9.906   4.860  67.981  1.00  0.00    -0.152 OA 
HETATM   24  O   UNL     1      -9.233   5.954  66.109  1.00  0.00    -0.159 OA 
HETATM   25  C   UNL     1      -9.819   5.975  67.176  1.00  0.00    -0.142 C  
BRANCH  21  26
HETATM   26  C   UNL     1      -9.089   5.636  70.109  1.00  0.00    -0.138 C  
BRANCH  26  27
HETATM   27  O   UNL     1      -9.373   6.621  71.093  1.00  0.00    -0.162 OA 
HETATM   28  P   UNL     1     -10.165   5.951  72.477  1.00  0.00    -0.200 P  
HETATM   29  O   UNL     1      -8.652   5.701  73.048  1.00  0.00    -0.122 OA 
HETATM   30  O   UNL     1     -10.874   5.353  73.717  1.00  0.00    -0.284 OA 
HETATM   31  O   UNL     1     -10.326   7.499  72.979  1.00  0.00    -0.257 OA 
ENDBRANCH  26  27
ENDBRANCH  21  26
ENDBRANCH  16  20
ENDBRANCH  10  13
ENDBRANCH   5   7
TORSDOF 5
ENDMDL
MODEL       35
REMARK 921   NORMALIZED FREE ENERGY PREDICTED BY IDOCK:   -6.31 KCAL/MOL
REMARK 922        TOTAL FREE ENERGY PREDICTED BY IDOCK:   -8.91 KCAL/MOL
REMARK 923 INTER-LIGAND FREE ENERGY PREDICTED BY IDOCK:   -7.90 KCAL/MOL
REMARK 924 INTRA-LIGAND FREE ENERGY PREDICTED BY IDOCK:   -1.01 KCAL/MOL
REMARK 927      BINDING AFFINITY PREDICTED BY RF-SCORE:    0.00 PKD
ROOT
HETATM    1  C   UNL     1      -9.252   2.311  68.260  1.00  0.00    -0.192 C  
HETATM    2  N   UNL     1      -9.619   3.594  68.797  1.00  0.00    -0.141 NA 
HETATM    3  N   UNL     1      -9.866   3.769  70.099  1.00  0.00    -0.140 NA 
HETATM    4  N   UNL     1     -10.189   5.049  70.208  1.00  0.00    -0.266 NA 
HETATM    5  C   UNL     1     -10.124   5.593  68.941  1.00  0.00    -0.192 A  
HETATM    6  N   UNL     1      -9.758   4.680  68.015  1.00  0.00    -0.153 NA 
ENDROOT
BRANCH   5   7
HETATM    7  C   UNL     1     -10.389   7.006  68.673  1.00  0.00    -0.186 A  
HETATM    8  C   UNL     1     -10.479   7.491  67.373  1.00  0.00    -0.367 A  
HETATM    9  C   UNL     1     -10.647   8.865  67.168  1.00  0.00    -0.301 A  
HETATM   10  C   UNL     1     -10.710   9.752  68.253  1.00  0.00    -0.277 A  
HETATM   11  N   UNL     1     -10.500   7.824  69.747  1.00  0.00    -0.229 NA 
HETATM   12  C   UNL     1     -10.655   9.151  69.514  1.00  0.00    -0.223 A  
BRANCH  10  13
HETATM   13  C   UNL     1     -10.732  11.222  68.085  1.00  0.00    -0.244 A  
HETATM   14  C   UNL     1     -11.878  11.878  67.608  1.00  0.00    -0.265 A  
HETATM   15  C   UNL     1     -11.879  13.251  67.321  1.00  0.00    -0.421 A  
HETATM   16  C   UNL     1     -10.737  14.032  67.503  1.00  0.00    -0.268 A  
HETATM   17  F   UNL     1      -8.476  11.505  68.794  1.00  0.00    -0.149 F  
HETATM   18  C   UNL     1      -9.602  13.403  68.019  1.00  0.00    -0.219 A  
HETATM   19  C   UNL     1      -9.608  12.033  68.303  1.00  0.00    -0.204 A  
BRANCH  16  20
HETATM   20  N   UNL     1     -10.736  15.414  67.208  1.00  0.00    -0.302 N  
HETATM   21  C   UNL     1      -9.993  17.316  66.205  1.00  0.00    -0.300 C  
HETATM   22  C   UNL     1     -10.560  15.953  65.889  1.00  0.00    -0.337 C  
HETATM   23  O   UNL     1     -10.647  17.658  67.433  1.00  0.00    -0.356 OA 
HETATM   24  O   UNL     1     -11.201  16.449  69.274  1.00  0.00    -0.315 OA 
HETATM   25  C   UNL     1     -10.901  16.476  68.094  1.00  0.00    -0.345 C  
BRANCH  21  26
HETATM   26  C   UNL     1      -8.482  17.297  66.444  1.00  0.00    -0.269 C  
BRANCH  26  27
HETATM   27  O   UNL     1      -8.062  18.434  67.184  1.00  0.00    -0.232 OA 
HETATM   28  P   UNL     1      -7.111  18.001  68.563  1.00  0.00    -0.269 P  
HETATM   29  O   UNL     1      -5.838  18.095  67.540  1.00  0.00    -0.145 OA 
HETATM   30  O   UNL     1      -6.260  17.614  69.798  1.00  0.00    -0.244 OA 
HETATM   31  O   UNL     1      -7.184  19.586  68.957  1.00  0.00    -0.348 OA 
ENDBRANCH  26  27
ENDBRANCH  21  26
ENDBRANCH  16  20
ENDBRANCH  10  13
ENDBRANCH   5   7
TORSDOF 5
ENDMDL
MODEL       36
REMARK 921   NORMALIZED FREE ENERGY PREDICTED BY IDOCK:   -6.23 KCAL/MOL
REMARK 922        TOTAL FREE ENERGY PREDICTED BY IDOCK:   -8.81 KCAL/MOL
REMARK 923 INTER-LIGAND FREE ENERGY PREDICTED BY IDOCK:   -8.30 KCAL/MOL
REMARK 924 INTRA-LIGAND FREE ENERGY PREDICTED BY IDOCK:   -0.51 KCAL/MOL
REMARK 927      BINDING AFFINITY PREDICTED BY RF-SCORE:    0.00 PKD
ROOT
HETATM    1  C   UNL     1      -6.663   2.006  64.623  1.00  0.00    -0.031 C  
HETATM    2  N   UNL     1      -7.763   2.906  64.841  1.00  0.00    -0.076 NA 
HETATM    3  N   UNL     1      -8.973   2.679  64.320  1.00  0.00    -0.106 NA 
HETATM    4  N   UNL     1      -9.704   3.714  64.709  1.00  0.00    -0.170 NA 
HETATM    5  C   UNL     1      -8.881   4.532  65.457  1.00  0.00    -0.130 A  
HETATM    6  N   UNL     1      -7.628   4.036  65.560  1.00  0.00    -0.081 NA 
ENDROOT
BRANCH   5   7
HETATM    7  C   UNL     1      -9.352   5.767  66.084  1.00  0.00    -0.144 A  
HETATM    8  C   UNL     1     -10.587   5.828  66.721  1.00  0.00    -0.373 A  
HETATM    9  C   UNL     1     -11.030   7.055  67.229  1.00  0.00    -0.372 A  
HETATM   10  C   UNL     1     -10.254   8.215  67.090  1.00  0.00    -0.366 A  
HETATM   11  N   UNL     1      -8.550   6.853  65.978  1.00  0.00    -0.142 NA 
HETATM   12  C   UNL     1      -9.013   8.027  66.474  1.00  0.00    -0.157 A  
BRANCH  10  13
HETATM   13  C   UNL     1     -10.745   9.558  67.471  1.00  0.00    -0.311 A  
HETATM   14  C   UNL     1     -10.892  10.573  66.512  1.00  0.00    -0.128 A  
HETATM   15  C   UNL     1     -11.232  11.886  66.871  1.00  0.00    -0.382 A  
HETATM   16  C   UNL     1     -11.448  12.242  68.204  1.00  0.00    -0.316 A  
HETATM   17  F   UNL     1     -10.932   9.016  69.783  1.00  0.00    -0.233 F  
HETATM   18  C   UNL     1     -11.348  11.233  69.165  1.00  0.00    -0.349 A  
HETATM   19  C   UNL     1     -11.009   9.926  68.799  1.00  0.00    -0.179 A  
BRANCH  16  20
HETATM   20  N   UNL     1     -11.784  13.566  68.566  1.00  0.00    -0.336 N  
HETATM   21  C   UNL     1     -11.556  15.829  68.583  1.00  0.00    -0.386 C  
HETATM   22  C   UNL     1     -11.804  14.669  67.649  1.00  0.00    -0.337 C  
HETATM   23  O   UNL     1     -12.211  15.415  69.788  1.00  0.00    -0.337 OA 
HETATM   24  O   UNL     1     -12.377  13.411  70.843  1.00  0.00    -0.366 OA 
HETATM   25  C   UNL     1     -12.149  14.038  69.825  1.00  0.00    -0.348 C  
BRANCH  21  26
HETATM   26  C   UNL     1     -10.072  16.052  68.884  1.00  0.00    -0.229 C  
BRANCH  26  27
HETATM   27  O   UNL     1      -9.432  16.752  67.827  1.00  0.00    -0.225 OA 
HETATM   28  P   UNL     1     -10.274  18.202  67.399  1.00  0.00    -0.402 P  
HETATM   29  O   UNL     1      -9.345  18.913  68.543  1.00  0.00    -0.335 OA 
HETATM   30  O   UNL     1     -11.027  19.499  67.015  1.00  0.00    -0.477 OA 
HETATM   31  O   UNL     1      -9.207  18.309  66.165  1.00  0.00    -0.475 OA 
ENDBRANCH  26  27
ENDBRANCH  21  26
ENDBRANCH  16  20
ENDBRANCH  10  13
ENDBRANCH   5   7
TORSDOF 5
ENDMDL
MODEL       37
REMARK 921   NORMALIZED FREE ENERGY PREDICTED BY IDOCK:   -6.18 KCAL/MOL
REMARK 922        TOTAL FREE ENERGY PREDICTED BY IDOCK:   -8.75 KCAL/MOL
REMARK 923 INTER-LIGAND FREE ENERGY PREDICTED BY IDOCK:   -7.76 KCAL/MOL
REMARK 924 INTRA-LIGAND FREE ENERGY PREDICTED BY IDOCK:   -0.99 KCAL/MOL
REMARK 927      BINDING AFFINITY PREDICTED BY RF-SCORE:    0.00 PKD
ROOT
HETATM    1  C   UNL     1     -12.458  16.320  74.075  1.00  0.00    -0.551 C  
HETATM    2  N   UNL     1     -12.788  15.605  72.872  1.00  0.00    -0.423 NA 
HETATM    3  N   UNL     1     -14.041  15.547  72.408  1.00  0.00    -0.558 NA 
HETATM    4  N   UNL     1     -13.959  14.796  71.319  1.00  0.00    -0.403 NA 
HETATM    5  C   UNL     1     -12.636  14.428  71.180  1.00  0.00    -0.352 A  
HETATM    6  N   UNL     1     -11.861  14.935  72.164  1.00  0.00    -0.346 NA 
ENDROOT
BRANCH   5   7
HETATM    7  C   UNL     1     -12.155  13.613  70.064  1.00  0.00    -0.348 A  
HETATM    8  C   UNL     1     -12.136  12.224  70.138  1.00  0.00    -0.364 A  
HETATM    9  C   UNL     1     -11.586  11.494  69.079  1.00  0.00    -0.383 A  
HETATM   10  C   UNL     1     -11.045  12.144  67.960  1.00  0.00    -0.292 A  
HETATM   11  N   UNL     1     -11.693  14.275  68.977  1.00  0.00    -0.297 NA 
HETATM   12  C   UNL     1     -11.160  13.537  67.972  1.00  0.00    -0.258 A  
BRANCH  10  13
HETATM   13  C   UNL     1     -10.317  11.425  66.890  1.00  0.00    -0.262 A  
HETATM   14  C   UNL     1      -9.148  10.701  67.173  1.00  0.00    -0.154 A  
HETATM   15  C   UNL     1      -8.374  10.121  66.157  1.00  0.00    -0.131 A  
HETATM   16  C   UNL     1      -8.737  10.232  64.813  1.00  0.00    -0.188 A  
HETATM   17  F   UNL     1     -11.811  12.126  65.172  1.00  0.00    -0.394 F  
HETATM   18  C   UNL     1      -9.921  10.913  64.520  1.00  0.00    -0.376 A  
HETATM   19  C   UNL     1     -10.688  11.489  65.539  1.00  0.00    -0.272 A  
BRANCH  16  20
HETATM   20  N   UNL     1      -7.954   9.654  63.789  1.00  0.00    -0.134 N  
HETATM   21  C   UNL     1      -7.201   7.967  62.462  1.00  0.00    -0.092 C  
HETATM   22  C   UNL     1      -8.459   8.720  62.823  1.00  0.00    -0.170 C  
HETATM   23  O   UNL     1      -6.185   8.973  62.563  1.00  0.00    -0.095 OA 
HETATM   24  O   UNL     1      -5.843  10.676  64.026  1.00  0.00    -0.110 OA 
HETATM   25  C   UNL     1      -6.603   9.868  63.525  1.00  0.00    -0.124 C  
BRANCH  21  26
HETATM   26  C   UNL     1      -6.874   6.839  63.442  1.00  0.00    -0.050 C  
BRANCH  26  27
HETATM   27  O   UNL     1      -8.034   6.088  63.771  1.00  0.00    -0.115 OA 
HETATM   28  P   UNL     1      -7.924   5.369  65.340  1.00  0.00    -0.118 P  
HETATM   29  O   UNL     1      -8.579   6.770  65.875  1.00  0.00    -0.143 OA 
HETATM   30  O   UNL     1      -7.826   4.724  66.745  1.00  0.00    -0.097 OA 
HETATM   31  O   UNL     1      -9.323   4.615  64.957  1.00  0.00    -0.155 OA 
ENDBRANCH  26  27
ENDBRANCH  21  26
ENDBRANCH  16  20
ENDBRANCH  10  13
ENDBRANCH   5   7
TORSDOF 5
ENDMDL
MODEL       38
REMARK 921   NORMALIZED FREE ENERGY PREDICTED BY IDOCK:   -6.16 KCAL/MOL
REMARK 922        TOTAL FREE ENERGY PREDICTED BY IDOCK:   -8.73 KCAL/MOL
REMARK 923 INTER-LIGAND FREE ENERGY PREDICTED BY IDOCK:   -7.82 KCAL/MOL
REMARK 924 INTRA-LIGAND FREE ENERGY PREDICTED BY IDOCK:   -0.91 KCAL/MOL
REMARK 927      BINDING AFFINITY PREDICTED BY RF-SCORE:    0.00 PKD
ROOT
HETATM    1  C   UNL     1      -7.654   2.892  66.155  1.00  0.00    -0.076 C  
HETATM    2  N   UNL     1      -8.529   4.021  66.327  1.00  0.00    -0.108 NA 
HETATM    3  N   UNL     1      -9.858   3.884  66.357  1.00  0.00    -0.163 NA 
HETATM    4  N   UNL     1     -10.318   5.118  66.502  1.00  0.00    -0.267 NA 
HETATM    5  C   UNL     1      -9.222   5.955  66.549  1.00  0.00    -0.145 A  
HETATM    6  N   UNL     1      -8.059   5.277  66.440  1.00  0.00    -0.108 NA 
ENDROOT
BRANCH   5   7
HETATM    7  C   UNL     1      -9.339   7.402  66.734  1.00  0.00    -0.160 A  
HETATM    8  C   UNL     1     -10.402   7.956  67.438  1.00  0.00    -0.349 A  
HETATM    9  C   UNL     1     -10.517   9.349  67.513  1.00  0.00    -0.343 A  
HETATM   10  C   UNL     1      -9.585  10.183  66.877  1.00  0.00    -0.219 A  
HETATM   11  N   UNL     1      -8.390   8.173  66.153  1.00  0.00    -0.119 NA 
HETATM   12  C   UNL     1      -8.534   9.519  66.238  1.00  0.00    -0.115 A  
BRANCH  10  13
HETATM   13  C   UNL     1      -9.748  11.652  66.798  1.00  0.00    -0.220 A  
HETATM   14  C   UNL     1      -8.955  12.510  67.577  1.00  0.00    -0.185 A  
HETATM   15  C   UNL     1      -9.179  13.894  67.614  1.00  0.00    -0.199 A  
HETATM   16  C   UNL     1     -10.201  14.485  66.868  1.00  0.00    -0.264 A  
HETATM   17  F   UNL     1     -11.526  11.538  65.217  1.00  0.00    -0.323 F  
HETATM   18  C   UNL     1     -10.971  13.650  66.055  1.00  0.00    -0.288 A  
HETATM   19  C   UNL     1     -10.741  12.270  66.023  1.00  0.00    -0.261 A  
BRANCH  16  20
HETATM   20  N   UNL     1     -10.431  15.879  66.910  1.00  0.00    -0.306 N  
HETATM   21  C   UNL     1      -9.952  18.068  66.524  1.00  0.00    -0.371 C  
HETATM   22  C   UNL     1     -10.199  16.764  65.805  1.00  0.00    -0.291 C  
HETATM   23  O   UNL     1     -10.809  17.971  67.668  1.00  0.00    -0.390 OA 
HETATM   24  O   UNL     1     -11.345  16.252  69.051  1.00  0.00    -0.331 OA 
HETATM   25  C   UNL     1     -10.910  16.632  67.980  1.00  0.00    -0.337 C  
BRANCH  21  26
HETATM   26  C   UNL     1      -8.508  18.224  67.006  1.00  0.00    -0.250 C  
BRANCH  26  27
HETATM   27  O   UNL     1      -7.593  18.166  65.921  1.00  0.00    -0.471 OA 
HETATM   28  P   UNL     1      -6.833  19.692  65.624  1.00  0.00    -0.279 P  
HETATM   29  O   UNL     1      -5.712  19.185  66.704  1.00  0.00    -0.159 OA 
HETATM   30  O   UNL     1      -6.152  21.057  65.359  1.00  0.00    -0.247 OA 
HETATM   31  O   UNL     1      -6.192  18.976  64.302  1.00  0.00    -0.471 OA 
ENDBRANCH  26  27
ENDBRANCH  21  26
ENDBRANCH  16  20
ENDBRANCH  10  13
ENDBRANCH   5   7
TORSDOF 5
ENDMDL
MODEL       39
REMARK 921   NORMALIZED FREE ENERGY PREDICTED BY IDOCK:   -6.15 KCAL/MOL
REMARK 922        TOTAL FREE ENERGY PREDICTED BY IDOCK:   -8.71 KCAL/MOL
REMARK 923 INTER-LIGAND FREE ENERGY PREDICTED BY IDOCK:   -7.93 KCAL/MOL
REMARK 924 INTRA-LIGAND FREE ENERGY PREDICTED BY IDOCK:   -0.78 KCAL/MOL
REMARK 927      BINDING AFFINITY PREDICTED BY RF-SCORE:    0.00 PKD
ROOT
HETATM    1  C   UNL     1      -9.778   1.800  72.040  1.00  0.00    -0.123 C  
HETATM    2  N   UNL     1      -9.633   2.484  70.784  1.00  0.00    -0.136 NA 
HETATM    3  N   UNL     1      -9.358   1.827  69.652  1.00  0.00    -0.102 NA 
HETATM    4  N   UNL     1      -9.276   2.774  68.728  1.00  0.00    -0.156 NA 
HETATM    5  C   UNL     1      -9.506   3.978  69.362  1.00  0.00    -0.189 A  
HETATM    6  N   UNL     1      -9.740   3.821  70.683  1.00  0.00    -0.187 NA 
ENDROOT
BRANCH   5   7
HETATM    7  C   UNL     1      -9.525   5.256  68.649  1.00  0.00    -0.128 A  
HETATM    8  C   UNL     1      -8.516   6.197  68.824  1.00  0.00    -0.118 A  
HETATM    9  C   UNL     1      -8.625   7.438  68.187  1.00  0.00    -0.123 A  
HETATM   10  C   UNL     1      -9.740   7.744  67.393  1.00  0.00    -0.211 A  
HETATM   11  N   UNL     1     -10.590   5.494  67.847  1.00  0.00    -0.183 NA 
HETATM   12  C   UNL     1     -10.668   6.709  67.250  1.00  0.00    -0.357 A  
BRANCH  10  13
HETATM   13  C   UNL     1      -9.974   9.092  66.826  1.00  0.00    -0.332 A  
HETATM   14  C   UNL     1     -10.825  10.007  67.467  1.00  0.00    -0.326 A  
HETATM   15  C   UNL     1     -11.161  11.237  66.883  1.00  0.00    -0.339 A  
HETATM   16  C   UNL     1     -10.656  11.612  65.637  1.00  0.00    -0.275 A  
HETATM   17  F   UNL     1      -8.590   8.716  64.925  1.00  0.00    -0.164 F  
HETATM   18  C   UNL     1      -9.774  10.731  65.007  1.00  0.00    -0.323 A  
HETATM   19  C   UNL     1      -9.443   9.505  65.596  1.00  0.00    -0.261 A  
BRANCH  16  20
HETATM   20  N   UNL     1     -10.999  12.849  65.046  1.00  0.00    -0.289 N  
HETATM   21  C   UNL     1     -10.918  15.105  64.771  1.00  0.00    -0.377 C  
HETATM   22  C   UNL     1     -10.049  13.872  64.715  1.00  0.00    -0.215 C  
HETATM   23  O   UNL     1     -12.187  14.624  64.315  1.00  0.00    -0.495 OA 
HETATM   24  O   UNL     1     -13.322  12.690  64.674  1.00  0.00    -0.767 OA 
HETATM   25  C   UNL     1     -12.267  13.297  64.681  1.00  0.00    -0.407 C  
BRANCH  21  26
HETATM   26  C   UNL     1     -11.083  15.660  66.188  1.00  0.00    -0.127 C  
BRANCH  26  27
HETATM   27  O   UNL     1     -10.337  14.901  67.129  1.00  0.00    -0.255 OA 
HETATM   28  P   UNL     1     -10.932  15.092  68.742  1.00  0.00    -0.287 P  
HETATM   29  O   UNL     1     -11.912  13.832  68.379  1.00  0.00    -0.355 OA 
HETATM   30  O   UNL     1     -11.465  15.262  70.186  1.00  0.00    -0.249 OA 
HETATM   31  O   UNL     1      -9.626  14.220  69.195  1.00  0.00    -0.076 OA 
ENDBRANCH  26  27
ENDBRANCH  21  26
ENDBRANCH  16  20
ENDBRANCH  10  13
ENDBRANCH   5   7
TORSDOF 5
ENDMDL
MODEL       40
REMARK 921   NORMALIZED FREE ENERGY PREDICTED BY IDOCK:   -6.15 KCAL/MOL
REMARK 922        TOTAL FREE ENERGY PREDICTED BY IDOCK:   -8.71 KCAL/MOL
REMARK 923 INTER-LIGAND FREE ENERGY PREDICTED BY IDOCK:   -7.88 KCAL/MOL
REMARK 924 INTRA-LIGAND FREE ENERGY PREDICTED BY IDOCK:   -0.83 KCAL/MOL
REMARK 927      BINDING AFFINITY PREDICTED BY RF-SCORE:    0.00 PKD
ROOT
HETATM    1  C   UNL     1     -10.428  20.052  65.592  1.00  0.00    -0.299 C  
HETATM    2  N   UNL     1     -10.479  18.896  66.446  1.00  0.00    -0.428 NA 
HETATM    3  N   UNL     1     -10.479  19.004  67.779  1.00  0.00    -0.413 NA 
HETATM    4  N   UNL     1     -10.507  17.753  68.215  1.00  0.00    -0.377 NA 
HETATM    5  C   UNL     1     -10.519  16.936  67.103  1.00  0.00    -0.296 A  
HETATM    6  N   UNL     1     -10.503  17.644  65.952  1.00  0.00    -0.516 NA 
ENDROOT
BRANCH   5   7
HETATM    7  C   UNL     1     -10.581  15.477  67.193  1.00  0.00    -0.300 A  
HETATM    8  C   UNL     1     -11.797  14.809  67.281  1.00  0.00    -0.316 A  
HETATM    9  C   UNL     1     -11.800  13.421  67.454  1.00  0.00    -0.418 A  
HETATM   10  C   UNL     1     -10.598  12.705  67.554  1.00  0.00    -0.236 A  
HETATM   11  N   UNL     1      -9.400  14.815  67.231  1.00  0.00    -0.200 NA 
HETATM   12  C   UNL     1      -9.439  13.471  67.406  1.00  0.00    -0.225 A  
BRANCH  10  13
HETATM   13  C   UNL     1     -10.549  11.264  67.889  1.00  0.00    -0.231 A  
HETATM   14  C   UNL     1     -10.647  10.829  69.220  1.00  0.00    -0.261 A  
HETATM   15  C   UNL     1     -10.475   9.482  69.572  1.00  0.00    -0.234 A  
HETATM   16  C   UNL     1     -10.204   8.508  68.608  1.00  0.00    -0.197 A  
HETATM   17  F   UNL     1     -10.250  10.577  65.628  1.00  0.00    -0.292 F  
HETATM   18  C   UNL     1     -10.148   8.919  67.275  1.00  0.00    -0.303 A  
HETATM   19  C   UNL     1     -10.321  10.265  66.932  1.00  0.00    -0.239 A  
BRANCH  16  20
HETATM   20  N   UNL     1     -10.025   7.152  68.963  1.00  0.00    -0.170 N  
HETATM   21  C   UNL     1     -10.531   5.205  70.026  1.00  0.00    -0.235 C  
HETATM   22  C   UNL     1     -11.088   6.191  69.026  1.00  0.00    -0.367 C  
HETATM   23  O   UNL     1      -9.124   5.242  69.761  1.00  0.00    -0.112 OA 
HETATM   24  O   UNL     1      -7.695   6.931  69.248  1.00  0.00    -0.101 OA 
HETATM   25  C   UNL     1      -8.836   6.510  69.302  1.00  0.00    -0.132 C  
BRANCH  21  26
HETATM   26  C   UNL     1     -10.768   5.624  71.478  1.00  0.00    -0.242 C  
BRANCH  26  27
HETATM   27  O   UNL     1      -9.713   5.183  72.321  1.00  0.00    -0.156 OA 
HETATM   28  P   UNL     1     -10.228   3.955  73.425  1.00  0.00    -0.175 P  
HETATM   29  O   UNL     1      -9.823   2.910  72.233  1.00  0.00    -0.143 OA 
HETATM   30  O   UNL     1     -10.688   2.856  74.414  1.00  0.00    -0.171 OA 
HETATM   31  O   UNL     1      -8.742   4.103  74.090  1.00  0.00    -0.096 OA 
ENDBRANCH  26  27
ENDBRANCH  21  26
ENDBRANCH  16  20
ENDBRANCH  10  13
ENDBRANCH   5   7
TORSDOF 5
ENDMDL
MODEL       41
REMARK 921   NORMALIZED FREE ENERGY PREDICTED BY IDOCK:   -6.12 KCAL/MOL
REMARK 922        TOTAL FREE ENERGY PREDICTED BY IDOCK:   -8.67 KCAL/MOL
REMARK 923 INTER-LIGAND FREE ENERGY PREDICTED BY IDOCK:   -7.76 KCAL/MOL
REMARK 924 INTRA-LIGAND FREE ENERGY PREDICTED BY IDOCK:   -0.92 KCAL/MOL
REMARK 927      BINDING AFFINITY PREDICTED BY RF-SCORE:    0.00 PKD
ROOT
HETATM    1  C   UNL     1     -11.758  15.814  64.262  1.00  0.00    -0.162 C  
HETATM    2  N   UNL     1     -11.944  14.502  64.822  1.00  0.00    -0.424 NA 
HETATM    3  N   UNL     1     -12.780  13.614  64.273  1.00  0.00    -0.650 NA 
HETATM    4  N   UNL     1     -12.705  12.553  65.064  1.00  0.00    -0.727 NA 
HETATM    5  C   UNL     1     -11.814  12.862  66.072  1.00  0.00    -0.430 A  
HETATM    6  N   UNL     1     -11.309  14.107  65.940  1.00  0.00    -0.317 NA 
ENDROOT
BRANCH   5   7
HETATM    7  C   UNL     1     -11.452  11.912  67.125  1.00  0.00    -0.319 A  
HETATM    8  C   UNL     1     -10.439  10.978  66.939  1.00  0.00    -0.293 A  
HETATM    9  C   UNL     1     -10.189  10.036  67.942  1.00  0.00    -0.228 A  
HETATM   10  C   UNL     1     -10.954  10.016  69.118  1.00  0.00    -0.256 A  
HETATM   11  N   UNL     1     -12.177  11.959  68.268  1.00  0.00    -0.365 NA 
HETATM   12  C   UNL     1     -11.913  11.027  69.217  1.00  0.00    -0.339 A  
BRANCH  10  13
HETATM   13  C   UNL     1     -10.831   8.948  70.136  1.00  0.00    -0.251 A  
HETATM   14  C   UNL     1     -10.694   9.261  71.497  1.00  0.00    -0.425 A  
HETATM   15  C   UNL     1     -10.447   8.272  72.462  1.00  0.00    -0.406 A  
HETATM   16  C   UNL     1     -10.334   6.926  72.110  1.00  0.00    -0.199 A  
HETATM   17  F   UNL     1     -10.916   7.183  68.537  1.00  0.00    -0.216 F  
HETATM   18  C   UNL     1     -10.513   6.594  70.765  1.00  0.00    -0.251 A  
HETATM   19  C   UNL     1     -10.758   7.586  69.808  1.00  0.00    -0.242 A  
BRANCH  16  20
HETATM   20  N   UNL     1     -10.080   5.930  73.080  1.00  0.00    -0.178 N  
HETATM   21  C   UNL     1      -8.850   4.335  74.136  1.00  0.00    -0.095 C  
HETATM   22  C   UNL     1      -8.843   5.806  73.798  1.00  0.00    -0.127 C  
HETATM   23  O   UNL     1     -10.242   4.056  74.327  1.00  0.00    -0.153 OA 
HETATM   24  O   UNL     1     -12.116   4.755  73.254  1.00  0.00    -0.112 OA 
HETATM   25  C   UNL     1     -10.939   4.924  73.514  1.00  0.00    -0.328 C  
BRANCH  21  26
HETATM   26  C   UNL     1      -8.326   3.455  72.998  1.00  0.00    -0.081 C  
BRANCH  26  27
HETATM   27  O   UNL     1      -7.141   3.996  72.432  1.00  0.00    -0.051 OA 
HETATM   28  P   UNL     1      -6.920   3.507  70.787  1.00  0.00    -0.034 P  
HETATM   29  O   UNL     1      -7.799   4.837  70.421  1.00  0.00    -0.060 OA 
HETATM   30  O   UNL     1      -6.722   3.070  69.315  1.00  0.00    -0.033 OA 
HETATM   31  O   UNL     1      -5.463   4.240  70.895  1.00  0.00    -0.007 OA 
ENDBRANCH  26  27
ENDBRANCH  21  26
ENDBRANCH  16  20
ENDBRANCH  10  13
ENDBRANCH   5   7
TORSDOF 5
ENDMDL
MODEL       42
REMARK 921   NORMALIZED FREE ENERGY PREDICTED BY IDOCK:   -6.12 KCAL/MOL
REMARK 922        TOTAL FREE ENERGY PREDICTED BY IDOCK:   -8.67 KCAL/MOL
REMARK 923 INTER-LIGAND FREE ENERGY PREDICTED BY IDOCK:   -7.70 KCAL/MOL
REMARK 924 INTRA-LIGAND FREE ENERGY PREDICTED BY IDOCK:   -0.97 KCAL/MOL
REMARK 927      BINDING AFFINITY PREDICTED BY RF-SCORE:    0.00 PKD
ROOT
HETATM    1  C   UNL     1      -6.962   2.129  70.179  1.00  0.00    -0.033 C  
HETATM    2  N   UNL     1      -8.057   3.037  69.970  1.00  0.00    -0.045 NA 
HETATM    3  N   UNL     1      -9.298   2.749  70.375  1.00  0.00    -0.144 NA 
HETATM    4  N   UNL     1     -10.024   3.791  69.994  1.00  0.00    -0.015 NA 
HETATM    5  C   UNL     1      -9.168   4.671  69.362  1.00  0.00    -0.119 A  
HETATM    6  N   UNL     1      -7.898   4.212  69.334  1.00  0.00    -0.057 NA 
ENDROOT
BRANCH   5   7
HETATM    7  C   UNL     1      -9.611   5.960  68.830  1.00  0.00    -0.132 A  
HETATM    8  C   UNL     1     -10.575   6.036  67.830  1.00  0.00    -0.337 A  
HETATM    9  C   UNL     1     -10.900   7.287  67.293  1.00  0.00    -0.354 A  
HETATM   10  C   UNL     1     -10.260   8.451  67.741  1.00  0.00    -0.283 A  
HETATM   11  N   UNL     1      -9.010   7.067  69.327  1.00  0.00    -0.138 NA 
HETATM   12  C   UNL     1      -9.344   8.262  68.780  1.00  0.00    -0.143 A  
BRANCH  10  13
HETATM   13  C   UNL     1     -10.458   9.771  67.101  1.00  0.00    -0.316 A  
HETATM   14  C   UNL     1      -9.784  10.108  65.917  1.00  0.00    -0.292 A  
HETATM   15  C   UNL     1      -9.858  11.396  65.364  1.00  0.00    -0.277 A  
HETATM   16  C   UNL     1     -10.615  12.403  65.967  1.00  0.00    -0.256 A  
HETATM   17  F   UNL     1     -11.961  10.546  68.780  1.00  0.00    -0.313 F  
HETATM   18  C   UNL     1     -11.326  12.070  67.122  1.00  0.00    -0.396 A  
HETATM   19  C   UNL     1     -11.248  10.783  67.667  1.00  0.00    -0.299 A  
BRANCH  16  20
HETATM   20  N   UNL     1     -10.684  13.702  65.415  1.00  0.00    -0.297 N  
HETATM   21  C   UNL     1     -10.318  15.945  65.349  1.00  0.00    -0.372 C  
HETATM   22  C   UNL     1      -9.586  14.625  65.395  1.00  0.00    -0.005 C  
HETATM   23  O   UNL     1     -11.484  15.638  64.576  1.00  0.00    -0.415 OA 
HETATM   24  O   UNL     1     -12.856  13.830  64.506  1.00  0.00    -0.648 OA 
HETATM   25  C   UNL     1     -11.778  14.311  64.805  1.00  0.00    -0.415 C  
BRANCH  21  26
HETATM   26  C   UNL     1     -10.760  16.436  66.729  1.00  0.00    -0.180 C  
BRANCH  26  27
HETATM   27  O   UNL     1      -9.953  15.880  67.757  1.00  0.00    -0.225 OA 
HETATM   28  P   UNL     1     -10.665  16.070  69.322  1.00  0.00    -0.328 P  
HETATM   29  O   UNL     1     -11.394  14.639  69.009  1.00  0.00    -0.249 OA 
HETATM   30  O   UNL     1     -11.302  16.239  70.724  1.00  0.00    -0.395 OA 
HETATM   31  O   UNL     1      -9.259  15.468  69.899  1.00  0.00    -0.216 OA 
ENDBRANCH  26  27
ENDBRANCH  21  26
ENDBRANCH  16  20
ENDBRANCH  10  13
ENDBRANCH   5   7
TORSDOF 5
ENDMDL
MODEL       43
REMARK 921   NORMALIZED FREE ENERGY PREDICTED BY IDOCK:   -6.12 KCAL/MOL
REMARK 922        TOTAL FREE ENERGY PREDICTED BY IDOCK:   -8.67 KCAL/MOL
REMARK 923 INTER-LIGAND FREE ENERGY PREDICTED BY IDOCK:   -8.17 KCAL/MOL
REMARK 924 INTRA-LIGAND FREE ENERGY PREDICTED BY IDOCK:   -0.50 KCAL/MOL
REMARK 927      BINDING AFFINITY PREDICTED BY RF-SCORE:    0.00 PKD
ROOT
HETATM    1  C   UNL     1      -6.715  19.820  65.108  1.00  0.00    -0.250 C  
HETATM    2  N   UNL     1      -7.811  19.155  65.760  1.00  0.00    -0.450 NA 
HETATM    3  N   UNL     1      -8.969  19.778  66.002  1.00  0.00    -0.371 NA 
HETATM    4  N   UNL     1      -9.711  18.873  66.625  1.00  0.00    -0.331 NA 
HETATM    5  C   UNL     1      -8.947  17.729  66.734  1.00  0.00    -0.259 A  
HETATM    6  N   UNL     1      -7.722  17.882  66.185  1.00  0.00    -0.432 NA 
ENDROOT
BRANCH   5   7
HETATM    7  C   UNL     1      -9.449  16.498  67.344  1.00  0.00    -0.228 A  
HETATM    8  C   UNL     1      -9.074  16.124  68.630  1.00  0.00    -0.218 A  
HETATM    9  C   UNL     1      -9.511  14.894  69.136  1.00  0.00    -0.158 A  
HETATM   10  C   UNL     1     -10.305  14.037  68.359  1.00  0.00    -0.251 A  
HETATM   11  N   UNL     1     -10.258  15.722  66.584  1.00  0.00    -0.277 NA 
HETATM   12  C   UNL     1     -10.658  14.535  67.102  1.00  0.00    -0.274 A  
BRANCH  10  13
HETATM   13  C   UNL     1     -10.663  12.667  68.790  1.00  0.00    -0.240 A  
HETATM   14  C   UNL     1     -11.859  12.417  69.482  1.00  0.00    -0.368 A  
HETATM   15  C   UNL     1     -12.156  11.152  70.011  1.00  0.00    -0.437 A  
HETATM   16  C   UNL     1     -11.275  10.078  69.866  1.00  0.00    -0.275 A  
HETATM   17  F   UNL     1      -8.662  11.696  67.936  1.00  0.00    -0.133 F  
HETATM   18  C   UNL     1     -10.101  10.301  69.142  1.00  0.00    -0.232 A  
HETATM   19  C   UNL     1      -9.812  11.566  68.618  1.00  0.00    -0.177 A  
BRANCH  16  20
HETATM   20  N   UNL     1     -11.571   8.805  70.403  1.00  0.00    -0.159 N  
HETATM   21  C   UNL     1     -12.059   7.318  72.054  1.00  0.00    -0.290 C  
HETATM   22  C   UNL     1     -12.586   8.567  71.389  1.00  0.00    -0.283 C  
HETATM   23  O   UNL     1     -11.419   6.627  70.974  1.00  0.00    -0.293 OA 
HETATM   24  O   UNL     1     -10.157   7.333  69.223  1.00  0.00    -0.174 OA 
HETATM   25  C   UNL     1     -10.969   7.588  70.095  1.00  0.00    -0.254 C  
BRANCH  21  26
HETATM   26  C   UNL     1     -11.017   7.607  73.136  1.00  0.00    -0.353 C  
BRANCH  26  27
HETATM   27  O   UNL     1      -9.789   6.948  72.860  1.00  0.00    -0.162 OA 
HETATM   28  P   UNL     1      -8.450   8.043  72.842  1.00  0.00    -0.208 P  
HETATM   29  O   UNL     1      -8.352   7.729  74.445  1.00  0.00    -0.218 OA 
HETATM   30  O   UNL     1      -7.250   9.022  72.826  1.00  0.00    -0.325 OA 
HETATM   31  O   UNL     1      -7.572   6.765  72.323  1.00  0.00    -0.092 OA 
ENDBRANCH  26  27
ENDBRANCH  21  26
ENDBRANCH  16  20
ENDBRANCH  10  13
ENDBRANCH   5   7
TORSDOF 5
ENDMDL
MODEL       44
REMARK 921   NORMALIZED FREE ENERGY PREDICTED BY IDOCK:   -6.05 KCAL/MOL
REMARK 922        TOTAL FREE ENERGY PREDICTED BY IDOCK:   -8.58 KCAL/MOL
REMARK 923 INTER-LIGAND FREE ENERGY PREDICTED BY IDOCK:   -7.81 KCAL/MOL
REMARK 924 INTRA-LIGAND FREE ENERGY PREDICTED BY IDOCK:   -0.77 KCAL/MOL
REMARK 927      BINDING AFFINITY PREDICTED BY RF-SCORE:    0.00 PKD
ROOT
HETATM    1  C   UNL     1      -8.156   1.582  67.672  1.00  0.00    -0.060 C  
HETATM    2  N   UNL     1      -8.574   2.725  66.905  1.00  0.00    -0.102 NA 
HETATM    3  N   UNL     1      -8.890   2.627  65.609  1.00  0.00    -0.130 NA 
HETATM    4  N   UNL     1      -9.196   3.864  65.246  1.00  0.00    -0.141 NA 
HETATM    5  C   UNL     1      -9.042   4.663  66.361  1.00  0.00    -0.120 A  
HETATM    6  N   UNL     1      -8.645   3.956  67.442  1.00  0.00    -0.099 NA 
ENDROOT
BRANCH   5   7
HETATM    7  C   UNL     1      -9.323   6.099  66.349  1.00  0.00    -0.152 A  
HETATM    8  C   UNL     1      -8.479   6.995  65.702  1.00  0.00    -0.144 A  
HETATM    9  C   UNL     1      -8.744   8.366  65.793  1.00  0.00    -0.199 A  
HETATM   10  C   UNL     1      -9.834   8.841  66.538  1.00  0.00    -0.349 A  
HETATM   11  N   UNL     1     -10.416   6.515  67.032  1.00  0.00    -0.258 NA 
HETATM   12  C   UNL     1     -10.639   7.850  67.107  1.00  0.00    -0.313 A  
BRANCH  10  13
HETATM   13  C   UNL     1     -10.064  10.281  66.790  1.00  0.00    -0.272 A  
HETATM   14  C   UNL     1      -9.799  10.845  68.048  1.00  0.00    -0.185 A  
HETATM   15  C   UNL     1     -10.130  12.175  68.347  1.00  0.00    -0.210 A  
HETATM   16  C   UNL     1     -10.735  13.004  67.399  1.00  0.00    -0.245 A  
HETATM   17  F   UNL     1     -10.888  10.705  64.596  1.00  0.00    -0.368 F  
HETATM   18  C   UNL     1     -10.965  12.469  66.130  1.00  0.00    -0.318 A  
HETATM   19  C   UNL     1     -10.632  11.142  65.839  1.00  0.00    -0.234 A  
BRANCH  16  20
HETATM   20  N   UNL     1     -11.075  14.342  67.702  1.00  0.00    -0.283 N  
HETATM   21  C   UNL     1     -10.696  16.573  67.928  1.00  0.00    -0.337 C  
HETATM   22  C   UNL     1     -10.693  15.468  66.899  1.00  0.00    -0.317 C  
HETATM   23  O   UNL     1     -11.756  16.186  68.810  1.00  0.00    -0.364 OA 
HETATM   24  O   UNL     1     -12.426  14.176  69.626  1.00  0.00    -0.310 OA 
HETATM   25  C   UNL     1     -11.814  14.809  68.786  1.00  0.00    -0.296 C  
BRANCH  21  26
HETATM   26  C   UNL     1      -9.395  16.651  68.729  1.00  0.00    -0.256 C  
BRANCH  26  27
HETATM   27  O   UNL     1      -8.627  17.787  68.356  1.00  0.00    -0.278 OA 
HETATM   28  P   UNL     1      -9.588  19.003  67.590  1.00  0.00    -0.334 P  
HETATM   29  O   UNL     1      -9.835  19.566  69.107  1.00  0.00    -0.433 OA 
HETATM   30  O   UNL     1     -10.448  20.093  66.904  1.00  0.00    -0.423 OA 
HETATM   31  O   UNL     1      -8.172  19.770  67.309  1.00  0.00    -0.284 OA 
ENDBRANCH  26  27
ENDBRANCH  21  26
ENDBRANCH  16  20
ENDBRANCH  10  13
ENDBRANCH   5   7
TORSDOF 5
ENDMDL
MODEL       45
REMARK 921   NORMALIZED FREE ENERGY PREDICTED BY IDOCK:   -6.02 KCAL/MOL
REMARK 922        TOTAL FREE ENERGY PREDICTED BY IDOCK:   -8.54 KCAL/MOL
REMARK 923 INTER-LIGAND FREE ENERGY PREDICTED BY IDOCK:   -8.21 KCAL/MOL
REMARK 924 INTRA-LIGAND FREE ENERGY PREDICTED BY IDOCK:   -0.33 KCAL/MOL
REMARK 927      BINDING AFFINITY PREDICTED BY RF-SCORE:    0.00 PKD
ROOT
HETATM    1  C   UNL     1      -7.323  19.845  64.983  1.00  0.00     0.270 C  
HETATM    2  N   UNL     1      -8.443  19.167  65.580  1.00  0.00    -0.251 NA 
HETATM    3  N   UNL     1      -9.654  19.730  65.646  1.00  0.00    -0.301 NA 
HETATM    4  N   UNL     1     -10.404  18.835  66.273  1.00  0.00    -0.430 NA 
HETATM    5  C   UNL     1      -9.592  17.758  66.562  1.00  0.00    -0.308 A  
HETATM    6  N   UNL     1      -8.326  17.943  66.127  1.00  0.00    -0.486 NA 
ENDROOT
BRANCH   5   7
HETATM    7  C   UNL     1     -10.085  16.553  67.230  1.00  0.00    -0.273 A  
HETATM    8  C   UNL     1     -10.898  16.632  68.356  1.00  0.00    -0.361 A  
HETATM    9  C   UNL     1     -11.271  15.452  69.010  1.00  0.00    -0.295 A  
HETATM   10  C   UNL     1     -10.825  14.203  68.552  1.00  0.00    -0.264 A  
HETATM   11  N   UNL     1      -9.678  15.363  66.727  1.00  0.00    -0.232 NA 
HETATM   12  C   UNL     1     -10.053  14.240  67.388  1.00  0.00    -0.247 A  
BRANCH  10  13
HETATM   13  C   UNL     1     -11.065  12.946  69.296  1.00  0.00    -0.192 A  
HETATM   14  C   UNL     1     -10.403  11.760  68.941  1.00  0.00    -0.151 A  
HETATM   15  C   UNL     1     -10.711  10.532  69.546  1.00  0.00    -0.291 A  
HETATM   16  C   UNL     1     -11.688  10.436  70.539  1.00  0.00    -0.344 A  
HETATM   17  F   UNL     1     -12.670  13.922  70.760  1.00  0.00    -0.365 F  
HETATM   18  C   UNL     1     -12.324  11.615  70.933  1.00  0.00    -0.436 A  
HETATM   19  C   UNL     1     -12.012  12.836  70.325  1.00  0.00    -0.280 A  
BRANCH  16  20
HETATM   20  N   UNL     1     -12.002   9.198  71.145  1.00  0.00    -0.298 N  
HETATM   21  C   UNL     1     -11.748   6.979  71.570  1.00  0.00    -0.300 C  
HETATM   22  C   UNL     1     -11.024   8.298  71.686  1.00  0.00    -0.264 C  
HETATM   23  O   UNL     1     -13.116   7.344  71.787  1.00  0.00    -0.341 OA 
HETATM   24  O   UNL     1     -14.359   9.128  71.132  1.00  0.00    -0.141 OA 
HETATM   25  C   UNL     1     -13.263   8.636  71.331  1.00  0.00    -0.236 C  
BRANCH  21  26
HETATM   26  C   UNL     1     -11.624   6.345  70.183  1.00  0.00    -0.381 C  
BRANCH  26  27
HETATM   27  O   UNL     1     -10.727   7.077  69.360  1.00  0.00    -0.226 OA 
HETATM   28  P   UNL     1      -9.950   6.073  68.185  1.00  0.00    -0.176 P  
HETATM   29  O   UNL     1     -11.237   6.425  67.238  1.00  0.00    -0.364 OA 
HETATM   30  O   UNL     1      -9.253   5.174  67.134  1.00  0.00    -0.115 OA 
HETATM   31  O   UNL     1      -9.057   7.394  67.828  1.00  0.00    -0.130 OA 
ENDBRANCH  26  27
ENDBRANCH  21  26
ENDBRANCH  16  20
ENDBRANCH  10  13
ENDBRANCH   5   7
TORSDOF 5
ENDMDL
MODEL       46
REMARK 921   NORMALIZED FREE ENERGY PREDICTED BY IDOCK:   -5.99 KCAL/MOL
REMARK 922        TOTAL FREE ENERGY PREDICTED BY IDOCK:   -8.49 KCAL/MOL
REMARK 923 INTER-LIGAND FREE ENERGY PREDICTED BY IDOCK:   -7.85 KCAL/MOL
REMARK 924 INTRA-LIGAND FREE ENERGY PREDICTED BY IDOCK:   -0.65 KCAL/MOL
REMARK 927      BINDING AFFINITY PREDICTED BY RF-SCORE:    0.00 PKD
ROOT
HETATM    1  C   UNL     1      -6.969  20.246  65.394  1.00  0.00    -0.266 C  
HETATM    2  N   UNL     1      -7.957  19.239  65.673  1.00  0.00    -0.387 NA 
HETATM    3  N   UNL     1      -9.251  19.543  65.824  1.00  0.00    -0.335 NA 
HETATM    4  N   UNL     1      -9.837  18.385  66.089  1.00  0.00    -0.506 NA 
HETATM    5  C   UNL     1      -8.849  17.422  66.090  1.00  0.00    -0.145 A  
HETATM    6  N   UNL     1      -7.631  17.943  65.824  1.00  0.00    -0.552 NA 
ENDROOT
BRANCH   5   7
HETATM    7  C   UNL     1      -9.127  16.004  66.318  1.00  0.00    -0.344 A  
HETATM    8  C   UNL     1      -8.369  15.253  67.210  1.00  0.00    -0.225 A  
HETATM    9  C   UNL     1      -8.619  13.881  67.328  1.00  0.00    -0.221 A  
HETATM   10  C   UNL     1      -9.607  13.259  66.551  1.00  0.00    -0.267 A  
HETATM   11  N   UNL     1     -10.126  15.450  65.590  1.00  0.00    -0.352 NA 
HETATM   12  C   UNL     1     -10.336  14.117  65.723  1.00  0.00    -0.325 A  
BRANCH  10  13
HETATM   13  C   UNL     1      -9.803  11.792  66.527  1.00  0.00    -0.228 A  
HETATM   14  C   UNL     1     -10.141  11.090  67.695  1.00  0.00    -0.208 A  
HETATM   15  C   UNL     1     -10.206   9.689  67.723  1.00  0.00    -0.253 A  
HETATM   16  C   UNL     1      -9.941   8.927  66.583  1.00  0.00    -0.276 A  
HETATM   17  F   UNL     1      -9.291  11.593  64.209  1.00  0.00    -0.186 F  
HETATM   18  C   UNL     1      -9.645   9.613  65.403  1.00  0.00    -0.361 A  
HETATM   19  C   UNL     1      -9.583  11.011  65.383  1.00  0.00    -0.225 A  
BRANCH  16  20
HETATM   20  N   UNL     1      -9.999   7.515  66.613  1.00  0.00    -0.222 N  
HETATM   21  C   UNL     1     -10.402   5.479  67.543  1.00  0.00    -0.214 C  
HETATM   22  C   UNL     1     -11.092   6.768  67.168  1.00  0.00    -0.333 C  
HETATM   23  O   UNL     1      -9.407   5.339  66.522  1.00  0.00    -0.132 OA 
HETATM   24  O   UNL     1      -8.051   6.830  65.475  1.00  0.00    -0.115 OA 
HETATM   25  C   UNL     1      -9.055   6.612  66.129  1.00  0.00    -0.118 C  
BRANCH  21  26
HETATM   26  C   UNL     1      -9.703   5.545  68.902  1.00  0.00    -0.144 C  
BRANCH  26  27
HETATM   27  O   UNL     1     -10.097   4.467  69.739  1.00  0.00    -0.229 OA 
HETATM   28  P   UNL     1      -9.517   4.650  71.358  1.00  0.00    -0.176 P  
HETATM   29  O   UNL     1     -10.911   5.467  71.616  1.00  0.00    -0.245 OA 
HETATM   30  O   UNL     1      -8.998   4.813  72.808  1.00  0.00    -0.119 OA 
HETATM   31  O   UNL     1     -10.106   3.145  71.607  1.00  0.00    -0.144 OA 
ENDBRANCH  26  27
ENDBRANCH  21  26
ENDBRANCH  16  20
ENDBRANCH  10  13
ENDBRANCH   5   7
TORSDOF 5
ENDMDL
MODEL       47
REMARK 921   NORMALIZED FREE ENERGY PREDICTED BY IDOCK:   -5.90 KCAL/MOL
REMARK 922        TOTAL FREE ENERGY PREDICTED BY IDOCK:   -8.38 KCAL/MOL
REMARK 923 INTER-LIGAND FREE ENERGY PREDICTED BY IDOCK:   -7.51 KCAL/MOL
REMARK 924 INTRA-LIGAND FREE ENERGY PREDICTED BY IDOCK:   -0.87 KCAL/MOL
REMARK 927      BINDING AFFINITY PREDICTED BY RF-SCORE:    0.00 PKD
ROOT
HETATM    1  C   UNL     1     -10.516  20.161  65.736  1.00  0.00    -0.280 C  
HETATM    2  N   UNL     1     -10.541  18.991  66.571  1.00  0.00    -0.421 NA 
HETATM    3  N   UNL     1     -10.468  19.074  67.903  1.00  0.00    -0.402 NA 
HETATM    4  N   UNL     1     -10.495  17.816  68.318  1.00  0.00    -0.377 NA 
HETATM    5  C   UNL     1     -10.580  17.021  67.194  1.00  0.00    -0.245 A  
HETATM    6  N   UNL     1     -10.613  17.750  66.057  1.00  0.00    -0.365 NA 
ENDROOT
BRANCH   5   7
HETATM    7  C   UNL     1     -10.662  15.561  67.262  1.00  0.00    -0.308 A  
HETATM    8  C   UNL     1     -11.847  14.919  67.604  1.00  0.00    -0.268 A  
HETATM    9  C   UNL     1     -11.851  13.526  67.741  1.00  0.00    -0.398 A  
HETATM   10  C   UNL     1     -10.678  12.781  67.552  1.00  0.00    -0.247 A  
HETATM   11  N   UNL     1      -9.522  14.872  67.019  1.00  0.00    -0.220 NA 
HETATM   12  C   UNL     1      -9.559  13.524  67.167  1.00  0.00    -0.241 A  
BRANCH  10  13
HETATM   13  C   UNL     1     -10.597  11.330  67.834  1.00  0.00    -0.231 A  
HETATM   14  C   UNL     1     -10.473  10.856  69.150  1.00  0.00    -0.248 A  
HETATM   15  C   UNL     1     -10.266   9.497  69.430  1.00  0.00    -0.215 A  
HETATM   16  C   UNL     1     -10.181   8.549  68.408  1.00  0.00    -0.203 A  
HETATM   17  F   UNL     1     -10.700  10.707  65.537  1.00  0.00    -0.308 F  
HETATM   18  C   UNL     1     -10.346   9.000  67.096  1.00  0.00    -0.342 A  
HETATM   19  C   UNL     1     -10.553  10.357  66.825  1.00  0.00    -0.205 A  
BRANCH  16  20
HETATM   20  N   UNL     1      -9.966   7.181  68.689  1.00  0.00    -0.155 N  
HETATM   21  C   UNL     1      -9.391   5.034  68.207  1.00  0.00    -0.126 C  
HETATM   22  C   UNL     1      -8.830   6.436  68.228  1.00  0.00    -0.115 C  
HETATM   23  O   UNL     1     -10.304   5.038  69.310  1.00  0.00    -0.213 OA 
HETATM   24  O   UNL     1     -11.758   6.592  70.104  1.00  0.00    -0.418 OA 
HETATM   25  C   UNL     1     -10.774   6.328  69.437  1.00  0.00    -0.303 C  
BRANCH  21  26
HETATM   26  C   UNL     1     -10.169   4.718  66.927  1.00  0.00    -0.186 C  
BRANCH  26  27
HETATM   27  O   UNL     1      -9.293   4.533  65.824  1.00  0.00    -0.142 OA 
HETATM   28  P   UNL     1      -8.136   3.280  66.111  1.00  0.00    -0.095 P  
HETATM   29  O   UNL     1      -9.270   2.281  65.483  1.00  0.00    -0.119 OA 
HETATM   30  O   UNL     1      -7.100   2.158  66.366  1.00  0.00    -0.049 OA 
HETATM   31  O   UNL     1      -7.463   3.749  64.697  1.00  0.00    -0.070 OA 
ENDBRANCH  26  27
ENDBRANCH  21  26
ENDBRANCH  16  20
ENDBRANCH  10  13
ENDBRANCH   5   7
TORSDOF 5
ENDMDL
MODEL       48
REMARK 921   NORMALIZED FREE ENERGY PREDICTED BY IDOCK:   -5.90 KCAL/MOL
REMARK 922        TOTAL FREE ENERGY PREDICTED BY IDOCK:   -8.38 KCAL/MOL
REMARK 923 INTER-LIGAND FREE ENERGY PREDICTED BY IDOCK:   -8.39 KCAL/MOL
REMARK 924 INTRA-LIGAND FREE ENERGY PREDICTED BY IDOCK:    0.01 KCAL/MOL
REMARK 927      BINDING AFFINITY PREDICTED BY RF-SCORE:    0.00 PKD
ROOT
HETATM    1  C   UNL     1     -10.387  18.683  66.089  1.00  0.00    -0.443 C  
HETATM    2  N   UNL     1     -10.644  17.290  65.842  1.00  0.00    -0.376 NA 
HETATM    3  N   UNL     1     -11.048  16.849  64.646  1.00  0.00    -0.990 NA 
HETATM    4  N   UNL     1     -11.201  15.542  64.807  1.00  0.00    -0.423 NA 
HETATM    5  C   UNL     1     -10.880  15.255  66.118  1.00  0.00    -0.320 A  
HETATM    6  N   UNL     1     -10.516  16.360  66.806  1.00  0.00    -0.291 NA 
ENDROOT
BRANCH   5   7
HETATM    7  C   UNL     1     -10.903  13.896  66.658  1.00  0.00    -0.289 A  
HETATM    8  C   UNL     1     -12.065  13.350  67.191  1.00  0.00    -0.367 A  
HETATM    9  C   UNL     1     -12.015  12.079  67.775  1.00  0.00    -0.177 A  
HETATM   10  C   UNL     1     -10.810  11.363  67.838  1.00  0.00    -0.274 A  
HETATM   11  N   UNL     1      -9.733  13.214  66.652  1.00  0.00    -0.255 NA 
HETATM   12  C   UNL     1      -9.717  11.988  67.231  1.00  0.00    -0.185 A  
BRANCH  10  13
HETATM   13  C   UNL     1     -10.674  10.088  68.578  1.00  0.00    -0.264 A  
HETATM   14  C   UNL     1     -10.304   8.906  67.918  1.00  0.00    -0.286 A  
HETATM   15  C   UNL     1     -10.294   7.665  68.572  1.00  0.00    -0.225 A  
HETATM   16  C   UNL     1     -10.646   7.551  69.918  1.00  0.00    -0.237 A  
HETATM   17  F   UNL     1     -11.312  11.039  70.667  1.00  0.00    -0.366 F  
HETATM   18  C   UNL     1     -10.975   8.725  70.600  1.00  0.00    -0.278 A  
HETATM   19  C   UNL     1     -10.983   9.959  69.940  1.00  0.00    -0.281 A  
BRANCH  16  20
HETATM   20  N   UNL     1     -10.643   6.301  70.577  1.00  0.00    -0.233 N  
HETATM   21  C   UNL     1     -10.661   4.907  72.374  1.00  0.00    -0.200 C  
HETATM   22  C   UNL     1     -11.479   5.981  71.698  1.00  0.00    -0.230 C  
HETATM   23  O   UNL     1     -10.031   4.242  71.273  1.00  0.00    -0.186 OA 
HETATM   24  O   UNL     1      -9.126   4.995  69.331  1.00  0.00    -0.097 OA 
HETATM   25  C   UNL     1      -9.866   5.183  70.279  1.00  0.00    -0.225 C  
BRANCH  21  26
HETATM   26  C   UNL     1      -9.574   5.470  73.293  1.00  0.00    -0.146 C  
BRANCH  26  27
HETATM   27  O   UNL     1      -8.465   5.950  72.546  1.00  0.00    -0.117 OA 
HETATM   28  P   UNL     1      -7.866   7.453  73.158  1.00  0.00    -0.109 P  
HETATM   29  O   UNL     1      -6.921   6.524  74.119  1.00  0.00    -0.084 OA 
HETATM   30  O   UNL     1      -7.328   8.798  73.706  1.00  0.00    -0.380 OA 
HETATM   31  O   UNL     1      -6.891   7.457  71.846  1.00  0.00    -0.057 OA 
ENDBRANCH  26  27
ENDBRANCH  21  26
ENDBRANCH  16  20
ENDBRANCH  10  13
ENDBRANCH   5   7
TORSDOF 5
ENDMDL
MODEL       49
REMARK 921   NORMALIZED FREE ENERGY PREDICTED BY IDOCK:   -5.86 KCAL/MOL
REMARK 922        TOTAL FREE ENERGY PREDICTED BY IDOCK:   -8.33 KCAL/MOL
REMARK 923 INTER-LIGAND FREE ENERGY PREDICTED BY IDOCK:   -8.05 KCAL/MOL
REMARK 924 INTRA-LIGAND FREE ENERGY PREDICTED BY IDOCK:   -0.28 KCAL/MOL
REMARK 927      BINDING AFFINITY PREDICTED BY RF-SCORE:    0.00 PKD
ROOT
HETATM    1  C   UNL     1      -8.700   2.262  74.193  1.00  0.00    -0.069 C  
HETATM    2  N   UNL     1      -9.538   3.326  73.710  1.00  0.00    -0.098 NA 
HETATM    3  N   UNL     1     -10.660   3.682  74.343  1.00  0.00    -0.203 NA 
HETATM    4  N   UNL     1     -11.165   4.660  73.604  1.00  0.00    -0.305 NA 
HETATM    5  C   UNL     1     -10.307   4.845  72.538  1.00  0.00    -0.201 A  
HETATM    6  N   UNL     1      -9.252   4.003  72.583  1.00  0.00    -0.108 NA 
ENDROOT
BRANCH   5   7
HETATM    7  C   UNL     1     -10.524   5.871  71.518  1.00  0.00    -0.233 A  
HETATM    8  C   UNL     1     -11.022   5.545  70.261  1.00  0.00    -0.206 A  
HETATM    9  C   UNL     1     -11.129   6.549  69.291  1.00  0.00    -0.393 A  
HETATM   10  C   UNL     1     -10.729   7.864  69.568  1.00  0.00    -0.195 A  
HETATM   11  N   UNL     1     -10.178   7.140  71.840  1.00  0.00    -0.190 NA 
HETATM   12  C   UNL     1     -10.288   8.086  70.875  1.00  0.00    -0.200 A  
BRANCH  10  13
HETATM   13  C   UNL     1     -10.679   8.921  68.533  1.00  0.00    -0.124 A  
HETATM   14  C   UNL     1     -10.264   8.631  67.223  1.00  0.00    -0.337 A  
HETATM   15  C   UNL     1     -10.087   9.638  66.263  1.00  0.00    -0.322 A  
HETATM   16  C   UNL     1     -10.324  10.980  66.567  1.00  0.00    -0.245 A  
HETATM   17  F   UNL     1     -11.394  10.641  70.017  1.00  0.00    -0.276 F  
HETATM   18  C   UNL     1     -10.780  11.280  67.852  1.00  0.00    -0.250 A  
HETATM   19  C   UNL     1     -10.954  10.269  68.805  1.00  0.00    -0.243 A  
BRANCH  16  20
HETATM   20  N   UNL     1     -10.140  11.996  65.601  1.00  0.00    -0.238 N  
HETATM   21  C   UNL     1     -10.171  14.127  64.807  1.00  0.00    -0.279 C  
HETATM   22  C   UNL     1      -9.545  13.271  65.882  1.00  0.00    -0.106 C  
HETATM   23  O   UNL     1     -10.305  13.216  63.710  1.00  0.00    -0.311 OA 
HETATM   24  O   UNL     1     -10.886  11.025  63.587  1.00  0.00    -0.319 OA 
HETATM   25  C   UNL     1     -10.479  11.961  64.251  1.00  0.00    -0.326 C  
BRANCH  21  26
HETATM   26  C   UNL     1     -11.560  14.646  65.186  1.00  0.00    -0.371 C  
BRANCH  26  27
HETATM   27  O   UNL     1     -11.474  15.732  66.097  1.00  0.00     0.035 OA 
HETATM   28  P   UNL     1     -10.059  16.692  65.839  1.00  0.00    -0.233 P  
HETATM   29  O   UNL     1     -10.992  17.536  64.793  1.00  0.00    -0.950 OA 
HETATM   30  O   UNL     1      -8.792  17.552  65.608  1.00  0.00    -0.416 OA 
HETATM   31  O   UNL     1     -10.498  17.484  67.200  1.00  0.00    -0.335 OA 
ENDBRANCH  26  27
ENDBRANCH  21  26
ENDBRANCH  16  20
ENDBRANCH  10  13
ENDBRANCH   5   7
TORSDOF 5
ENDMDL
MODEL       50
REMARK 921   NORMALIZED FREE ENERGY PREDICTED BY IDOCK:   -5.78 KCAL/MOL
REMARK 922        TOTAL FREE ENERGY PREDICTED BY IDOCK:   -8.23 KCAL/MOL
REMARK 923 INTER-LIGAND FREE ENERGY PREDICTED BY IDOCK:   -7.48 KCAL/MOL
REMARK 924 INTRA-LIGAND FREE ENERGY PREDICTED BY IDOCK:   -0.75 KCAL/MOL
REMARK 927      BINDING AFFINITY PREDICTED BY RF-SCORE:    0.00 PKD
ROOT
HETATM    1  C   UNL     1      -7.114   1.906  65.594  1.00  0.00    -0.051 C  
HETATM    2  N   UNL     1      -8.115   2.935  65.679  1.00  0.00    -0.086 NA 
HETATM    3  N   UNL     1      -9.411   2.676  65.472  1.00  0.00    -0.094 NA 
HETATM    4  N   UNL     1     -10.011   3.850  65.607  1.00  0.00    -0.147 NA 
HETATM    5  C   UNL     1      -9.029   4.777  65.891  1.00  0.00    -0.130 A  
HETATM    6  N   UNL     1      -7.801   4.216  65.944  1.00  0.00    -0.093 NA 
ENDROOT
BRANCH   5   7
HETATM    7  C   UNL     1      -9.322   6.189  66.137  1.00  0.00    -0.102 A  
HETATM    8  C   UNL     1      -8.510   7.196  65.626  1.00  0.00    -0.141 A  
HETATM    9  C   UNL     1      -8.783   8.526  65.962  1.00  0.00    -0.188 A  
HETATM   10  C   UNL     1      -9.848   8.850  66.815  1.00  0.00    -0.308 A  
HETATM   11  N   UNL     1     -10.392   6.465  66.920  1.00  0.00    -0.222 NA 
HETATM   12  C   UNL     1     -10.624   7.765  67.232  1.00  0.00    -0.306 A  
BRANCH  10  13
HETATM   13  C   UNL     1     -10.081  10.222  67.321  1.00  0.00    -0.249 A  
HETATM   14  C   UNL     1     -11.252  10.923  66.992  1.00  0.00    -0.211 A  
HETATM   15  C   UNL     1     -11.435  12.266  67.353  1.00  0.00    -0.422 A  
HETATM   16  C   UNL     1     -10.460  12.967  68.065  1.00  0.00    -0.230 A  
HETATM   17  F   UNL     1      -7.997  10.332  68.469  1.00  0.00    -0.094 F  
HETATM   18  C   UNL     1      -9.308  12.269  68.437  1.00  0.00    -0.162 A  
HETATM   19  C   UNL     1      -9.133  10.929  68.074  1.00  0.00    -0.152 A  
BRANCH  16  20
HETATM   20  N   UNL     1     -10.641  14.322  68.424  1.00  0.00    -0.246 N  
HETATM   21  C   UNL     1     -11.222  16.040  69.796  1.00  0.00    -0.344 C  
HETATM   22  C   UNL     1     -10.271  14.872  69.696  1.00  0.00    -0.096 C  
HETATM   23  O   UNL     1     -11.354  16.463  68.434  1.00  0.00    -0.366 OA 
HETATM   24  O   UNL     1     -11.504  15.327  66.473  1.00  0.00    -0.242 OA 
HETATM   25  C   UNL     1     -11.186  15.343  67.648  1.00  0.00    -0.311 C  
BRANCH  21  26
HETATM   26  C   UNL     1     -12.604  15.646  70.322  1.00  0.00    -0.280 C  
BRANCH  26  27
HETATM   27  O   UNL     1     -12.501  14.830  71.481  1.00  0.00    -0.306 OA 
HETATM   28  P   UNL     1     -12.566  15.757  72.940  1.00  0.00    -0.575 P  
HETATM   29  O   UNL     1     -14.186  15.547  72.836  1.00  0.00    -0.371 OA 
HETATM   30  O   UNL     1     -12.625  16.586  74.247  1.00  0.00    -0.706 OA 
HETATM   31  O   UNL     1     -12.220  14.352  73.701  1.00  0.00    -0.246 OA 
ENDBRANCH  26  27
ENDBRANCH  21  26
ENDBRANCH  16  20
ENDBRANCH  10  13
ENDBRANCH   5   7
TORSDOF 5
ENDMDL
MODEL       51
REMARK 921   NORMALIZED FREE ENERGY PREDICTED BY IDOCK:   -5.77 KCAL/MOL
REMARK 922        TOTAL FREE ENERGY PREDICTED BY IDOCK:   -8.21 KCAL/MOL
REMARK 923 INTER-LIGAND FREE ENERGY PREDICTED BY IDOCK:   -7.40 KCAL/MOL
REMARK 924 INTRA-LIGAND FREE ENERGY PREDICTED BY IDOCK:   -0.81 KCAL/MOL
REMARK 927      BINDING AFFINITY PREDICTED BY RF-SCORE:    0.00 PKD
ROOT
HETATM    1  C   UNL     1     -11.516  16.022  68.393  1.00  0.00    -0.331 C  
HETATM    2  N   UNL     1     -11.692  14.597  68.314  1.00  0.00    -0.328 NA 
HETATM    3  N   UNL     1     -12.050  13.993  67.176  1.00  0.00    -0.429 NA 
HETATM    4  N   UNL     1     -12.135  12.709  67.493  1.00  0.00    -0.416 NA 
HETATM    5  C   UNL     1     -11.823  12.601  68.833  1.00  0.00    -0.302 A  
HETATM    6  N   UNL     1     -11.532  13.799  69.385  1.00  0.00    -0.277 NA 
ENDROOT
BRANCH   5   7
HETATM    7  C   UNL     1     -11.782  11.317  69.534  1.00  0.00    -0.345 A  
HETATM    8  C   UNL     1     -12.521  11.103  70.693  1.00  0.00    -0.448 A  
HETATM    9  C   UNL     1     -12.381   9.890  71.375  1.00  0.00    -0.498 A  
HETATM   10  C   UNL     1     -11.499   8.902  70.912  1.00  0.00    -0.339 A  
HETATM   11  N   UNL     1     -10.962  10.367  69.027  1.00  0.00    -0.225 NA 
HETATM   12  C   UNL     1     -10.844   9.205  69.716  1.00  0.00    -0.211 A  
BRANCH  10  13
HETATM   13  C   UNL     1     -11.203   7.670  71.679  1.00  0.00    -0.282 A  
HETATM   14  C   UNL     1     -10.759   7.737  73.009  1.00  0.00    -0.446 A  
HETATM   15  C   UNL     1     -10.351   6.592  73.710  1.00  0.00    -0.373 A  
HETATM   16  C   UNL     1     -10.375   5.329  73.116  1.00  0.00    -0.197 A  
HETATM   17  F   UNL     1     -11.708   6.217  69.860  1.00  0.00    -0.477 F  
HETATM   18  C   UNL     1     -10.855   5.241  71.808  1.00  0.00    -0.198 A  
HETATM   19  C   UNL     1     -11.261   6.387  71.115  1.00  0.00    -0.302 A  
BRANCH  16  20
HETATM   20  N   UNL     1      -9.958   4.177  73.820  1.00  0.00    -0.123 N  
HETATM   21  C   UNL     1      -8.482   2.580  74.488  1.00  0.00    -0.067 C  
HETATM   22  C   UNL     1      -8.710   4.072  74.520  1.00  0.00    -0.094 C  
HETATM   23  O   UNL     1      -9.811   2.051  74.565  1.00  0.00    -0.087 OA 
HETATM   24  O   UNL     1     -11.783   2.695  73.642  1.00  0.00    -0.181 OA 
HETATM   25  C   UNL     1     -10.644   2.974  73.969  1.00  0.00    -0.187 C  
BRANCH  21  26
HETATM   26  C   UNL     1      -7.839   2.099  73.185  1.00  0.00    -0.046 C  
BRANCH  26  27
HETATM   27  O   UNL     1      -7.410   3.193  72.387  1.00  0.00    -0.045 OA 
HETATM   28  P   UNL     1      -6.989   2.706  70.781  1.00  0.00    -0.033 P  
HETATM   29  O   UNL     1      -8.568   2.967  70.438  1.00  0.00    -0.058 OA 
HETATM   30  O   UNL     1      -6.612   2.270  69.344  1.00  0.00    -0.029 OA 
HETATM   31  O   UNL     1      -6.473   4.244  70.583  1.00  0.00    -0.028 OA 
ENDBRANCH  26  27
ENDBRANCH  21  26
ENDBRANCH  16  20
ENDBRANCH  10  13
ENDBRANCH   5   7
TORSDOF 5
ENDMDL
MODEL       52
REMARK 921   NORMALIZED FREE ENERGY PREDICTED BY IDOCK:   -5.77 KCAL/MOL
REMARK 922        TOTAL FREE ENERGY PREDICTED BY IDOCK:   -8.21 KCAL/MOL
REMARK 923 INTER-LIGAND FREE ENERGY PREDICTED BY IDOCK:   -7.65 KCAL/MOL
REMARK 924 INTRA-LIGAND FREE ENERGY PREDICTED BY IDOCK:   -0.56 KCAL/MOL
REMARK 927      BINDING AFFINITY PREDICTED BY RF-SCORE:    0.00 PKD
ROOT
HETATM    1  C   UNL     1      -7.182   2.532  66.740  1.00  0.00    -0.053 C  
HETATM    2  N   UNL     1      -8.057   3.446  67.424  1.00  0.00    -0.081 NA 
HETATM    3  N   UNL     1      -8.814   3.058  68.456  1.00  0.00    -0.106 NA 
HETATM    4  N   UNL     1      -9.489   4.144  68.802  1.00  0.00    -0.162 NA 
HETATM    5  C   UNL     1      -9.103   5.152  67.942  1.00  0.00    -0.112 A  
HETATM    6  N   UNL     1      -8.182   4.731  67.047  1.00  0.00    -0.106 NA 
ENDROOT
BRANCH   5   7
HETATM    7  C   UNL     1      -9.621   6.517  68.040  1.00  0.00    -0.119 A  
HETATM    8  C   UNL     1     -10.010   7.225  66.908  1.00  0.00    -0.302 A  
HETATM    9  C   UNL     1     -10.416   8.557  67.045  1.00  0.00    -0.362 A  
HETATM   10  C   UNL     1     -10.420   9.183  68.300  1.00  0.00    -0.254 A  
HETATM   11  N   UNL     1      -9.663   7.069  69.276  1.00  0.00    -0.157 NA 
HETATM   12  C   UNL     1     -10.055   8.364  69.372  1.00  0.00    -0.198 A  
BRANCH  10  13
HETATM   13  C   UNL     1     -10.693  10.628  68.474  1.00  0.00    -0.252 A  
HETATM   14  C   UNL     1     -10.048  11.586  67.675  1.00  0.00    -0.202 A  
HETATM   15  C   UNL     1     -10.194  12.961  67.908  1.00  0.00    -0.233 A  
HETATM   16  C   UNL     1     -10.996  13.442  68.945  1.00  0.00    -0.248 A  
HETATM   17  F   UNL     1     -12.217  10.294  70.274  1.00  0.00    -0.309 F  
HETATM   18  C   UNL     1     -11.678  12.502  69.721  1.00  0.00    -0.355 A  
HETATM   19  C   UNL     1     -11.528  11.131  69.483  1.00  0.00    -0.303 A  
BRANCH  16  20
HETATM   20  N   UNL     1     -11.138  14.828  69.184  1.00  0.00    -0.253 N  
HETATM   21  C   UNL     1     -10.701  17.037  68.869  1.00  0.00    -0.300 C  
HETATM   22  C   UNL     1     -11.218  15.816  68.147  1.00  0.00    -0.344 C  
HETATM   23  O   UNL     1     -11.167  16.838  70.209  1.00  0.00    -0.164 OA 
HETATM   24  O   UNL     1     -11.327  14.996  71.528  1.00  0.00    -0.350 OA 
HETATM   25  C   UNL     1     -11.227  15.476  70.413  1.00  0.00    -0.337 C  
BRANCH  21  26
HETATM   26  C   UNL     1      -9.174  17.122  68.889  1.00  0.00    -0.200 C  
BRANCH  26  27
HETATM   27  O   UNL     1      -8.677  17.743  67.711  1.00  0.00    -0.235 OA 
HETATM   28  P   UNL     1      -9.223  19.376  67.553  1.00  0.00    -0.329 P  
HETATM   29  O   UNL     1      -7.887  19.759  68.418  1.00  0.00    -0.328 OA 
HETATM   30  O   UNL     1      -9.711  20.839  67.411  1.00  0.00    -0.465 OA 
HETATM   31  O   UNL     1      -8.517  19.339  66.079  1.00  0.00    -0.427 OA 
ENDBRANCH  26  27
ENDBRANCH  21  26
ENDBRANCH  16  20
ENDBRANCH  10  13
ENDBRANCH   5   7
TORSDOF 5
ENDMDL
MODEL       53
REMARK 921   NORMALIZED FREE ENERGY PREDICTED BY IDOCK:   -5.73 KCAL/MOL
REMARK 922        TOTAL FREE ENERGY PREDICTED BY IDOCK:   -8.16 KCAL/MOL
REMARK 923 INTER-LIGAND FREE ENERGY PREDICTED BY IDOCK:   -7.30 KCAL/MOL
REMARK 924 INTRA-LIGAND FREE ENERGY PREDICTED BY IDOCK:   -0.86 KCAL/MOL
REMARK 927      BINDING AFFINITY PREDICTED BY RF-SCORE:    0.00 PKD
ROOT
HETATM    1  C   UNL     1     -10.291  19.077  65.986  1.00  0.00    -0.446 C  
HETATM    2  N   UNL     1     -10.609  17.779  65.456  1.00  0.00    -0.615 NA 
HETATM    3  N   UNL     1     -11.499  17.618  64.472  1.00  0.00     0.046 NA 
HETATM    4  N   UNL     1     -11.544  16.308  64.273  1.00  0.00    -0.815 NA 
HETATM    5  C   UNL     1     -10.665  15.733  65.167  1.00  0.00    -0.435 A  
HETATM    6  N   UNL     1     -10.049  16.655  65.940  1.00  0.00    -0.454 NA 
ENDROOT
BRANCH   5   7
HETATM    7  C   UNL     1     -10.422  14.291  65.221  1.00  0.00    -0.389 A  
HETATM    8  C   UNL     1     -11.095  13.413  64.378  1.00  0.00    -0.408 A  
HETATM    9  C   UNL     1     -10.893  12.037  64.528  1.00  0.00    -0.363 A  
HETATM   10  C   UNL     1     -10.037  11.538  65.521  1.00  0.00    -0.286 A  
HETATM   11  N   UNL     1      -9.547  13.851  66.156  1.00  0.00    -0.264 NA 
HETATM   12  C   UNL     1      -9.380  12.511  66.279  1.00  0.00    -0.177 A  
BRANCH  10  13
HETATM   13  C   UNL     1      -9.910  10.094  65.818  1.00  0.00    -0.331 A  
HETATM   14  C   UNL     1     -10.521   9.532  66.951  1.00  0.00    -0.279 A  
HETATM   15  C   UNL     1     -10.308   8.196  67.320  1.00  0.00    -0.373 A  
HETATM   16  C   UNL     1      -9.481   7.358  66.570  1.00  0.00    -0.172 A  
HETATM   17  F   UNL     1      -8.522   9.657  63.932  1.00  0.00    -0.140 F  
HETATM   18  C   UNL     1      -8.901   7.890  65.416  1.00  0.00    -0.020 A  
HETATM   19  C   UNL     1      -9.118   9.224  65.054  1.00  0.00    -0.188 A  
BRANCH  16  20
HETATM   20  N   UNL     1      -9.261   6.013  66.945  1.00  0.00    -0.123 N  
HETATM   21  C   UNL     1      -9.596   4.124  68.166  1.00  0.00    -0.134 C  
HETATM   22  C   UNL     1     -10.310   5.081  67.242  1.00  0.00    -0.134 C  
HETATM   23  O   UNL     1      -8.260   4.117  67.649  1.00  0.00    -0.094 OA 
HETATM   24  O   UNL     1      -6.922   5.749  66.813  1.00  0.00    -0.062 OA 
HETATM   25  C   UNL     1      -8.040   5.358  67.091  1.00  0.00    -0.101 C  
BRANCH  21  26
HETATM   26  C   UNL     1      -9.558   4.606  69.617  1.00  0.00    -0.192 C  
BRANCH  26  27
HETATM   27  O   UNL     1      -8.361   4.198  70.265  1.00  0.00    -0.061 OA 
HETATM   28  P   UNL     1      -7.573   5.511  71.070  1.00  0.00    -0.094 P  
HETATM   29  O   UNL     1      -8.504   5.100  72.352  1.00  0.00    -0.119 OA 
HETATM   30  O   UNL     1      -6.868   6.686  71.790  1.00  0.00    -0.064 OA 
HETATM   31  O   UNL     1      -6.358   4.452  71.343  1.00  0.00    -0.017 OA 
ENDBRANCH  26  27
ENDBRANCH  21  26
ENDBRANCH  16  20
ENDBRANCH  10  13
ENDBRANCH   5   7
TORSDOF 5
ENDMDL
MODEL       54
REMARK 921   NORMALIZED FREE ENERGY PREDICTED BY IDOCK:   -5.66 KCAL/MOL
REMARK 922        TOTAL FREE ENERGY PREDICTED BY IDOCK:   -8.08 KCAL/MOL
REMARK 923 INTER-LIGAND FREE ENERGY PREDICTED BY IDOCK:   -7.35 KCAL/MOL
REMARK 924 INTRA-LIGAND FREE ENERGY PREDICTED BY IDOCK:   -0.72 KCAL/MOL
REMARK 927      BINDING AFFINITY PREDICTED BY RF-SCORE:    0.00 PKD
ROOT
HETATM    1  C   UNL     1      -7.736   1.707  66.885  1.00  0.00    -0.065 C  
HETATM    2  N   UNL     1      -8.409   2.738  67.629  1.00  0.00    -0.080 NA 
HETATM    3  N   UNL     1      -8.935   2.507  68.836  1.00  0.00    -0.102 NA 
HETATM    4  N   UNL     1      -9.481   3.662  69.189  1.00  0.00    -0.177 NA 
HETATM    5  C   UNL     1      -9.257   4.548  68.155  1.00  0.00    -0.132 A  
HETATM    6  N   UNL     1      -8.569   3.981  67.140  1.00  0.00    -0.100 NA 
ENDROOT
BRANCH   5   7
HETATM    7  C   UNL     1      -9.693   5.943  68.201  1.00  0.00    -0.127 A  
HETATM    8  C   UNL     1     -10.285   6.552  67.100  1.00  0.00    -0.257 A  
HETATM    9  C   UNL     1     -10.605   7.913  67.165  1.00  0.00    -0.383 A  
HETATM   10  C   UNL     1     -10.324   8.664  68.316  1.00  0.00    -0.252 A  
HETATM   11  N   UNL     1      -9.456   6.622  69.349  1.00  0.00    -0.146 NA 
HETATM   12  C   UNL     1      -9.773   7.940  69.376  1.00  0.00    -0.170 A  
BRANCH  10  13
HETATM   13  C   UNL     1     -10.502  10.133  68.377  1.00  0.00    -0.237 A  
HETATM   14  C   UNL     1     -11.629  10.698  68.995  1.00  0.00    -0.332 A  
HETATM   15  C   UNL     1     -11.881  12.078  68.952  1.00  0.00    -0.356 A  
HETATM   16  C   UNL     1     -11.016  12.955  68.296  1.00  0.00    -0.256 A  
HETATM   17  F   UNL     1      -8.498  10.594  67.175  1.00  0.00    -0.124 F  
HETATM   18  C   UNL     1      -9.868  12.412  67.713  1.00  0.00    -0.203 A  
HETATM   19  C   UNL     1      -9.623  11.035  67.761  1.00  0.00    -0.170 A  
BRANCH  16  20
HETATM   20  N   UNL     1     -11.273  14.343  68.247  1.00  0.00    -0.263 N  
HETATM   21  C   UNL     1     -10.788  16.525  67.823  1.00  0.00    -0.304 C  
HETATM   22  C   UNL     1     -10.924  15.186  67.139  1.00  0.00    -0.326 C  
HETATM   23  O   UNL     1     -11.776  16.457  68.859  1.00  0.00    -0.261 OA 
HETATM   24  O   UNL     1     -12.445  14.787  70.244  1.00  0.00    -0.333 OA 
HETATM   25  C   UNL     1     -11.890  15.131  69.216  1.00  0.00    -0.320 C  
BRANCH  21  26
HETATM   26  C   UNL     1      -9.416  16.733  68.467  1.00  0.00    -0.245 C  
BRANCH  26  27
HETATM   27  O   UNL     1      -8.643  17.677  67.739  1.00  0.00    -0.222 OA 
HETATM   28  P   UNL     1      -9.604  18.985  67.138  1.00  0.00    -0.340 P  
HETATM   29  O   UNL     1      -9.276  19.700  68.573  1.00  0.00    -0.344 OA 
HETATM   30  O   UNL     1     -10.463  20.156  66.601  1.00  0.00    -0.429 OA 
HETATM   31  O   UNL     1      -8.249  19.457  66.354  1.00  0.00    -0.297 OA 
ENDBRANCH  26  27
ENDBRANCH  21  26
ENDBRANCH  16  20
ENDBRANCH  10  13
ENDBRANCH   5   7
TORSDOF 5
ENDMDL
MODEL       55
REMARK 921   NORMALIZED FREE ENERGY PREDICTED BY IDOCK:   -5.63 KCAL/MOL
REMARK 922        TOTAL FREE ENERGY PREDICTED BY IDOCK:   -8.03 KCAL/MOL
REMARK 923 INTER-LIGAND FREE ENERGY PREDICTED BY IDOCK:   -7.21 KCAL/MOL
REMARK 924 INTRA-LIGAND FREE ENERGY PREDICTED BY IDOCK:   -0.82 KCAL/MOL
REMARK 927      BINDING AFFINITY PREDICTED BY RF-SCORE:    0.00 PKD
ROOT
HETATM    1  C   UNL     1     -10.325  20.301  65.964  1.00  0.00    -0.251 C  
HETATM    2  N   UNL     1      -9.493  19.130  66.038  1.00  0.00    -0.454 NA 
HETATM    3  N   UNL     1      -8.168  19.196  65.872  1.00  0.00    -0.454 NA 
HETATM    4  N   UNL     1      -7.755  17.941  65.983  1.00  0.00    -0.497 NA 
HETATM    5  C   UNL     1      -8.874  17.166  66.211  1.00  0.00    -0.231 A  
HETATM    6  N   UNL     1     -10.004  17.904  66.253  1.00  0.00    -0.425 NA 
ENDROOT
BRANCH   5   7
HETATM    7  C   UNL     1      -8.804  15.719  66.418  1.00  0.00    -0.336 A  
HETATM    8  C   UNL     1      -9.736  14.861  65.843  1.00  0.00    -0.366 A  
HETATM    9  C   UNL     1      -9.678  13.496  66.142  1.00  0.00    -0.264 A  
HETATM   10  C   UNL     1      -8.706  12.991  67.019  1.00  0.00    -0.195 A  
HETATM   11  N   UNL     1      -7.818  15.262  67.226  1.00  0.00    -0.194 NA 
HETATM   12  C   UNL     1      -7.795  13.935  67.500  1.00  0.00    -0.181 A  
BRANCH  10  13
HETATM   13  C   UNL     1      -8.700  11.585  67.484  1.00  0.00    -0.145 A  
HETATM   14  C   UNL     1      -7.765  10.664  66.984  1.00  0.00    -0.117 A  
HETATM   15  C   UNL     1      -7.822   9.301  67.313  1.00  0.00    -0.099 A  
HETATM   16  C   UNL     1      -8.811   8.800  68.162  1.00  0.00    -0.141 A  
HETATM   17  F   UNL     1     -10.571  11.879  68.929  1.00  0.00    -0.213 F  
HETATM   18  C   UNL     1      -9.721   9.711  68.701  1.00  0.00    -0.162 A  
HETATM   19  C   UNL     1      -9.658  11.069  68.368  1.00  0.00    -0.181 A  
BRANCH  16  20
HETATM   20  N   UNL     1      -8.872   7.426  68.489  1.00  0.00    -0.127 N  
HETATM   21  C   UNL     1      -9.900   5.435  68.879  1.00  0.00    -0.166 C  
HETATM   22  C   UNL     1      -9.697   6.474  67.802  1.00  0.00    -0.122 C  
HETATM   23  O   UNL     1      -8.661   5.471  69.596  1.00  0.00    -0.106 OA 
HETATM   24  O   UNL     1      -7.284   7.168  70.212  1.00  0.00    -0.068 OA 
HETATM   25  C   UNL     1      -8.175   6.756  69.492  1.00  0.00    -0.131 C  
BRANCH  21  26
HETATM   26  C   UNL     1     -11.035   5.784  69.843  1.00  0.00    -0.319 C  
BRANCH  26  27
HETATM   27  O   UNL     1     -10.540   6.048  71.148  1.00  0.00    -0.226 OA 
HETATM   28  P   UNL     1     -11.291   7.432  71.865  1.00  0.00    -0.284 P  
HETATM   29  O   UNL     1     -12.407   6.369  72.414  1.00  0.00    -0.178 OA 
HETATM   30  O   UNL     1     -11.963   8.671  72.506  1.00  0.00    -0.368 OA 
HETATM   31  O   UNL     1     -10.206   7.243  73.072  1.00  0.00    -0.213 OA 
ENDBRANCH  26  27
ENDBRANCH  21  26
ENDBRANCH  16  20
ENDBRANCH  10  13
ENDBRANCH   5   7
TORSDOF 5
ENDMDL
MODEL       56
REMARK 921   NORMALIZED FREE ENERGY PREDICTED BY IDOCK:   -5.61 KCAL/MOL
REMARK 922        TOTAL FREE ENERGY PREDICTED BY IDOCK:   -8.01 KCAL/MOL
REMARK 923 INTER-LIGAND FREE ENERGY PREDICTED BY IDOCK:   -7.31 KCAL/MOL
REMARK 924 INTRA-LIGAND FREE ENERGY PREDICTED BY IDOCK:   -0.70 KCAL/MOL
REMARK 927      BINDING AFFINITY PREDICTED BY RF-SCORE:    0.00 PKD
ROOT
HETATM    1  C   UNL     1     -12.493  16.693  74.354  1.00  0.00    -0.184 C  
HETATM    2  N   UNL     1     -12.918  15.765  73.341  1.00  0.00    -0.536 NA 
HETATM    3  N   UNL     1     -14.132  15.836  72.785  1.00  0.00    -0.516 NA 
HETATM    4  N   UNL     1     -14.168  14.823  71.932  1.00  0.00    -0.493 NA 
HETATM    5  C   UNL     1     -12.952  14.176  72.020  1.00  0.00    -0.360 A  
HETATM    6  N   UNL     1     -12.129  14.762  72.917  1.00  0.00    -0.227 NA 
ENDROOT
BRANCH   5   7
HETATM    7  C   UNL     1     -12.612  13.016  71.195  1.00  0.00    -0.297 A  
HETATM    8  C   UNL     1     -12.924  11.724  71.601  1.00  0.00    -0.467 A  
HETATM    9  C   UNL     1     -12.500  10.643  70.820  1.00  0.00    -0.480 A  
HETATM   10  C   UNL     1     -11.757  10.850  69.648  1.00  0.00    -0.403 A  
HETATM   11  N   UNL     1     -11.943  13.259  70.043  1.00  0.00    -0.339 NA 
HETATM   12  C   UNL     1     -11.541  12.190  69.312  1.00  0.00    -0.318 A  
BRANCH  10  13
HETATM   13  C   UNL     1     -11.156   9.740  68.874  1.00  0.00    -0.139 A  
HETATM   14  C   UNL     1     -10.720   8.568  69.512  1.00  0.00    -0.181 A  
HETATM   15  C   UNL     1     -10.034   7.561  68.818  1.00  0.00    -0.175 A  
HETATM   16  C   UNL     1      -9.759   7.676  67.453  1.00  0.00    -0.161 A  
HETATM   17  F   UNL     1     -11.323  10.882  66.790  1.00  0.00    -0.317 F  
HETATM   18  C   UNL     1     -10.226   8.817  66.796  1.00  0.00    -0.354 A  
HETATM   19  C   UNL     1     -10.910   9.817  67.495  1.00  0.00    -0.220 A  
BRANCH  16  20
HETATM   20  N   UNL     1      -9.062   6.664  66.755  1.00  0.00    -0.137 N  
HETATM   21  C   UNL     1      -8.349   4.542  66.352  1.00  0.00    -0.106 C  
HETATM   22  C   UNL     1      -9.607   5.370  66.462  1.00  0.00    -0.156 C  
HETATM   23  O   UNL     1      -7.405   5.466  65.799  1.00  0.00    -0.071 OA 
HETATM   24  O   UNL     1      -7.018   7.675  66.156  1.00  0.00    -0.063 OA 
HETATM   25  C   UNL     1      -7.771   6.721  66.235  1.00  0.00    -0.098 C  
BRANCH  21  26
HETATM   26  C   UNL     1      -7.827   4.061  67.707  1.00  0.00    -0.086 C  
BRANCH  26  27
HETATM   27  O   UNL     1      -8.733   3.151  68.316  1.00  0.00    -0.089 OA 
HETATM   28  P   UNL     1      -8.425   2.956  70.007  1.00  0.00    -0.058 P  
HETATM   29  O   UNL     1      -9.443   4.223  70.196  1.00  0.00    -0.144 OA 
HETATM   30  O   UNL     1      -8.151   2.781  71.521  1.00  0.00    -0.054 OA 
HETATM   31  O   UNL     1      -9.560   1.781  69.952  1.00  0.00    -0.086 OA 
ENDBRANCH  26  27
ENDBRANCH  21  26
ENDBRANCH  16  20
ENDBRANCH  10  13
ENDBRANCH   5   7
TORSDOF 5
ENDMDL
MODEL       57
REMARK 921   NORMALIZED FREE ENERGY PREDICTED BY IDOCK:   -5.57 KCAL/MOL
REMARK 922        TOTAL FREE ENERGY PREDICTED BY IDOCK:   -7.96 KCAL/MOL
REMARK 923 INTER-LIGAND FREE ENERGY PREDICTED BY IDOCK:   -7.23 KCAL/MOL
REMARK 924 INTRA-LIGAND FREE ENERGY PREDICTED BY IDOCK:   -0.73 KCAL/MOL
REMARK 927      BINDING AFFINITY PREDICTED BY RF-SCORE:    0.00 PKD
ROOT
HETATM    1  C   UNL     1      -7.179   2.116  63.177  1.00  0.00    -0.040 C  
HETATM    2  N   UNL     1      -8.053   2.805  64.088  1.00  0.00    -0.082 NA 
HETATM    3  N   UNL     1      -9.049   2.177  64.721  1.00  0.00    -0.124 NA 
HETATM    4  N   UNL     1      -9.637   3.123  65.439  1.00  0.00    -0.091 NA 
HETATM    5  C   UNL     1      -8.956   4.299  65.195  1.00  0.00    -0.139 A  
HETATM    6  N   UNL     1      -7.932   4.123  64.331  1.00  0.00    -0.085 NA 
ENDROOT
BRANCH   5   7
HETATM    7  C   UNL     1      -9.305   5.563  65.843  1.00  0.00    -0.125 A  
HETATM    8  C   UNL     1     -10.521   5.730  66.496  1.00  0.00    -0.280 A  
HETATM    9  C   UNL     1     -10.844   6.985  67.024  1.00  0.00    -0.413 A  
HETATM   10  C   UNL     1      -9.966   8.070  66.889  1.00  0.00    -0.338 A  
HETATM   11  N   UNL     1      -8.408   6.573  65.740  1.00  0.00    -0.138 NA 
HETATM   12  C   UNL     1      -8.755   7.777  66.256  1.00  0.00    -0.155 A  
BRANCH  10  13
HETATM   13  C   UNL     1     -10.328   9.448  67.293  1.00  0.00    -0.325 A  
HETATM   14  C   UNL     1     -10.430   9.800  68.648  1.00  0.00    -0.233 A  
HETATM   15  C   UNL     1     -10.895  11.060  69.051  1.00  0.00    -0.274 A  
HETATM   16  C   UNL     1     -11.271  12.029  68.118  1.00  0.00    -0.260 A  
HETATM   17  F   UNL     1     -10.567  10.221  65.052  1.00  0.00    -0.353 F  
HETATM   18  C   UNL     1     -11.133  11.709  66.766  1.00  0.00    -0.366 A  
HETATM   19  C   UNL     1     -10.669  10.449  66.371  1.00  0.00    -0.064 A  
BRANCH  16  20
HETATM   20  N   UNL     1     -11.745  13.297  68.525  1.00  0.00    -0.332 N  
HETATM   21  C   UNL     1     -11.771  15.570  68.602  1.00  0.00    -0.348 C  
HETATM   22  C   UNL     1     -11.907  14.414  67.640  1.00  0.00    -0.378 C  
HETATM   23  O   UNL     1     -12.350  15.053  69.806  1.00  0.00    -0.297 OA 
HETATM   24  O   UNL     1     -12.268  13.016  70.806  1.00  0.00    -0.363 OA 
HETATM   25  C   UNL     1     -12.134  13.692  69.803  1.00  0.00    -0.334 C  
BRANCH  21  26
HETATM   26  C   UNL     1     -10.315  15.949  68.882  1.00  0.00    -0.228 C  
BRANCH  26  27
HETATM   27  O   UNL     1      -9.641  16.321  67.688  1.00  0.00    -0.224 OA 
HETATM   28  P   UNL     1      -7.988  15.810  67.685  1.00  0.00    -0.171 P  
HETATM   29  O   UNL     1      -8.563  14.427  67.026  1.00  0.00    -0.214 OA 
HETATM   30  O   UNL     1      -6.508  15.353  67.681  1.00  0.00    -0.148 OA 
HETATM   31  O   UNL     1      -7.855  16.665  66.298  1.00  0.00    -0.304 OA 
ENDBRANCH  26  27
ENDBRANCH  21  26
ENDBRANCH  16  20
ENDBRANCH  10  13
ENDBRANCH   5   7
TORSDOF 5
ENDMDL
MODEL       58
REMARK 921   NORMALIZED FREE ENERGY PREDICTED BY IDOCK:   -5.56 KCAL/MOL
REMARK 922        TOTAL FREE ENERGY PREDICTED BY IDOCK:   -7.95 KCAL/MOL
REMARK 923 INTER-LIGAND FREE ENERGY PREDICTED BY IDOCK:   -7.15 KCAL/MOL
REMARK 924 INTRA-LIGAND FREE ENERGY PREDICTED BY IDOCK:   -0.79 KCAL/MOL
REMARK 927      BINDING AFFINITY PREDICTED BY RF-SCORE:    0.00 PKD
ROOT
HETATM    1  C   UNL     1      -6.415   2.138  70.900  1.00  0.00    -0.024 C  
HETATM    2  N   UNL     1      -7.570   2.960  70.662  1.00  0.00    -0.040 NA 
HETATM    3  N   UNL     1      -8.788   2.604  71.084  1.00  0.00    -0.070 NA 
HETATM    4  N   UNL     1      -9.584   3.578  70.667  1.00  0.00    -0.180 NA 
HETATM    5  C   UNL     1      -8.792   4.490  69.998  1.00  0.00    -0.082 A  
HETATM    6  N   UNL     1      -7.493   4.118  69.981  1.00  0.00    -0.046 NA 
ENDROOT
BRANCH   5   7
HETATM    7  C   UNL     1      -9.324   5.724  69.420  1.00  0.00    -0.126 A  
HETATM    8  C   UNL     1     -10.436   5.710  68.585  1.00  0.00    -0.277 A  
HETATM    9  C   UNL     1     -10.852   6.905  67.987  1.00  0.00    -0.266 A  
HETATM   10  C   UNL     1     -10.156   8.102  68.208  1.00  0.00    -0.230 A  
HETATM   11  N   UNL     1      -8.658   6.869  69.701  1.00  0.00    -0.133 NA 
HETATM   12  C   UNL     1      -9.083   8.007  69.100  1.00  0.00    -0.145 A  
BRANCH  10  13
HETATM   13  C   UNL     1     -10.464   9.354  67.481  1.00  0.00    -0.343 A  
HETATM   14  C   UNL     1     -10.048   9.539  66.153  1.00  0.00    -0.326 A  
HETATM   15  C   UNL     1     -10.216  10.763  65.489  1.00  0.00    -0.330 A  
HETATM   16  C   UNL     1     -10.813  11.856  66.120  1.00  0.00    -0.292 A  
HETATM   17  F   UNL     1     -11.568  10.358  69.338  1.00  0.00    -0.264 F  
HETATM   18  C   UNL     1     -11.271  11.674  67.427  1.00  0.00    -0.358 A  
HETATM   19  C   UNL     1     -11.100  10.450  68.083  1.00  0.00    -0.285 A  
BRANCH  16  20
HETATM   20  N   UNL     1     -10.977  13.092  65.454  1.00  0.00    -0.272 N  
HETATM   21  C   UNL     1     -10.444  15.233  64.904  1.00  0.00    -0.302 C  
HETATM   22  C   UNL     1      -9.903  13.825  64.847  1.00  0.00     0.003 C  
HETATM   23  O   UNL     1     -11.853  15.042  64.732  1.00  0.00    -0.387 OA 
HETATM   24  O   UNL     1     -13.302  13.475  65.505  1.00  0.00    -0.455 OA 
HETATM   25  C   UNL     1     -12.157  13.806  65.260  1.00  0.00    -0.407 C  
BRANCH  21  26
HETATM   26  C   UNL     1     -10.203  15.915  66.252  1.00  0.00    -0.311 C  
BRANCH  26  27
HETATM   27  O   UNL     1      -8.825  16.202  66.446  1.00  0.00    -0.259 OA 
HETATM   28  P   UNL     1      -8.513  17.903  66.504  1.00  0.00    -0.212 P  
HETATM   29  O   UNL     1      -8.793  17.758  68.110  1.00  0.00    -0.253 OA 
HETATM   30  O   UNL     1      -8.233  19.425  66.556  1.00  0.00    -0.283 OA 
HETATM   31  O   UNL     1      -6.932  17.486  66.528  1.00  0.00    -0.200 OA 
ENDBRANCH  26  27
ENDBRANCH  21  26
ENDBRANCH  16  20
ENDBRANCH  10  13
ENDBRANCH   5   7
TORSDOF 5
ENDMDL
MODEL       59
REMARK 921   NORMALIZED FREE ENERGY PREDICTED BY IDOCK:   -5.54 KCAL/MOL
REMARK 922        TOTAL FREE ENERGY PREDICTED BY IDOCK:   -7.93 KCAL/MOL
REMARK 923 INTER-LIGAND FREE ENERGY PREDICTED BY IDOCK:   -6.91 KCAL/MOL
REMARK 924 INTRA-LIGAND FREE ENERGY PREDICTED BY IDOCK:   -1.01 KCAL/MOL
REMARK 927      BINDING AFFINITY PREDICTED BY RF-SCORE:    0.00 PKD
ROOT
HETATM    1  C   UNL     1      -7.402  21.036  67.613  1.00  0.00    -0.164 C  
HETATM    2  N   UNL     1      -7.643  19.712  67.105  1.00  0.00    -0.246 NA 
HETATM    3  N   UNL     1      -7.627  19.447  65.794  1.00  0.00    -0.431 NA 
HETATM    4  N   UNL     1      -7.911  18.154  65.712  1.00  0.00    -0.531 NA 
HETATM    5  C   UNL     1      -8.091  17.697  67.002  1.00  0.00    -0.222 A  
HETATM    6  N   UNL     1      -7.923  18.677  67.917  1.00  0.00    -0.254 NA 
ENDROOT
BRANCH   5   7
HETATM    7  C   UNL     1      -8.389  16.298  67.310  1.00  0.00    -0.180 A  
HETATM    8  C   UNL     1      -8.929  15.447  66.352  1.00  0.00    -0.351 A  
HETATM    9  C   UNL     1      -9.279  14.143  66.721  1.00  0.00    -0.282 A  
HETATM   10  C   UNL     1      -9.105  13.696  68.039  1.00  0.00    -0.192 A  
HETATM   11  N   UNL     1      -8.156  15.887  68.579  1.00  0.00    -0.149 NA 
HETATM   12  C   UNL     1      -8.512  14.620  68.904  1.00  0.00    -0.136 A  
BRANCH  10  13
HETATM   13  C   UNL     1      -9.599  12.383  68.511  1.00  0.00    -0.121 A  
HETATM   14  C   UNL     1      -8.716  11.310  68.717  1.00  0.00    -0.105 A  
HETATM   15  C   UNL     1      -9.176  10.025  69.040  1.00  0.00    -0.180 A  
HETATM   16  C   UNL     1     -10.539   9.755  69.179  1.00  0.00    -0.218 A  
HETATM   17  F   UNL     1     -11.879  13.071  68.561  1.00  0.00    -0.311 F  
HETATM   18  C   UNL     1     -11.427  10.822  69.020  1.00  0.00    -0.368 A  
HETATM   19  C   UNL     1     -10.960  12.101  68.698  1.00  0.00    -0.245 A  
BRANCH  16  20
HETATM   20  N   UNL     1     -11.004   8.459  69.498  1.00  0.00    -0.113 N  
HETATM   21  C   UNL     1     -11.362   6.662  70.845  1.00  0.00    -0.325 C  
HETATM   22  C   UNL     1     -11.692   8.130  70.713  1.00  0.00    -0.201 C  
HETATM   23  O   UNL     1     -11.307   6.223  69.483  1.00  0.00    -0.409 OA 
HETATM   24  O   UNL     1     -10.496   7.175  67.587  1.00  0.00    -0.196 OA 
HETATM   25  C   UNL     1     -10.895   7.302  68.731  1.00  0.00    -0.086 C  
BRANCH  21  26
HETATM   26  C   UNL     1     -10.002   6.408  71.498  1.00  0.00    -0.180 C  
BRANCH  26  27
HETATM   27  O   UNL     1      -9.627   7.485  72.346  1.00  0.00    -0.148 OA 
HETATM   28  P   UNL     1      -8.089   7.225  73.092  1.00  0.00    -0.112 P  
HETATM   29  O   UNL     1      -7.477   7.953  71.760  1.00  0.00    -0.065 OA 
HETATM   30  O   UNL     1      -6.711   6.992  73.760  1.00  0.00    -0.070 OA 
HETATM   31  O   UNL     1      -8.411   8.581  73.945  1.00  0.00    -0.320 OA 
ENDBRANCH  26  27
ENDBRANCH  21  26
ENDBRANCH  16  20
ENDBRANCH  10  13
ENDBRANCH   5   7
TORSDOF 5
ENDMDL
MODEL       60
REMARK 921   NORMALIZED FREE ENERGY PREDICTED BY IDOCK:   -5.54 KCAL/MOL
REMARK 922        TOTAL FREE ENERGY PREDICTED BY IDOCK:   -7.92 KCAL/MOL
REMARK 923 INTER-LIGAND FREE ENERGY PREDICTED BY IDOCK:   -7.01 KCAL/MOL
REMARK 924 INTRA-LIGAND FREE ENERGY PREDICTED BY IDOCK:   -0.91 KCAL/MOL
REMARK 927      BINDING AFFINITY PREDICTED BY RF-SCORE:    0.00 PKD
ROOT
HETATM    1  C   UNL     1      -7.079  19.914  68.868  1.00  0.00    -0.290 C  
HETATM    2  N   UNL     1      -8.053  18.927  68.483  1.00  0.00    -0.338 NA 
HETATM    3  N   UNL     1      -9.251  19.270  68.000  1.00  0.00    -0.310 NA 
HETATM    4  N   UNL     1      -9.868  18.117  67.786  1.00  0.00    -0.298 NA 
HETATM    5  C   UNL     1      -8.995  17.116  68.163  1.00  0.00    -0.240 A  
HETATM    6  N   UNL     1      -7.820  17.608  68.613  1.00  0.00    -0.284 NA 
ENDROOT
BRANCH   5   7
HETATM    7  C   UNL     1      -9.322  15.695  68.039  1.00  0.00    -0.193 A  
HETATM    8  C   UNL     1     -10.453  15.158  68.645  1.00  0.00    -0.234 A  
HETATM    9  C   UNL     1     -10.674  13.778  68.571  1.00  0.00    -0.274 A  
HETATM   10  C   UNL     1      -9.766  12.938  67.910  1.00  0.00    -0.218 A  
HETATM   11  N   UNL     1      -8.451  14.924  67.346  1.00  0.00    -0.181 NA 
HETATM   12  C   UNL     1      -8.691  13.590  67.300  1.00  0.00    -0.225 A  
BRANCH  10  13
HETATM   13  C   UNL     1      -9.876  11.462  67.936  1.00  0.00    -0.188 A  
HETATM   14  C   UNL     1      -9.425  10.724  69.042  1.00  0.00    -0.179 A  
HETATM   15  C   UNL     1      -9.402   9.321  69.035  1.00  0.00    -0.151 A  
HETATM   16  C   UNL     1      -9.834   8.593  67.925  1.00  0.00    -0.173 A  
HETATM   17  F   UNL     1     -10.834  11.327  65.759  1.00  0.00    -0.318 F  
HETATM   18  C   UNL     1     -10.326   9.312  66.834  1.00  0.00    -0.316 A  
HETATM   19  C   UNL     1     -10.347  10.712  66.849  1.00  0.00    -0.236 A  
BRANCH  16  20
HETATM   20  N   UNL     1      -9.804   7.180  67.915  1.00  0.00    -0.140 N  
HETATM   21  C   UNL     1     -10.189   5.096  68.740  1.00  0.00    -0.132 C  
HETATM   22  C   UNL     1     -10.907   6.351  68.308  1.00  0.00    -0.309 C  
HETATM   23  O   UNL     1      -9.065   5.048  67.853  1.00  0.00    -0.110 OA 
HETATM   24  O   UNL     1      -7.687   6.651  67.023  1.00  0.00    -0.100 OA 
HETATM   25  C   UNL     1      -8.750   6.352  67.537  1.00  0.00    -0.113 C  
BRANCH  21  26
HETATM   26  C   UNL     1      -9.674   5.164  70.180  1.00  0.00    -0.204 C  
BRANCH  26  27
HETATM   27  O   UNL     1     -10.736   5.035  71.114  1.00  0.00    -0.138 OA 
HETATM   28  P   UNL     1     -10.681   6.257  72.338  1.00  0.00    -0.251 P  
HETATM   29  O   UNL     1     -11.589   7.139  71.302  1.00  0.00    -0.268 OA 
HETATM   30  O   UNL     1     -10.632   7.350  73.434  1.00  0.00    -0.362 OA 
HETATM   31  O   UNL     1     -11.904   5.432  73.042  1.00  0.00    -0.236 OA 
ENDBRANCH  26  27
ENDBRANCH  21  26
ENDBRANCH  16  20
ENDBRANCH  10  13
ENDBRANCH   5   7
TORSDOF 5
ENDMDL
MODEL       61
REMARK 921   NORMALIZED FREE ENERGY PREDICTED BY IDOCK:   -5.54 KCAL/MOL
REMARK 922        TOTAL FREE ENERGY PREDICTED BY IDOCK:   -7.92 KCAL/MOL
REMARK 923 INTER-LIGAND FREE ENERGY PREDICTED BY IDOCK:   -7.23 KCAL/MOL
REMARK 924 INTRA-LIGAND FREE ENERGY PREDICTED BY IDOCK:   -0.68 KCAL/MOL
REMARK 927      BINDING AFFINITY PREDICTED BY RF-SCORE:    0.00 PKD
ROOT
HETATM    1  C   UNL     1      -6.448  20.074  64.925  1.00  0.00    -0.281 C  
HETATM    2  N   UNL     1      -7.464  19.236  65.502  1.00  0.00    -0.437 NA 
HETATM    3  N   UNL     1      -8.706  19.682  65.719  1.00  0.00    -0.367 NA 
HETATM    4  N   UNL     1      -9.337  18.656  66.272  1.00  0.00    -0.436 NA 
HETATM    5  C   UNL     1      -8.426  17.623  66.366  1.00  0.00    -0.246 A  
HETATM    6  N   UNL     1      -7.215  17.968  65.877  1.00  0.00    -0.465 NA 
ENDROOT
BRANCH   5   7
HETATM    7  C   UNL     1      -8.775  16.308  66.903  1.00  0.00    -0.208 A  
HETATM    8  C   UNL     1      -7.862  15.564  67.643  1.00  0.00    -0.174 A  
HETATM    9  C   UNL     1      -8.214  14.275  68.059  1.00  0.00    -0.153 A  
HETATM   10  C   UNL     1      -9.462  13.727  67.728  1.00  0.00    -0.216 A  
HETATM   11  N   UNL     1     -10.009  15.834  66.610  1.00  0.00    -0.248 NA 
HETATM   12  C   UNL     1     -10.315  14.579  67.023  1.00  0.00    -0.263 A  
BRANCH  10  13
HETATM   13  C   UNL     1      -9.819  12.318  68.013  1.00  0.00    -0.204 A  
HETATM   14  C   UNL     1     -11.150  11.946  68.257  1.00  0.00    -0.289 A  
HETATM   15  C   UNL     1     -11.493  10.645  68.654  1.00  0.00    -0.332 A  
HETATM   16  C   UNL     1     -10.521   9.656  68.818  1.00  0.00    -0.215 A  
HETATM   17  F   UNL     1      -7.568  11.548  67.890  1.00  0.00    -0.097 F  
HETATM   18  C   UNL     1      -9.198   9.999  68.536  1.00  0.00    -0.141 A  
HETATM   19  C   UNL     1      -8.863  11.299  68.140  1.00  0.00    -0.159 A  
BRANCH  16  20
HETATM   20  N   UNL     1     -10.866   8.346  69.224  1.00  0.00    -0.122 N  
HETATM   21  C   UNL     1     -10.851   6.534  70.598  1.00  0.00    -0.266 C  
HETATM   22  C   UNL     1     -11.237   7.993  70.564  1.00  0.00    -0.250 C  
HETATM   23  O   UNL     1     -11.110   6.103  69.257  1.00  0.00    -0.352 OA 
HETATM   24  O   UNL     1     -10.796   7.085  67.233  1.00  0.00    -0.310 OA 
HETATM   25  C   UNL     1     -10.914   7.196  68.440  1.00  0.00    -0.021 C  
BRANCH  21  26
HETATM   26  C   UNL     1      -9.369   6.312  70.906  1.00  0.00    -0.161 C  
BRANCH  26  27
HETATM   27  O   UNL     1      -9.172   5.963  72.269  1.00  0.00    -0.145 OA 
HETATM   28  P   UNL     1     -10.392   4.882  72.849  1.00  0.00    -0.212 P  
HETATM   29  O   UNL     1      -9.397   3.697  72.317  1.00  0.00    -0.112 OA 
HETATM   30  O   UNL     1     -11.483   3.914  73.370  1.00  0.00    -0.223 OA 
HETATM   31  O   UNL     1      -9.704   5.091  74.317  1.00  0.00    -0.133 OA 
ENDBRANCH  26  27
ENDBRANCH  21  26
ENDBRANCH  16  20
ENDBRANCH  10  13
ENDBRANCH   5   7
TORSDOF 5
ENDMDL
MODEL       62
REMARK 921   NORMALIZED FREE ENERGY PREDICTED BY IDOCK:   -5.53 KCAL/MOL
REMARK 922        TOTAL FREE ENERGY PREDICTED BY IDOCK:   -7.90 KCAL/MOL
REMARK 923 INTER-LIGAND FREE ENERGY PREDICTED BY IDOCK:   -7.02 KCAL/MOL
REMARK 924 INTRA-LIGAND FREE ENERGY PREDICTED BY IDOCK:   -0.88 KCAL/MOL
REMARK 927      BINDING AFFINITY PREDICTED BY RF-SCORE:    0.00 PKD
ROOT
HETATM    1  C   UNL     1     -12.804  15.993  73.683  1.00  0.00    -0.595 C  
HETATM    2  N   UNL     1     -12.938  14.917  72.738  1.00  0.00    -0.410 NA 
HETATM    3  N   UNL     1     -13.965  14.062  72.785  1.00  0.00    -0.644 NA 
HETATM    4  N   UNL     1     -13.738  13.213  71.792  1.00  0.00    -0.251 NA 
HETATM    5  C   UNL     1     -12.561  13.605  71.186  1.00  0.00    -0.371 A  
HETATM    6  N   UNL     1     -12.026  14.698  71.773  1.00  0.00    -0.330 NA 
ENDROOT
BRANCH   5   7
HETATM    7  C   UNL     1     -12.004  12.916  70.022  1.00  0.00    -0.309 A  
HETATM    8  C   UNL     1     -12.056  11.531  69.908  1.00  0.00    -0.389 A  
HETATM    9  C   UNL     1     -11.432  10.914  68.817  1.00  0.00    -0.376 A  
HETATM   10  C   UNL     1     -10.749  11.672  67.855  1.00  0.00    -0.241 A  
HETATM   11  N   UNL     1     -11.401  13.686  69.085  1.00  0.00    -0.273 NA 
HETATM   12  C   UNL     1     -10.801  13.056  68.045  1.00  0.00    -0.242 A  
BRANCH  10  13
HETATM   13  C   UNL     1      -9.947  11.058  66.773  1.00  0.00    -0.240 A  
HETATM   14  C   UNL     1     -10.359  11.141  65.433  1.00  0.00    -0.331 A  
HETATM   15  C   UNL     1      -9.685  10.459  64.409  1.00  0.00    -0.396 A  
HETATM   16  C   UNL     1      -8.565   9.669  64.677  1.00  0.00    -0.183 A  
HETATM   17  F   UNL     1      -8.302  10.187  68.259  1.00  0.00    -0.108 F  
HETATM   18  C   UNL     1      -8.118   9.612  65.999  1.00  0.00    -0.112 A  
HETATM   19  C   UNL     1      -8.796  10.295  67.015  1.00  0.00    -0.136 A  
BRANCH  16  20
HETATM   20  N   UNL     1      -7.890   8.977  63.646  1.00  0.00    -0.129 N  
HETATM   21  C   UNL     1      -7.323   7.162  62.398  1.00  0.00    -0.081 C  
HETATM   22  C   UNL     1      -8.511   8.008  62.789  1.00  0.00     0.032 C  
HETATM   23  O   UNL     1      -6.253   8.113  62.355  1.00  0.00    -0.084 OA 
HETATM   24  O   UNL     1      -5.717   9.892  63.661  1.00  0.00    -0.094 OA 
HETATM   25  C   UNL     1      -6.552   9.095  63.275  1.00  0.00    -0.090 C  
BRANCH  21  26
HETATM   26  C   UNL     1      -6.984   6.088  63.434  1.00  0.00    -0.045 C  
BRANCH  26  27
HETATM   27  O   UNL     1      -8.044   5.915  64.364  1.00  0.00    -0.128 OA 
HETATM   28  P   UNL     1      -8.790   4.360  64.222  1.00  0.00    -0.147 P  
HETATM   29  O   UNL     1      -7.657   3.874  65.299  1.00  0.00    -0.079 OA 
HETATM   30  O   UNL     1      -9.458   2.969  64.097  1.00  0.00    -0.127 OA 
HETATM   31  O   UNL     1      -9.880   4.922  65.303  1.00  0.00    -0.108 OA 
ENDBRANCH  26  27
ENDBRANCH  21  26
ENDBRANCH  16  20
ENDBRANCH  10  13
ENDBRANCH   5   7
TORSDOF 5
ENDMDL
MODEL       63
REMARK 921   NORMALIZED FREE ENERGY PREDICTED BY IDOCK:   -5.51 KCAL/MOL
REMARK 922        TOTAL FREE ENERGY PREDICTED BY IDOCK:   -7.88 KCAL/MOL
REMARK 923 INTER-LIGAND FREE ENERGY PREDICTED BY IDOCK:   -6.99 KCAL/MOL
REMARK 924 INTRA-LIGAND FREE ENERGY PREDICTED BY IDOCK:   -0.89 KCAL/MOL
REMARK 927      BINDING AFFINITY PREDICTED BY RF-SCORE:    0.00 PKD
ROOT
HETATM    1  C   UNL     1      -9.139   3.685  65.953  1.00  0.00    -0.153 C  
HETATM    2  N   UNL     1      -9.615   5.001  66.286  1.00  0.00    -0.154 NA 
HETATM    3  N   UNL     1     -10.880   5.218  66.661  1.00  0.00    -0.194 NA 
HETATM    4  N   UNL     1     -10.950   6.527  66.857  1.00  0.00    -0.384 NA 
HETATM    5  C   UNL     1      -9.700   7.045  66.582  1.00  0.00    -0.166 A  
HETATM    6  N   UNL     1      -8.823   6.085  66.214  1.00  0.00    -0.137 NA 
ENDROOT
BRANCH   5   7
HETATM    7  C   UNL     1      -9.386   8.467  66.719  1.00  0.00    -0.184 A  
HETATM    8  C   UNL     1      -9.369   9.313  65.616  1.00  0.00    -0.308 A  
HETATM    9  C   UNL     1      -8.977  10.646  65.787  1.00  0.00    -0.200 A  
HETATM   10  C   UNL     1      -8.590  11.127  67.046  1.00  0.00    -0.147 A  
HETATM   11  N   UNL     1      -9.071   8.907  67.961  1.00  0.00    -0.139 NA 
HETATM   12  C   UNL     1      -8.689  10.202  68.090  1.00  0.00    -0.122 A  
BRANCH  10  13
HETATM   13  C   UNL     1      -8.023  12.480  67.248  1.00  0.00    -0.173 A  
HETATM   14  C   UNL     1      -6.671  12.654  67.581  1.00  0.00    -0.144 A  
HETATM   15  C   UNL     1      -6.145  13.914  67.902  1.00  0.00    -0.153 A  
HETATM   16  C   UNL     1      -6.945  15.058  67.896  1.00  0.00    -0.156 A  
HETATM   17  F   UNL     1     -10.096  13.588  66.859  1.00  0.00    -0.240 F  
HETATM   18  C   UNL     1      -8.282  14.907  67.524  1.00  0.00    -0.199 A  
HETATM   19  C   UNL     1      -8.800  13.647  67.205  1.00  0.00    -0.224 A  
BRANCH  16  20
HETATM   20  N   UNL     1      -6.416  16.327  68.225  1.00  0.00    -0.124 N  
HETATM   21  C   UNL     1      -6.406  18.368  69.229  1.00  0.00    -0.260 C  
HETATM   22  C   UNL     1      -6.447  16.892  69.543  1.00  0.00    -0.223 C  
HETATM   23  O   UNL     1      -5.594  18.421  68.050  1.00  0.00    -0.163 OA 
HETATM   24  O   UNL     1      -5.449  17.091  66.215  1.00  0.00    -0.341 OA 
HETATM   25  C   UNL     1      -5.788  17.235  67.375  1.00  0.00    -0.139 C  
BRANCH  21  26
HETATM   26  C   UNL     1      -7.782  18.951  68.902  1.00  0.00    -0.286 C  
BRANCH  26  27
HETATM   27  O   UNL     1      -7.782  19.598  67.638  1.00  0.00    -0.261 OA 
HETATM   28  P   UNL     1      -9.078  19.060  66.627  1.00  0.00    -0.342 P  
HETATM   29  O   UNL     1      -9.940  20.258  67.332  1.00  0.00    -0.410 OA 
HETATM   30  O   UNL     1     -10.238  18.578  65.722  1.00  0.00    -0.568 OA 
HETATM   31  O   UNL     1      -8.378  19.963  65.458  1.00  0.00    -0.294 OA 
ENDBRANCH  26  27
ENDBRANCH  21  26
ENDBRANCH  16  20
ENDBRANCH  10  13
ENDBRANCH   5   7
TORSDOF 5
ENDMDL
MODEL       64
REMARK 921   NORMALIZED FREE ENERGY PREDICTED BY IDOCK:   -5.50 KCAL/MOL
REMARK 922        TOTAL FREE ENERGY PREDICTED BY IDOCK:   -7.87 KCAL/MOL
REMARK 923 INTER-LIGAND FREE ENERGY PREDICTED BY IDOCK:   -7.09 KCAL/MOL
REMARK 924 INTRA-LIGAND FREE ENERGY PREDICTED BY IDOCK:   -0.79 KCAL/MOL
REMARK 927      BINDING AFFINITY PREDICTED BY RF-SCORE:    0.00 PKD
ROOT
HETATM    1  C   UNL     1      -9.908   2.769  71.326  1.00  0.00    -0.059 C  
HETATM    2  N   UNL     1      -9.608   3.899  70.490  1.00  0.00    -0.182 NA 
HETATM    3  N   UNL     1      -8.709   3.826  69.502  1.00  0.00    -0.074 NA 
HETATM    4  N   UNL     1      -8.686   5.044  68.981  1.00  0.00    -0.088 NA 
HETATM    5  C   UNL     1      -9.586   5.807  69.696  1.00  0.00    -0.152 A  
HETATM    6  N   UNL     1     -10.194   5.096  70.671  1.00  0.00    -0.253 NA 
ENDROOT
BRANCH   5   7
HETATM    7  C   UNL     1      -9.856   7.211  69.384  1.00  0.00    -0.161 A  
HETATM    8  C   UNL     1     -10.207   7.612  68.100  1.00  0.00    -0.236 A  
HETATM    9  C   UNL     1     -10.369   8.976  67.833  1.00  0.00    -0.290 A  
HETATM   10  C   UNL     1     -10.167   9.935  68.836  1.00  0.00    -0.209 A  
HETATM   11  N   UNL     1      -9.705   8.103  70.392  1.00  0.00    -0.177 NA 
HETATM   12  C   UNL     1      -9.862   9.417  70.098  1.00  0.00    -0.232 A  
BRANCH  10  13
HETATM   13  C   UNL     1     -10.176  11.390  68.566  1.00  0.00    -0.216 A  
HETATM   14  C   UNL     1      -8.980  12.088  68.331  1.00  0.00    -0.153 A  
HETATM   15  C   UNL     1      -8.953  13.485  68.201  1.00  0.00    -0.187 A  
HETATM   16  C   UNL     1     -10.120  14.246  68.293  1.00  0.00    -0.238 A  
HETATM   17  F   UNL     1     -12.538  11.588  68.795  1.00  0.00    -0.174 F  
HETATM   18  C   UNL     1     -11.322  13.562  68.484  1.00  0.00    -0.327 A  
HETATM   19  C   UNL     1     -11.342  12.169  68.612  1.00  0.00    -0.280 A  
BRANCH  16  20
HETATM   20  N   UNL     1     -10.092  15.654  68.169  1.00  0.00    -0.221 N  
HETATM   21  C   UNL     1      -9.138  17.676  67.753  1.00  0.00    -0.247 C  
HETATM   22  C   UNL     1      -9.443  16.352  67.096  1.00  0.00    -0.231 C  
HETATM   23  O   UNL     1     -10.246  17.855  68.643  1.00  0.00    -0.372 OA 
HETATM   24  O   UNL     1     -11.405  16.422  69.969  1.00  0.00    -0.312 OA 
HETATM   25  C   UNL     1     -10.664  16.596  69.020  1.00  0.00    -0.343 C  
BRANCH  21  26
HETATM   26  C   UNL     1      -7.848  17.656  68.576  1.00  0.00    -0.282 C  
BRANCH  26  27
HETATM   27  O   UNL     1      -6.766  18.227  67.853  1.00  0.00    -0.202 OA 
HETATM   28  P   UNL     1      -7.050  19.886  67.454  1.00  0.00    -0.256 P  
HETATM   29  O   UNL     1      -6.359  20.207  68.902  1.00  0.00    -0.297 OA 
HETATM   30  O   UNL     1      -7.303  21.371  67.096  1.00  0.00    -0.466 OA 
HETATM   31  O   UNL     1      -5.672  19.783  66.581  1.00  0.00    -0.170 OA 
ENDBRANCH  26  27
ENDBRANCH  21  26
ENDBRANCH  16  20
ENDBRANCH  10  13
ENDBRANCH   5   7
TORSDOF 5
ENDMDL
MODEL       65
REMARK 921   NORMALIZED FREE ENERGY PREDICTED BY IDOCK:   -5.46 KCAL/MOL
REMARK 922        TOTAL FREE ENERGY PREDICTED BY IDOCK:   -7.82 KCAL/MOL
REMARK 923 INTER-LIGAND FREE ENERGY PREDICTED BY IDOCK:   -7.04 KCAL/MOL
REMARK 924 INTRA-LIGAND FREE ENERGY PREDICTED BY IDOCK:   -0.78 KCAL/MOL
REMARK 927      BINDING AFFINITY PREDICTED BY RF-SCORE:    0.00 PKD
ROOT
HETATM    1  C   UNL     1      -7.162   1.541  62.915  1.00  0.00    -0.031 C  
HETATM    2  N   UNL     1      -8.012   2.202  63.868  1.00  0.00    -0.071 NA 
HETATM    3  N   UNL     1      -8.967   1.545  64.535  1.00  0.00    -0.102 NA 
HETATM    4  N   UNL     1      -9.545   2.470  65.287  1.00  0.00     0.020 NA 
HETATM    5  C   UNL     1      -8.900   3.663  65.029  1.00  0.00    -0.123 A  
HETATM    6  N   UNL     1      -7.909   3.519  64.122  1.00  0.00    -0.080 NA 
ENDROOT
BRANCH   5   7
HETATM    7  C   UNL     1      -9.249   4.912  65.705  1.00  0.00    -0.154 A  
HETATM    8  C   UNL     1     -10.542   5.154  66.156  1.00  0.00    -0.293 A  
HETATM    9  C   UNL     1     -10.846   6.399  66.718  1.00  0.00    -0.361 A  
HETATM   10  C   UNL     1      -9.870   7.402  66.816  1.00  0.00    -0.290 A  
HETATM   11  N   UNL     1      -8.266   5.836  65.832  1.00  0.00    -0.116 NA 
HETATM   12  C   UNL     1      -8.596   7.034  66.374  1.00  0.00    -0.135 A  
BRANCH  10  13
HETATM   13  C   UNL     1     -10.179   8.780  67.259  1.00  0.00    -0.332 A  
HETATM   14  C   UNL     1     -10.127   9.857  66.359  1.00  0.00    -0.308 A  
HETATM   15  C   UNL     1     -10.290  11.184  66.784  1.00  0.00    -0.284 A  
HETATM   16  C   UNL     1     -10.520  11.494  68.126  1.00  0.00    -0.193 A  
HETATM   17  F   UNL     1     -10.562   8.146  69.523  1.00  0.00    -0.218 F  
HETATM   18  C   UNL     1     -10.618  10.430  69.025  1.00  0.00    -0.247 A  
HETATM   19  C   UNL     1     -10.455   9.109  68.594  1.00  0.00    -0.207 A  
BRANCH  16  20
HETATM   20  N   UNL     1     -10.678  12.831  68.555  1.00  0.00    -0.248 N  
HETATM   21  C   UNL     1     -11.771  14.811  68.801  1.00  0.00    -0.323 C  
HETATM   22  C   UNL     1     -11.877  13.346  69.152  1.00  0.00    -0.336 C  
HETATM   23  O   UNL     1     -10.359  15.048  68.838  1.00  0.00    -0.228 OA 
HETATM   24  O   UNL     1      -8.571  13.816  68.171  1.00  0.00    -0.160 OA 
HETATM   25  C   UNL     1      -9.745  13.863  68.489  1.00  0.00    -0.202 C  
BRANCH  21  26
HETATM   26  C   UNL     1     -12.285  15.130  67.396  1.00  0.00     0.416 C  
BRANCH  26  27
HETATM   27  O   UNL     1     -12.500  13.944  66.643  1.00  0.00    -0.407 OA 
HETATM   28  P   UNL     1     -12.478  14.239  64.939  1.00  0.00    -0.215 P  
HETATM   29  O   UNL     1     -10.868  13.972  65.054  1.00  0.00    -0.346 OA 
HETATM   30  O   UNL     1     -12.459  14.502  63.413  1.00  0.00    -0.649 OA 
HETATM   31  O   UNL     1     -12.940  12.678  64.788  1.00  0.00    -0.816 OA 
ENDBRANCH  26  27
ENDBRANCH  21  26
ENDBRANCH  16  20
ENDBRANCH  10  13
ENDBRANCH   5   7
TORSDOF 5
ENDMDL
MODEL       66
REMARK 921   NORMALIZED FREE ENERGY PREDICTED BY IDOCK:   -5.37 KCAL/MOL
REMARK 922        TOTAL FREE ENERGY PREDICTED BY IDOCK:   -7.70 KCAL/MOL
REMARK 923 INTER-LIGAND FREE ENERGY PREDICTED BY IDOCK:   -7.65 KCAL/MOL
REMARK 924 INTRA-LIGAND FREE ENERGY PREDICTED BY IDOCK:   -0.05 KCAL/MOL
REMARK 927      BINDING AFFINITY PREDICTED BY RF-SCORE:    0.00 PKD
ROOT
HETATM    1  C   UNL     1      -7.325   1.475  68.001  1.00  0.00    -0.046 C  
HETATM    2  N   UNL     1      -8.046   2.317  68.918  1.00  0.00    -0.051 NA 
HETATM    3  N   UNL     1      -8.329   1.922  70.163  1.00  0.00    -0.041 NA 
HETATM    4  N   UNL     1      -9.009   2.931  70.687  1.00  0.00    -0.089 NA 
HETATM    5  C   UNL     1      -9.109   3.902  69.711  1.00  0.00    -0.120 A  
HETATM    6  N   UNL     1      -8.497   3.534  68.564  1.00  0.00    -0.081 NA 
ENDROOT
BRANCH   5   7
HETATM    7  C   UNL     1      -9.773   5.186  69.937  1.00  0.00    -0.199 A  
HETATM    8  C   UNL     1     -10.778   5.639  69.089  1.00  0.00    -0.325 A  
HETATM    9  C   UNL     1     -11.321   6.912  69.297  1.00  0.00    -0.132 A  
HETATM   10  C   UNL     1     -10.856   7.732  70.335  1.00  0.00    -0.248 A  
HETATM   11  N   UNL     1      -9.335   5.927  70.983  1.00  0.00    -0.159 NA 
HETATM   12  C   UNL     1      -9.878   7.158  71.151  1.00  0.00    -0.179 A  
BRANCH  10  13
HETATM   13  C   UNL     1     -11.289   9.138  70.499  1.00  0.00    -0.300 A  
HETATM   14  C   UNL     1     -12.299   9.481  71.412  1.00  0.00    -0.451 A  
HETATM   15  C   UNL     1     -12.812  10.784  71.492  1.00  0.00    -0.567 A  
HETATM   16  C   UNL     1     -12.335  11.805  70.668  1.00  0.00    -0.328 A  
HETATM   17  F   UNL     1      -9.799   9.967  68.836  1.00  0.00    -0.159 F  
HETATM   18  C   UNL     1     -11.300  11.489  69.786  1.00  0.00    -0.303 A  
HETATM   19  C   UNL     1     -10.792  10.187  69.712  1.00  0.00    -0.279 A  
BRANCH  16  20
HETATM   20  N   UNL     1     -12.857  13.116  70.744  1.00  0.00    -0.158 N  
HETATM   21  C   UNL     1     -12.786  15.384  70.588  1.00  0.00    -0.430 C  
HETATM   22  C   UNL     1     -12.619  14.133  69.760  1.00  0.00    -0.103 C  
HETATM   23  O   UNL     1     -13.796  15.011  71.532  1.00  0.00    -0.408 OA 
HETATM   24  O   UNL     1     -14.201  13.094  72.681  1.00  0.00    -0.677 OA 
HETATM   25  C   UNL     1     -13.668  13.654  71.740  1.00  0.00    -0.331 C  
BRANCH  21  26
HETATM   26  C   UNL     1     -11.519  15.772  71.353  1.00  0.00    -0.429 C  
BRANCH  26  27
HETATM   27  O   UNL     1     -10.365  15.650  70.534  1.00  0.00    -0.240 OA 
HETATM   28  P   UNL     1     -10.585  16.377  68.980  1.00  0.00    -0.349 P  
HETATM   29  O   UNL     1     -10.034  17.742  69.696  1.00  0.00     0.066 OA 
HETATM   30  O   UNL     1     -10.782  17.029  67.589  1.00  0.00    -0.342 OA 
HETATM   31  O   UNL     1      -9.130  15.732  68.608  1.00  0.00    -0.185 OA 
ENDBRANCH  26  27
ENDBRANCH  21  26
ENDBRANCH  16  20
ENDBRANCH  10  13
ENDBRANCH   5   7
TORSDOF 5
ENDMDL
MODEL       67
REMARK 921   NORMALIZED FREE ENERGY PREDICTED BY IDOCK:   -5.36 KCAL/MOL
REMARK 922        TOTAL FREE ENERGY PREDICTED BY IDOCK:   -7.69 KCAL/MOL
REMARK 923 INTER-LIGAND FREE ENERGY PREDICTED BY IDOCK:   -7.09 KCAL/MOL
REMARK 924 INTRA-LIGAND FREE ENERGY PREDICTED BY IDOCK:   -0.59 KCAL/MOL
REMARK 927      BINDING AFFINITY PREDICTED BY RF-SCORE:    0.00 PKD
ROOT
HETATM    1  C   UNL     1      -8.450   1.517  73.634  1.00  0.00    -0.053 C  
HETATM    2  N   UNL     1      -9.207   2.733  73.500  1.00  0.00    -0.084 NA 
HETATM    3  N   UNL     1     -10.137   3.086  74.393  1.00  0.00    -0.129 NA 
HETATM    4  N   UNL     1     -10.628   4.227  73.931  1.00  0.00    -0.220 NA 
HETATM    5  C   UNL     1      -9.959   4.508  72.757  1.00  0.00    -0.160 A  
HETATM    6  N   UNL     1      -9.039   3.565  72.456  1.00  0.00    -0.095 NA 
ENDROOT
BRANCH   5   7
HETATM    7  C   UNL     1     -10.215   5.716  71.972  1.00  0.00    -0.205 A  
HETATM    8  C   UNL     1      -9.814   5.814  70.644  1.00  0.00    -0.240 A  
HETATM    9  C   UNL     1     -10.003   7.022  69.963  1.00  0.00    -0.188 A  
HETATM   10  C   UNL     1     -10.575   8.129  70.606  1.00  0.00    -0.229 A  
HETATM   11  N   UNL     1     -10.820   6.746  72.611  1.00  0.00    -0.238 NA 
HETATM   12  C   UNL     1     -10.982   7.904  71.924  1.00  0.00    -0.256 A  
BRANCH  10  13
HETATM   13  C   UNL     1     -10.655   9.467  69.978  1.00  0.00    -0.280 A  
HETATM   14  C   UNL     1     -11.893  10.095  69.771  1.00  0.00    -0.158 A  
HETATM   15  C   UNL     1     -12.001  11.302  69.064  1.00  0.00    -0.393 A  
HETATM   16  C   UNL     1     -10.876  11.939  68.538  1.00  0.00    -0.221 A  
HETATM   17  F   UNL     1      -8.300   9.643  69.661  1.00  0.00    -0.110 F  
HETATM   18  C   UNL     1      -9.632  11.349  68.773  1.00  0.00    -0.139 A  
HETATM   19  C   UNL     1      -9.532  10.145  69.480  1.00  0.00    -0.214 A  
BRANCH  16  20
HETATM   20  N   UNL     1     -10.985  13.152  67.820  1.00  0.00    -0.245 N  
HETATM   21  C   UNL     1     -10.994  15.412  67.564  1.00  0.00    -0.315 C  
HETATM   22  C   UNL     1     -10.105  14.271  67.997  1.00  0.00    -0.227 C  
HETATM   23  O   UNL     1     -11.795  14.820  66.534  1.00  0.00    -0.332 OA 
HETATM   24  O   UNL     1     -12.757  12.775  66.312  1.00  0.00    -0.222 OA 
HETATM   25  C   UNL     1     -11.921  13.483  66.844  1.00  0.00    -0.399 C  
BRANCH  21  26
HETATM   26  C   UNL     1     -11.918  15.909  68.677  1.00  0.00    -0.094 C  
BRANCH  26  27
HETATM   27  O   UNL     1     -11.533  15.384  69.940  1.00  0.00    -0.264 OA 
HETATM   28  P   UNL     1     -12.871  15.254  71.029  1.00  0.00    -0.474 P  
HETATM   29  O   UNL     1     -13.075  13.766  70.380  1.00  0.00    -0.096 OA 
HETATM   30  O   UNL     1     -14.068  15.138  72.004  1.00  0.00    -0.458 OA 
HETATM   31  O   UNL     1     -11.757  14.843  72.153  1.00  0.00    -0.353 OA 
ENDBRANCH  26  27
ENDBRANCH  21  26
ENDBRANCH  16  20
ENDBRANCH  10  13
ENDBRANCH   5   7
TORSDOF 5
ENDMDL
MODEL       68
REMARK 921   NORMALIZED FREE ENERGY PREDICTED BY IDOCK:   -5.34 KCAL/MOL
REMARK 922        TOTAL FREE ENERGY PREDICTED BY IDOCK:   -7.66 KCAL/MOL
REMARK 923 INTER-LIGAND FREE ENERGY PREDICTED BY IDOCK:   -6.87 KCAL/MOL
REMARK 924 INTRA-LIGAND FREE ENERGY PREDICTED BY IDOCK:   -0.79 KCAL/MOL
REMARK 927      BINDING AFFINITY PREDICTED BY RF-SCORE:    0.00 PKD
ROOT
HETATM    1  C   UNL     1      -5.145   1.474  65.375  1.00  0.00    -0.004 C  
HETATM    2  N   UNL     1      -6.080   2.367  66.006  1.00  0.00    -0.023 NA 
HETATM    3  N   UNL     1      -6.804   1.995  67.066  1.00  0.00    -0.039 NA 
HETATM    4  N   UNL     1      -7.553   3.052  67.346  1.00  0.00    -0.065 NA 
HETATM    5  C   UNL     1      -7.240   4.026  66.420  1.00  0.00    -0.068 A  
HETATM    6  N   UNL     1      -6.295   3.613  65.547  1.00  0.00    -0.031 NA 
ENDROOT
BRANCH   5   7
HETATM    7  C   UNL     1      -7.851   5.355  66.433  1.00  0.00    -0.100 A  
HETATM    8  C   UNL     1      -9.175   5.538  66.819  1.00  0.00    -0.129 A  
HETATM    9  C   UNL     1      -9.739   6.816  66.730  1.00  0.00    -0.222 A  
HETATM   10  C   UNL     1      -8.993   7.900  66.247  1.00  0.00    -0.207 A  
HETATM   11  N   UNL     1      -7.083   6.388  66.012  1.00  0.00    -0.065 NA 
HETATM   12  C   UNL     1      -7.663   7.611  65.932  1.00  0.00    -0.098 A  
BRANCH  10  13
HETATM   13  C   UNL     1      -9.588   9.232  65.991  1.00  0.00    -0.338 A  
HETATM   14  C   UNL     1      -9.627   9.768  64.695  1.00  0.00    -0.244 A  
HETATM   15  C   UNL     1     -10.068  11.077  64.449  1.00  0.00    -0.393 A  
HETATM   16  C   UNL     1     -10.497  11.906  65.488  1.00  0.00    -0.268 A  
HETATM   17  F   UNL     1     -10.103   9.627  68.283  1.00  0.00    -0.167 F  
HETATM   18  C   UNL     1     -10.506  11.371  66.778  1.00  0.00    -0.284 A  
HETATM   19  C   UNL     1     -10.064  10.064  67.015  1.00  0.00    -0.219 A  
BRANCH  16  20
HETATM   20  N   UNL     1     -10.936  13.227  65.242  1.00  0.00    -0.286 N  
HETATM   21  C   UNL     1     -10.985  15.481  65.540  1.00  0.00    -0.324 C  
HETATM   22  C   UNL     1     -10.059  14.358  65.139  1.00  0.00    -0.326 C  
HETATM   23  O   UNL     1     -12.252  15.048  65.031  1.00  0.00    -0.222 OA 
HETATM   24  O   UNL     1     -13.265  13.018  64.940  1.00  0.00    -0.735 OA 
HETATM   25  C   UNL     1     -12.243  13.670  65.055  1.00  0.00    -0.421 C  
BRANCH  21  26
HETATM   26  C   UNL     1     -11.098  15.654  67.056  1.00  0.00    -0.200 C  
BRANCH  26  27
HETATM   27  O   UNL     1     -10.850  16.999  67.441  1.00  0.00    -0.281 OA 
HETATM   28  P   UNL     1      -9.313  17.184  68.214  1.00  0.00    -0.280 P  
HETATM   29  O   UNL     1      -8.738  17.426  66.701  1.00  0.00    -0.237 OA 
HETATM   30  O   UNL     1      -7.938  17.351  68.906  1.00  0.00    -0.256 OA 
HETATM   31  O   UNL     1      -9.786  18.721  68.508  1.00  0.00    -0.339 OA 
ENDBRANCH  26  27
ENDBRANCH  21  26
ENDBRANCH  16  20
ENDBRANCH  10  13
ENDBRANCH   5   7
TORSDOF 5
ENDMDL
MODEL       69
REMARK 921   NORMALIZED FREE ENERGY PREDICTED BY IDOCK:   -5.31 KCAL/MOL
REMARK 922        TOTAL FREE ENERGY PREDICTED BY IDOCK:   -7.62 KCAL/MOL
REMARK 923 INTER-LIGAND FREE ENERGY PREDICTED BY IDOCK:   -7.02 KCAL/MOL
REMARK 924 INTRA-LIGAND FREE ENERGY PREDICTED BY IDOCK:   -0.60 KCAL/MOL
REMARK 927      BINDING AFFINITY PREDICTED BY RF-SCORE:    0.00 PKD
ROOT
HETATM    1  C   UNL     1      -7.745  20.410  65.724  1.00  0.00    -0.009 C  
HETATM    2  N   UNL     1      -8.691  19.354  65.967  1.00  0.00    -0.437 NA 
HETATM    3  N   UNL     1      -9.975  19.463  65.614  1.00  0.00    -0.374 NA 
HETATM    4  N   UNL     1     -10.529  18.327  66.014  1.00  0.00    -0.521 NA 
HETATM    5  C   UNL     1      -9.532  17.577  66.603  1.00  0.00    -0.275 A  
HETATM    6  N   UNL     1      -8.340  18.212  66.586  1.00  0.00    -0.255 NA 
ENDROOT
BRANCH   5   7
HETATM    7  C   UNL     1      -9.766  16.236  67.140  1.00  0.00    -0.238 A  
HETATM    8  C   UNL     1      -9.175  15.821  68.329  1.00  0.00    -0.188 A  
HETATM    9  C   UNL     1      -9.359  14.501  68.755  1.00  0.00    -0.177 A  
HETATM   10  C   UNL     1     -10.114  13.597  67.994  1.00  0.00    -0.250 A  
HETATM   11  N   UNL     1     -10.546  15.408  66.405  1.00  0.00    -0.302 NA 
HETATM   12  C   UNL     1     -10.697  14.134  66.843  1.00  0.00    -0.286 A  
BRANCH  10  13
HETATM   13  C   UNL     1     -10.209  12.156  68.323  1.00  0.00    -0.209 A  
HETATM   14  C   UNL     1     -11.230  11.671  69.155  1.00  0.00    -0.325 A  
HETATM   15  C   UNL     1     -11.264  10.335  69.582  1.00  0.00    -0.322 A  
HETATM   16  C   UNL     1     -10.283   9.423  69.191  1.00  0.00    -0.202 A  
HETATM   17  F   UNL     1      -8.263  11.573  67.078  1.00  0.00    -0.138 F  
HETATM   18  C   UNL     1      -9.284   9.880  68.328  1.00  0.00    -0.130 A  
HETATM   19  C   UNL     1      -9.257  11.214  67.906  1.00  0.00    -0.154 A  
BRANCH  16  20
HETATM   20  N   UNL     1     -10.313   8.078  69.626  1.00  0.00    -0.216 N  
HETATM   21  C   UNL     1     -10.051   5.829  69.418  1.00  0.00    -0.213 C  
HETATM   22  C   UNL     1      -9.277   7.123  69.355  1.00  0.00    -0.148 C  
HETATM   23  O   UNL     1     -11.039   6.094  70.420  1.00  0.00    -0.309 OA 
HETATM   24  O   UNL     1     -12.285   7.929  70.910  1.00  0.00    -0.243 OA 
HETATM   25  C   UNL     1     -11.305   7.446  70.372  1.00  0.00    -0.249 C  
BRANCH  21  26
HETATM   26  C   UNL     1     -10.762   5.491  68.106  1.00  0.00    -0.083 C  
BRANCH  26  27
HETATM   27  O   UNL     1     -10.049   5.997  66.987  1.00  0.00    -0.146 OA 
HETATM   28  P   UNL     1      -9.075   4.785  66.229  1.00  0.00    -0.138 P  
HETATM   29  O   UNL     1     -10.411   4.468  65.338  1.00  0.00    -0.239 OA 
HETATM   30  O   UNL     1      -8.203   3.701  65.550  1.00  0.00    -0.096 OA 
HETATM   31  O   UNL     1      -8.493   6.004  65.309  1.00  0.00    -0.148 OA 
ENDBRANCH  26  27
ENDBRANCH  21  26
ENDBRANCH  16  20
ENDBRANCH  10  13
ENDBRANCH   5   7
TORSDOF 5
ENDMDL
MODEL       70
REMARK 921   NORMALIZED FREE ENERGY PREDICTED BY IDOCK:   -5.30 KCAL/MOL
REMARK 922        TOTAL FREE ENERGY PREDICTED BY IDOCK:   -7.61 KCAL/MOL
REMARK 923 INTER-LIGAND FREE ENERGY PREDICTED BY IDOCK:   -6.86 KCAL/MOL
REMARK 924 INTRA-LIGAND FREE ENERGY PREDICTED BY IDOCK:   -0.75 KCAL/MOL
REMARK 927      BINDING AFFINITY PREDICTED BY RF-SCORE:    0.00 PKD
ROOT
HETATM    1  C   UNL     1      -8.273  20.463  67.298  1.00  0.00    -0.336 C  
HETATM    2  N   UNL     1      -9.155  19.332  67.399  1.00  0.00    -0.291 NA 
HETATM    3  N   UNL     1     -10.375  19.435  67.937  1.00  0.00    -0.413 NA 
HETATM    4  N   UNL     1     -10.870  18.207  67.879  1.00  0.00    -0.301 NA 
HETATM    5  C   UNL     1      -9.904  17.408  67.303  1.00  0.00    -0.278 A  
HETATM    6  N   UNL     1      -8.792  18.105  66.983  1.00  0.00    -0.256 NA 
ENDROOT
BRANCH   5   7
HETATM    7  C   UNL     1     -10.108  15.982  67.047  1.00  0.00    -0.271 A  
HETATM    8  C   UNL     1     -11.336  15.373  67.282  1.00  0.00    -0.220 A  
HETATM    9  C   UNL     1     -11.455  13.990  67.104  1.00  0.00    -0.373 A  
HETATM   10  C   UNL     1     -10.354  13.217  66.709  1.00  0.00    -0.257 A  
HETATM   11  N   UNL     1      -9.036  15.278  66.612  1.00  0.00    -0.271 NA 
HETATM   12  C   UNL     1      -9.184  13.939  66.457  1.00  0.00    -0.200 A  
BRANCH  10  13
HETATM   13  C   UNL     1     -10.390  11.738  66.657  1.00  0.00    -0.251 A  
HETATM   14  C   UNL     1     -10.662  10.982  67.808  1.00  0.00    -0.270 A  
HETATM   15  C   UNL     1     -10.576   9.582  67.810  1.00  0.00    -0.318 A  
HETATM   16  C   UNL     1     -10.220   8.874  66.660  1.00  0.00    -0.268 A  
HETATM   17  F   UNL     1      -9.839  11.639  64.342  1.00  0.00    -0.247 F  
HETATM   18  C   UNL     1      -9.989   9.610  65.496  1.00  0.00    -0.279 A  
HETATM   19  C   UNL     1     -10.077  11.007  65.502  1.00  0.00    -0.261 A  
BRANCH  16  20
HETATM   20  N   UNL     1     -10.126   7.464  66.664  1.00  0.00    -0.215 N  
HETATM   21  C   UNL     1     -10.235   5.384  67.578  1.00  0.00    -0.194 C  
HETATM   22  C   UNL     1     -11.085   6.597  67.286  1.00  0.00    -0.345 C  
HETATM   23  O   UNL     1      -9.316   5.365  66.480  1.00  0.00    -0.135 OA 
HETATM   24  O   UNL     1      -8.214   7.007  65.362  1.00  0.00    -0.129 OA 
HETATM   25  C   UNL     1      -9.134   6.674  66.088  1.00  0.00    -0.118 C  
BRANCH  21  26
HETATM   26  C   UNL     1      -9.440   5.508  68.880  1.00  0.00    -0.129 C  
BRANCH  26  27
HETATM   27  O   UNL     1      -8.322   4.632  68.887  1.00  0.00    -0.081 OA 
HETATM   28  P   UNL     1      -6.836   5.470  69.174  1.00  0.00    -0.061 P  
HETATM   29  O   UNL     1      -7.156   5.206  70.757  1.00  0.00    -0.055 OA 
HETATM   30  O   UNL     1      -5.506   6.220  69.432  1.00  0.00    -0.012 OA 
HETATM   31  O   UNL     1      -6.111   4.038  68.864  1.00  0.00    -0.026 OA 
ENDBRANCH  26  27
ENDBRANCH  21  26
ENDBRANCH  16  20
ENDBRANCH  10  13
ENDBRANCH   5   7
TORSDOF 5
ENDMDL
MODEL       71
REMARK 921   NORMALIZED FREE ENERGY PREDICTED BY IDOCK:   -5.25 KCAL/MOL
REMARK 922        TOTAL FREE ENERGY PREDICTED BY IDOCK:   -7.54 KCAL/MOL
REMARK 923 INTER-LIGAND FREE ENERGY PREDICTED BY IDOCK:   -7.17 KCAL/MOL
REMARK 924 INTRA-LIGAND FREE ENERGY PREDICTED BY IDOCK:   -0.38 KCAL/MOL
REMARK 927      BINDING AFFINITY PREDICTED BY RF-SCORE:    0.00 PKD
ROOT
HETATM    1  C   UNL     1     -10.547  19.936  65.546  1.00  0.00    -0.237 C  
HETATM    2  N   UNL     1     -10.568  18.774  66.392  1.00  0.00    -0.405 NA 
HETATM    3  N   UNL     1     -10.561  18.872  67.726  1.00  0.00    -0.417 NA 
HETATM    4  N   UNL     1     -10.559  17.618  68.153  1.00  0.00    -0.377 NA 
HETATM    5  C   UNL     1     -10.561  16.809  67.035  1.00  0.00    -0.234 A  
HETATM    6  N   UNL     1     -10.568  17.526  65.889  1.00  0.00    -0.419 NA 
ENDROOT
BRANCH   5   7
HETATM    7  C   UNL     1     -10.591  15.349  67.115  1.00  0.00    -0.305 A  
HETATM    8  C   UNL     1     -11.736  14.630  66.790  1.00  0.00    -0.355 A  
HETATM    9  C   UNL     1     -11.742  13.242  66.967  1.00  0.00    -0.439 A  
HETATM   10  C   UNL     1     -10.618  12.577  67.479  1.00  0.00    -0.238 A  
HETATM   11  N   UNL     1      -9.468  14.736  67.561  1.00  0.00    -0.196 NA 
HETATM   12  C   UNL     1      -9.510  13.391  67.727  1.00  0.00    -0.210 A  
BRANCH  10  13
HETATM   13  C   UNL     1     -10.629  11.138  67.827  1.00  0.00    -0.248 A  
HETATM   14  C   UNL     1     -10.758  10.719  69.161  1.00  0.00    -0.265 A  
HETATM   15  C   UNL     1     -10.642   9.369  69.526  1.00  0.00    -0.237 A  
HETATM   16  C   UNL     1     -10.398   8.377  68.574  1.00  0.00    -0.200 A  
HETATM   17  F   UNL     1     -10.329  10.420  65.576  1.00  0.00    -0.329 F  
HETATM   18  C   UNL     1     -10.310   8.774  67.238  1.00  0.00    -0.360 A  
HETATM   19  C   UNL     1     -10.427  10.122  66.881  1.00  0.00    -0.222 A  
BRANCH  16  20
HETATM   20  N   UNL     1     -10.274   7.018  68.942  1.00  0.00    -0.174 N  
HETATM   21  C   UNL     1      -9.326   5.236  69.989  1.00  0.00    -0.152 C  
HETATM   22  C   UNL     1      -9.970   6.572  70.272  1.00  0.00    -0.174 C  
HETATM   23  O   UNL     1     -10.035   4.777  68.832  1.00  0.00    -0.171 OA 
HETATM   24  O   UNL     1     -10.801   5.833  66.973  1.00  0.00    -0.291 OA 
HETATM   25  C   UNL     1     -10.420   5.898  68.128  1.00  0.00    -0.233 C  
BRANCH  21  26
HETATM   26  C   UNL     1      -7.840   5.346  69.642  1.00  0.00    -0.078 C  
BRANCH  26  27
HETATM   27  O   UNL     1      -7.055   4.483  70.452  1.00  0.00    -0.043 OA 
HETATM   28  P   UNL     1      -6.273   5.329  71.742  1.00  0.00    -0.033 P  
HETATM   29  O   UNL     1      -7.638   5.017  72.589  1.00  0.00    -0.092 OA 
HETATM   30  O   UNL     1      -5.572   6.086  72.897  1.00  0.00    -0.034 OA 
HETATM   31  O   UNL     1      -5.510   3.915  72.042  1.00  0.00     0.000 OA 
ENDBRANCH  26  27
ENDBRANCH  21  26
ENDBRANCH  16  20
ENDBRANCH  10  13
ENDBRANCH   5   7
TORSDOF 5
ENDMDL
MODEL       72
REMARK 921   NORMALIZED FREE ENERGY PREDICTED BY IDOCK:   -5.23 KCAL/MOL
REMARK 922        TOTAL FREE ENERGY PREDICTED BY IDOCK:   -7.52 KCAL/MOL
REMARK 923 INTER-LIGAND FREE ENERGY PREDICTED BY IDOCK:   -6.94 KCAL/MOL
REMARK 924 INTRA-LIGAND FREE ENERGY PREDICTED BY IDOCK:   -0.58 KCAL/MOL
REMARK 927      BINDING AFFINITY PREDICTED BY RF-SCORE:    0.00 PKD
ROOT
HETATM    1  C   UNL     1      -6.435   1.551  68.710  1.00  0.00    -0.025 C  
HETATM    2  N   UNL     1      -7.533   2.477  68.772  1.00  0.00    -0.047 NA 
HETATM    3  N   UNL     1      -8.794   2.065  68.936  1.00  0.00    -0.079 NA 
HETATM    4  N   UNL     1      -9.514   3.177  68.920  1.00  0.00    -0.158 NA 
HETATM    5  C   UNL     1      -8.635   4.226  68.738  1.00  0.00    -0.085 A  
HETATM    6  N   UNL     1      -7.355   3.805  68.642  1.00  0.00    -0.054 NA 
ENDROOT
BRANCH   5   7
HETATM    7  C   UNL     1      -9.068   5.623  68.698  1.00  0.00    -0.118 A  
HETATM    8  C   UNL     1      -8.265   6.643  69.196  1.00  0.00    -0.120 A  
HETATM    9  C   UNL     1      -8.760   7.951  69.214  1.00  0.00    -0.138 A  
HETATM   10  C   UNL     1     -10.054   8.238  68.754  1.00  0.00    -0.212 A  
HETATM   11  N   UNL     1     -10.301   5.868  68.195  1.00  0.00    -0.188 NA 
HETATM   12  C   UNL     1     -10.754   7.145  68.234  1.00  0.00    -0.153 A  
BRANCH  10  13
HETATM   13  C   UNL     1     -10.676   9.574  68.895  1.00  0.00    -0.220 A  
HETATM   14  C   UNL     1     -10.794  10.436  67.793  1.00  0.00    -0.351 A  
HETATM   15  C   UNL     1     -11.262  11.751  67.929  1.00  0.00    -0.331 A  
HETATM   16  C   UNL     1     -11.641  12.262  69.172  1.00  0.00    -0.318 A  
HETATM   17  F   UNL     1     -11.065   9.331  71.232  1.00  0.00    -0.315 F  
HETATM   18  C   UNL     1     -11.571  11.402  70.271  1.00  0.00    -0.334 A  
HETATM   19  C   UNL     1     -11.103  10.091  70.127  1.00  0.00    -0.310 A  
BRANCH  16  20
HETATM   20  N   UNL     1     -12.106  13.589  69.312  1.00  0.00    -0.316 N  
HETATM   21  C   UNL     1     -11.993  15.853  69.123  1.00  0.00    -0.255 C  
HETATM   22  C   UNL     1     -11.988  14.592  68.292  1.00  0.00    -0.268 C  
HETATM   23  O   UNL     1     -12.862  15.516  70.211  1.00  0.00    -0.361 OA 
HETATM   24  O   UNL     1     -13.148  13.620  71.426  1.00  0.00    -0.340 OA 
HETATM   25  C   UNL     1     -12.745  14.157  70.411  1.00  0.00    -0.279 C  
BRANCH  21  26
HETATM   26  C   UNL     1     -10.616  16.206  69.687  1.00  0.00    -0.311 C  
BRANCH  26  27
HETATM   27  O   UNL     1      -9.608  16.104  68.691  1.00  0.00    -0.209 OA 
HETATM   28  P   UNL     1      -9.532  17.516  67.693  1.00  0.00    -0.266 P  
HETATM   29  O   UNL     1      -8.481  18.080  68.814  1.00  0.00    -0.285 OA 
HETATM   30  O   UNL     1      -9.462  18.779  66.800  1.00  0.00    -0.297 OA 
HETATM   31  O   UNL     1      -8.454  16.674  66.798  1.00  0.00    -0.193 OA 
ENDBRANCH  26  27
ENDBRANCH  21  26
ENDBRANCH  16  20
ENDBRANCH  10  13
ENDBRANCH   5   7
TORSDOF 5
ENDMDL
MODEL       73
REMARK 921   NORMALIZED FREE ENERGY PREDICTED BY IDOCK:   -5.18 KCAL/MOL
REMARK 922        TOTAL FREE ENERGY PREDICTED BY IDOCK:   -7.45 KCAL/MOL
REMARK 923 INTER-LIGAND FREE ENERGY PREDICTED BY IDOCK:   -6.54 KCAL/MOL
REMARK 924 INTRA-LIGAND FREE ENERGY PREDICTED BY IDOCK:   -0.91 KCAL/MOL
REMARK 927      BINDING AFFINITY PREDICTED BY RF-SCORE:    0.00 PKD
ROOT
HETATM    1  C   UNL     1      -7.148  20.356  67.809  1.00  0.00    -0.309 C  
HETATM    2  N   UNL     1      -7.415  19.107  67.148  1.00  0.00    -0.219 NA 
HETATM    3  N   UNL     1      -7.322  18.979  65.820  1.00  0.00    -0.442 NA 
HETATM    4  N   UNL     1      -7.658  17.719  65.582  1.00  0.00    -0.502 NA 
HETATM    5  C   UNL     1      -7.946  17.140  66.801  1.00  0.00    -0.235 A  
HETATM    6  N   UNL     1      -7.796  18.009  67.825  1.00  0.00    -0.220 NA 
ENDROOT
BRANCH   5   7
HETATM    7  C   UNL     1      -8.330  15.735  66.937  1.00  0.00    -0.248 A  
HETATM    8  C   UNL     1      -9.472  15.234  66.322  1.00  0.00    -0.341 A  
HETATM    9  C   UNL     1      -9.843  13.905  66.554  1.00  0.00    -0.296 A  
HETATM   10  C   UNL     1      -9.088  13.085  67.406  1.00  0.00    -0.201 A  
HETATM   11  N   UNL     1      -7.545  14.959  67.723  1.00  0.00    -0.140 NA 
HETATM   12  C   UNL     1      -7.937  13.678  67.932  1.00  0.00    -0.161 A  
BRANCH  10  13
HETATM   13  C   UNL     1      -9.522  11.726  67.802  1.00  0.00    -0.181 A  
HETATM   14  C   UNL     1     -10.567  11.542  68.722  1.00  0.00    -0.241 A  
HETATM   15  C   UNL     1     -10.908  10.271  69.208  1.00  0.00    -0.275 A  
HETATM   16  C   UNL     1     -10.226   9.126  68.791  1.00  0.00    -0.210 A  
HETATM   17  F   UNL     1      -7.892  10.630  66.455  1.00  0.00    -0.116 F  
HETATM   18  C   UNL     1      -9.213   9.289  67.843  1.00  0.00    -0.140 A  
HETATM   19  C   UNL     1      -8.878  10.560  67.363  1.00  0.00    -0.132 A  
BRANCH  16  20
HETATM   20  N   UNL     1     -10.565   7.847  69.285  1.00  0.00    -0.214 N  
HETATM   21  C   UNL     1     -10.337   6.012  70.610  1.00  0.00    -0.222 C  
HETATM   22  C   UNL     1     -10.576   7.501  70.678  1.00  0.00    -0.224 C  
HETATM   23  O   UNL     1     -11.004   5.635  69.399  1.00  0.00    -0.320 OA 
HETATM   24  O   UNL     1     -11.180   6.627  67.364  1.00  0.00    -0.344 OA 
HETATM   25  C   UNL     1     -10.942   6.723  68.554  1.00  0.00    -0.192 C  
BRANCH  21  26
HETATM   26  C   UNL     1      -8.856   5.646  70.488  1.00  0.00    -0.138 C  
BRANCH  26  27
HETATM   27  O   UNL     1      -8.680   4.449  69.743  1.00  0.00    -0.071 OA 
HETATM   28  P   UNL     1      -7.505   4.629  68.486  1.00  0.00    -0.065 P  
HETATM   29  O   UNL     1      -6.422   4.176  69.625  1.00  0.00    -0.031 OA 
HETATM   30  O   UNL     1      -6.454   4.789  67.360  1.00  0.00    -0.043 OA 
HETATM   31  O   UNL     1      -7.958   3.130  68.017  1.00  0.00    -0.066 OA 
ENDBRANCH  26  27
ENDBRANCH  21  26
ENDBRANCH  16  20
ENDBRANCH  10  13
ENDBRANCH   5   7
TORSDOF 5
ENDMDL
MODEL       74
REMARK 921   NORMALIZED FREE ENERGY PREDICTED BY IDOCK:   -5.17 KCAL/MOL
REMARK 922        TOTAL FREE ENERGY PREDICTED BY IDOCK:   -7.44 KCAL/MOL
REMARK 923 INTER-LIGAND FREE ENERGY PREDICTED BY IDOCK:   -6.56 KCAL/MOL
REMARK 924 INTRA-LIGAND FREE ENERGY PREDICTED BY IDOCK:   -0.88 KCAL/MOL
REMARK 927      BINDING AFFINITY PREDICTED BY RF-SCORE:    0.00 PKD
ROOT
HETATM    1  C   UNL     1      -8.323   2.195  64.569  1.00  0.00    -0.087 C  
HETATM    2  N   UNL     1      -7.920   3.575  64.531  1.00  0.00    -0.085 NA 
HETATM    3  N   UNL     1      -6.704   3.943  64.116  1.00  0.00    -0.043 NA 
HETATM    4  N   UNL     1      -6.693   5.262  64.243  1.00  0.00    -0.045 NA 
HETATM    5  C   UNL     1      -7.926   5.632  64.741  1.00  0.00    -0.119 A  
HETATM    6  N   UNL     1      -8.735   4.567  64.934  1.00  0.00    -0.134 NA 
ENDROOT
BRANCH   5   7
HETATM    7  C   UNL     1      -8.295   7.026  64.984  1.00  0.00    -0.046 A  
HETATM    8  C   UNL     1      -7.842   8.049  64.157  1.00  0.00    -0.141 A  
HETATM    9  C   UNL     1      -8.150   9.374  64.482  1.00  0.00    -0.136 A  
HETATM   10  C   UNL     1      -8.893   9.679  65.632  1.00  0.00    -0.189 A  
HETATM   11  N   UNL     1      -9.060   7.277  66.073  1.00  0.00    -0.122 NA 
HETATM   12  C   UNL     1      -9.335   8.573  66.363  1.00  0.00    -0.213 A  
BRANCH  10  13
HETATM   13  C   UNL     1      -9.113  11.067  66.099  1.00  0.00    -0.208 A  
HETATM   14  C   UNL     1      -8.170  11.712  66.915  1.00  0.00    -0.169 A  
HETATM   15  C   UNL     1      -8.417  12.975  67.473  1.00  0.00    -0.190 A  
HETATM   16  C   UNL     1      -9.613  13.654  67.234  1.00  0.00    -0.238 A  
HETATM   17  F   UNL     1     -11.235  11.267  65.035  1.00  0.00    -0.307 F  
HETATM   18  C   UNL     1     -10.542  13.044  66.388  1.00  0.00    -0.294 A  
HETATM   19  C   UNL     1     -10.289  11.784  65.835  1.00  0.00    -0.241 A  
BRANCH  16  20
HETATM   20  N   UNL     1      -9.865  14.924  67.801  1.00  0.00    -0.216 N  
HETATM   21  C   UNL     1     -10.701  16.375  69.339  1.00  0.00    -0.324 C  
HETATM   22  C   UNL     1      -9.743  15.217  69.200  1.00  0.00    -0.232 C  
HETATM   23  O   UNL     1     -10.575  17.048  68.081  1.00  0.00    -0.339 OA 
HETATM   24  O   UNL     1     -10.348  16.300  65.949  1.00  0.00    -0.332 OA 
HETATM   25  C   UNL     1     -10.257  16.088  67.144  1.00  0.00    -0.278 C  
BRANCH  21  26
HETATM   26  C   UNL     1     -12.155  15.934  69.516  1.00  0.00    -0.185 C  
BRANCH  26  27
HETATM   27  O   UNL     1     -12.235  14.604  70.009  1.00  0.00    -0.307 OA 
HETATM   28  P   UNL     1     -12.676  14.552  71.681  1.00  0.00    -0.382 P  
HETATM   29  O   UNL     1     -14.217  14.527  71.129  1.00  0.00    -0.299 OA 
HETATM   30  O   UNL     1     -13.072  14.504  73.177  1.00  0.00    -0.520 OA 
HETATM   31  O   UNL     1     -12.390  12.946  71.579  1.00  0.00    -0.139 OA 
ENDBRANCH  26  27
ENDBRANCH  21  26
ENDBRANCH  16  20
ENDBRANCH  10  13
ENDBRANCH   5   7
TORSDOF 5
ENDMDL
MODEL       75
REMARK 921   NORMALIZED FREE ENERGY PREDICTED BY IDOCK:   -5.10 KCAL/MOL
REMARK 922        TOTAL FREE ENERGY PREDICTED BY IDOCK:   -7.35 KCAL/MOL
REMARK 923 INTER-LIGAND FREE ENERGY PREDICTED BY IDOCK:   -6.47 KCAL/MOL
REMARK 924 INTRA-LIGAND FREE ENERGY PREDICTED BY IDOCK:   -0.89 KCAL/MOL
REMARK 927      BINDING AFFINITY PREDICTED BY RF-SCORE:    0.00 PKD
ROOT
HETATM    1  C   UNL     1      -7.296   1.514  68.088  1.00  0.00    -0.043 C  
HETATM    2  N   UNL     1      -7.176   2.635  67.195  1.00  0.00    -0.056 NA 
HETATM    3  N   UNL     1      -6.259   2.668  66.223  1.00  0.00    -0.024 NA 
HETATM    4  N   UNL     1      -6.434   3.844  65.638  1.00  0.00    -0.032 NA 
HETATM    5  C   UNL     1      -7.466   4.476  66.302  1.00  0.00    -0.082 A  
HETATM    6  N   UNL     1      -7.963   3.721  67.306  1.00  0.00    -0.090 NA 
ENDROOT
BRANCH   5   7
HETATM    7  C   UNL     1      -7.965   5.796  65.913  1.00  0.00    -0.108 A  
HETATM    8  C   UNL     1      -7.344   6.537  64.913  1.00  0.00    -0.076 A  
HETATM    9  C   UNL     1      -7.807   7.829  64.638  1.00  0.00    -0.130 A  
HETATM   10  C   UNL     1      -8.870   8.383  65.365  1.00  0.00    -0.146 A  
HETATM   11  N   UNL     1      -9.029   6.275  66.599  1.00  0.00    -0.130 NA 
HETATM   12  C   UNL     1      -9.447   7.533  66.312  1.00  0.00    -0.096 A  
BRANCH  10  13
HETATM   13  C   UNL     1      -9.293   9.794  65.217  1.00  0.00    -0.315 A  
HETATM   14  C   UNL     1      -9.374  10.645  66.331  1.00  0.00    -0.195 A  
HETATM   15  C   UNL     1      -9.893  11.944  66.233  1.00  0.00    -0.246 A  
HETATM   16  C   UNL     1     -10.348  12.455  65.016  1.00  0.00    -0.293 A  
HETATM   17  F   UNL     1      -9.639   9.619  62.866  1.00  0.00    -0.272 F  
HETATM   18  C   UNL     1     -10.233  11.636  63.890  1.00  0.00    -0.409 A  
HETATM   19  C   UNL     1      -9.714  10.341  63.996  1.00  0.00    -0.278 A  
BRANCH  16  20
HETATM   20  N   UNL     1     -10.877  13.762  64.918  1.00  0.00    -0.367 N  
HETATM   21  C   UNL     1     -10.937  16.004  65.294  1.00  0.00    -0.299 C  
HETATM   22  C   UNL     1     -10.086  14.930  64.659  1.00  0.00     0.245 C  
HETATM   23  O   UNL     1     -12.270  15.531  65.068  1.00  0.00     0.139 OA 
HETATM   24  O   UNL     1     -13.205  13.463  65.139  1.00  0.00    -0.691 OA 
HETATM   25  C   UNL     1     -12.207  14.154  65.044  1.00  0.00    -0.441 C  
BRANCH  21  26
HETATM   26  C   UNL     1     -10.711  16.136  66.801  1.00  0.00    -0.235 C  
BRANCH  26  27
HETATM   27  O   UNL     1      -9.722  17.113  67.092  1.00  0.00    -0.249 OA 
HETATM   28  P   UNL     1     -10.078  18.640  66.360  1.00  0.00    -0.403 P  
HETATM   29  O   UNL     1     -10.906  18.949  67.737  1.00  0.00    -0.387 OA 
HETATM   30  O   UNL     1     -10.395  20.007  65.706  1.00  0.00    -0.479 OA 
HETATM   31  O   UNL     1      -8.602  19.099  66.893  1.00  0.00    -0.280 OA 
ENDBRANCH  26  27
ENDBRANCH  21  26
ENDBRANCH  16  20
ENDBRANCH  10  13
ENDBRANCH   5   7
TORSDOF 5
ENDMDL
MODEL       76
REMARK 921   NORMALIZED FREE ENERGY PREDICTED BY IDOCK:   -4.96 KCAL/MOL
REMARK 922        TOTAL FREE ENERGY PREDICTED BY IDOCK:   -7.17 KCAL/MOL
REMARK 923 INTER-LIGAND FREE ENERGY PREDICTED BY IDOCK:   -6.31 KCAL/MOL
REMARK 924 INTRA-LIGAND FREE ENERGY PREDICTED BY IDOCK:   -0.87 KCAL/MOL
REMARK 927      BINDING AFFINITY PREDICTED BY RF-SCORE:    0.00 PKD
ROOT
HETATM    1  C   UNL     1      -8.795   1.603  72.110  1.00  0.00    -0.067 C  
HETATM    2  N   UNL     1      -9.265   2.962  72.152  1.00  0.00    -0.090 NA 
HETATM    3  N   UNL     1      -9.705   3.520  73.284  1.00  0.00    -0.109 NA 
HETATM    4  N   UNL     1     -10.069   4.745  72.932  1.00  0.00    -0.162 NA 
HETATM    5  C   UNL     1      -9.829   4.866  71.578  1.00  0.00    -0.183 A  
HETATM    6  N   UNL     1      -9.311   3.735  71.051  1.00  0.00    -0.134 NA 
ENDROOT
BRANCH   5   7
HETATM    7  C   UNL     1     -10.082   6.101  70.837  1.00  0.00    -0.192 A  
HETATM    8  C   UNL     1     -11.053   6.162  69.843  1.00  0.00    -0.481 A  
HETATM    9  C   UNL     1     -11.197   7.342  69.104  1.00  0.00     0.068 A  
HETATM   10  C   UNL     1     -10.369   8.448  69.344  1.00  0.00    -0.217 A  
HETATM   11  N   UNL     1      -9.300   7.166  71.135  1.00  0.00    -0.157 NA 
HETATM   12  C   UNL     1      -9.461   8.291  70.395  1.00  0.00    -0.167 A  
BRANCH  10  13
HETATM   13  C   UNL     1     -10.379   9.657  68.490  1.00  0.00    -0.231 A  
HETATM   14  C   UNL     1     -10.695  10.916  69.025  1.00  0.00    -0.262 A  
HETATM   15  C   UNL     1     -10.836  12.050  68.212  1.00  0.00    -0.263 A  
HETATM   16  C   UNL     1     -10.661  11.979  66.829  1.00  0.00    -0.227 A  
HETATM   17  F   UNL     1      -9.821   8.464  66.505  1.00  0.00    -0.260 F  
HETATM   18  C   UNL     1     -10.304  10.742  66.287  1.00  0.00    -0.303 A  
HETATM   19  C   UNL     1     -10.165   9.615  67.105  1.00  0.00    -0.243 A  
BRANCH  16  20
HETATM   20  N   UNL     1     -10.809  13.120  66.008  1.00  0.00    -0.271 N  
HETATM   21  C   UNL     1     -10.127  15.025  64.969  1.00  0.00    -0.253 C  
HETATM   22  C   UNL     1      -9.839  13.545  65.040  1.00  0.00    -0.054 C  
HETATM   23  O   UNL     1     -11.543  15.085  65.176  1.00  0.00    -0.348 OA 
HETATM   24  O   UNL     1     -12.952  13.944  66.543  1.00  0.00    -0.036 OA 
HETATM   25  C   UNL     1     -11.877  14.014  65.976  1.00  0.00    -0.388 C  
BRANCH  21  26
HETATM   26  C   UNL     1      -9.436  15.826  66.074  1.00  0.00    -0.357 C  
BRANCH  26  27
HETATM   27  O   UNL     1      -8.168  15.272  66.397  1.00  0.00    -0.121 OA 
HETATM   28  P   UNL     1      -7.420  16.084  67.728  1.00  0.00    -0.161 P  
HETATM   29  O   UNL     1      -8.221  15.001  68.658  1.00  0.00    -0.139 OA 
HETATM   30  O   UNL     1      -6.749  16.810  68.920  1.00  0.00    -0.171 OA 
HETATM   31  O   UNL     1      -6.115  15.156  67.400  1.00  0.00    -0.325 OA 
ENDBRANCH  26  27
ENDBRANCH  21  26
ENDBRANCH  16  20
ENDBRANCH  10  13
ENDBRANCH   5   7
TORSDOF 5
ENDMDL
MODEL       77
REMARK 921   NORMALIZED FREE ENERGY PREDICTED BY IDOCK:   -4.95 KCAL/MOL
REMARK 922        TOTAL FREE ENERGY PREDICTED BY IDOCK:   -7.15 KCAL/MOL
REMARK 923 INTER-LIGAND FREE ENERGY PREDICTED BY IDOCK:   -6.43 KCAL/MOL
REMARK 924 INTRA-LIGAND FREE ENERGY PREDICTED BY IDOCK:   -0.72 KCAL/MOL
REMARK 927      BINDING AFFINITY PREDICTED BY RF-SCORE:    0.00 PKD
ROOT
HETATM    1  C   UNL     1      -6.554   1.501  65.831  1.00  0.00    -0.023 C  
HETATM    2  N   UNL     1      -7.504   2.575  65.944  1.00  0.00    -0.067 NA 
HETATM    3  N   UNL     1      -8.788   2.419  65.604  1.00  0.00    -0.125 NA 
HETATM    4  N   UNL     1      -9.336   3.607  65.816  1.00  0.00    -0.159 NA 
HETATM    5  C   UNL     1      -8.336   4.437  66.279  1.00  0.00    -0.112 A  
HETATM    6  N   UNL     1      -7.148   3.800  66.372  1.00  0.00    -0.062 NA 
ENDROOT
BRANCH   5   7
HETATM    7  C   UNL     1      -8.576   5.831  66.653  1.00  0.00    -0.118 A  
HETATM    8  C   UNL     1      -9.336   6.159  67.770  1.00  0.00    -0.109 A  
HETATM    9  C   UNL     1      -9.610   7.506  68.035  1.00  0.00    -0.156 A  
HETATM   10  C   UNL     1      -9.140   8.517  67.185  1.00  0.00    -0.164 A  
HETATM   11  N   UNL     1      -8.059   6.782  65.838  1.00  0.00    -0.116 NA 
HETATM   12  C   UNL     1      -8.349   8.076  66.120  1.00  0.00    -0.125 A  
BRANCH  10  13
HETATM   13  C   UNL     1      -9.530   9.937  67.337  1.00  0.00    -0.173 A  
HETATM   14  C   UNL     1     -10.823  10.371  67.004  1.00  0.00    -0.269 A  
HETATM   15  C   UNL     1     -11.174  11.729  67.018  1.00  0.00    -0.382 A  
HETATM   16  C   UNL     1     -10.251  12.714  67.372  1.00  0.00    -0.217 A  
HETATM   17  F   UNL     1      -7.381  10.619  68.105  1.00  0.00    -0.082 F  
HETATM   18  C   UNL     1      -8.973  12.295  67.748  1.00  0.00    -0.177 A  
HETATM   19  C   UNL     1      -8.630  10.938  67.731  1.00  0.00    -0.128 A  
BRANCH  16  20
HETATM   20  N   UNL     1     -10.602  14.083  67.380  1.00  0.00    -0.277 N  
HETATM   21  C   UNL     1     -10.493  16.252  66.705  1.00  0.00    -0.287 C  
HETATM   22  C   UNL     1     -10.807  14.866  66.196  1.00  0.00    -0.327 C  
HETATM   23  O   UNL     1     -10.951  16.206  68.062  1.00  0.00    -0.331 OA 
HETATM   24  O   UNL     1     -10.863  14.601  69.666  1.00  0.00    -0.241 OA 
HETATM   25  C   UNL     1     -10.813  14.902  68.487  1.00  0.00    -0.247 C  
BRANCH  21  26
HETATM   26  C   UNL     1      -8.996  16.568  66.704  1.00  0.00    -0.255 C  
BRANCH  26  27
HETATM   27  O   UNL     1      -8.743  17.869  66.194  1.00  0.00    -0.453 OA 
HETATM   28  P   UNL     1      -9.749  19.067  66.931  1.00  0.00    -0.369 P  
HETATM   29  O   UNL     1      -8.556  19.183  68.044  1.00  0.00    -0.291 OA 
HETATM   30  O   UNL     1     -10.649  20.141  67.591  1.00  0.00    -0.314 OA 
HETATM   31  O   UNL     1      -9.114  20.098  65.833  1.00  0.00    -0.276 OA 
ENDBRANCH  26  27
ENDBRANCH  21  26
ENDBRANCH  16  20
ENDBRANCH  10  13
ENDBRANCH   5   7
TORSDOF 5
ENDMDL
MODEL       78
REMARK 921   NORMALIZED FREE ENERGY PREDICTED BY IDOCK:   -4.94 KCAL/MOL
REMARK 922        TOTAL FREE ENERGY PREDICTED BY IDOCK:   -7.14 KCAL/MOL
REMARK 923 INTER-LIGAND FREE ENERGY PREDICTED BY IDOCK:   -6.14 KCAL/MOL
REMARK 924 INTRA-LIGAND FREE ENERGY PREDICTED BY IDOCK:   -1.01 KCAL/MOL
REMARK 927      BINDING AFFINITY PREDICTED BY RF-SCORE:    0.00 PKD
ROOT
HETATM    1  C   UNL     1      -6.501   1.482  70.304  1.00  0.00    -0.024 C  
HETATM    2  N   UNL     1      -7.210   2.703  70.576  1.00  0.00    -0.033 NA 
HETATM    3  N   UNL     1      -8.169   2.769  71.506  1.00  0.00    -0.062 NA 
HETATM    4  N   UNL     1      -8.599   4.022  71.454  1.00  0.00    -0.094 NA 
HETATM    5  C   UNL     1      -7.868   4.660  70.473  1.00  0.00    -0.054 A  
HETATM    6  N   UNL     1      -6.967   3.837  69.893  1.00  0.00    -0.041 NA 
ENDROOT
BRANCH   5   7
HETATM    7  C   UNL     1      -8.046   6.076  70.149  1.00  0.00    -0.114 A  
HETATM    8  C   UNL     1      -8.246   7.025  71.145  1.00  0.00    -0.113 A  
HETATM    9  C   UNL     1      -8.499   8.352  70.779  1.00  0.00    -0.151 A  
HETATM   10  C   UNL     1      -8.566   8.727  69.429  1.00  0.00    -0.133 A  
HETATM   11  N   UNL     1      -8.049   6.408  68.836  1.00  0.00    -0.110 NA 
HETATM   12  C   UNL     1      -8.303   7.701  68.516  1.00  0.00    -0.129 A  
BRANCH  10  13
HETATM   13  C   UNL     1      -8.980  10.079  68.992  1.00  0.00    -0.163 A  
HETATM   14  C   UNL     1      -8.028  11.079  68.737  1.00  0.00    -0.144 A  
HETATM   15  C   UNL     1      -8.402  12.399  68.447  1.00  0.00    -0.137 A  
HETATM   16  C   UNL     1      -9.744  12.779  68.393  1.00  0.00    -0.186 A  
HETATM   17  F   UNL     1     -11.307   9.577  69.079  1.00  0.00    -0.170 F  
HETATM   18  C   UNL     1     -10.704  11.786  68.602  1.00  0.00    -0.252 A  
HETATM   19  C   UNL     1     -10.323  10.470  68.890  1.00  0.00    -0.208 A  
BRANCH  16  20
HETATM   20  N   UNL     1     -10.121  14.111  68.108  1.00  0.00    -0.232 N  
HETATM   21  C   UNL     1     -10.764  16.234  68.612  1.00  0.00    -0.309 C  
HETATM   22  C   UNL     1      -9.635  15.254  68.826  1.00  0.00    -0.214 C  
HETATM   23  O   UNL     1     -11.232  15.902  67.300  1.00  0.00    -0.234 OA 
HETATM   24  O   UNL     1     -11.519  13.926  66.218  1.00  0.00    -0.319 OA 
HETATM   25  C   UNL     1     -10.994  14.556  67.118  1.00  0.00    -0.304 C  
BRANCH  21  26
HETATM   26  C   UNL     1     -11.915  16.049  69.603  1.00  0.00    -0.180 C  
BRANCH  26  27
HETATM   27  O   UNL     1     -11.433  15.717  70.898  1.00  0.00    -0.337 OA 
HETATM   28  P   UNL     1     -12.705  15.230  71.964  1.00  0.00    -0.430 P  
HETATM   29  O   UNL     1     -12.424  13.725  71.385  1.00  0.00    -0.351 OA 
HETATM   30  O   UNL     1     -13.844  14.793  72.919  1.00  0.00    -0.503 OA 
HETATM   31  O   UNL     1     -11.559  15.225  73.130  1.00  0.00    -0.402 OA 
ENDBRANCH  26  27
ENDBRANCH  21  26
ENDBRANCH  16  20
ENDBRANCH  10  13
ENDBRANCH   5   7
TORSDOF 5
ENDMDL
MODEL       79
REMARK 921   NORMALIZED FREE ENERGY PREDICTED BY IDOCK:   -4.91 KCAL/MOL
REMARK 922        TOTAL FREE ENERGY PREDICTED BY IDOCK:   -7.10 KCAL/MOL
REMARK 923 INTER-LIGAND FREE ENERGY PREDICTED BY IDOCK:   -6.36 KCAL/MOL
REMARK 924 INTRA-LIGAND FREE ENERGY PREDICTED BY IDOCK:   -0.74 KCAL/MOL
REMARK 927      BINDING AFFINITY PREDICTED BY RF-SCORE:    0.00 PKD
ROOT
HETATM    1  C   UNL     1      -6.644   2.677  63.447  1.00  0.00    -0.026 C  
HETATM    2  N   UNL     1      -6.630   4.115  63.488  1.00  0.00    -0.034 NA 
HETATM    3  N   UNL     1      -5.628   4.825  62.961  1.00  0.00    -0.013 NA 
HETATM    4  N   UNL     1      -5.947   6.087  63.208  1.00  0.00    -0.021 NA 
HETATM    5  C   UNL     1      -7.148   6.075  63.889  1.00  0.00    -0.053 A  
HETATM    6  N   UNL     1      -7.611   4.820  64.081  1.00  0.00    -0.070 NA 
ENDROOT
BRANCH   5   7
HETATM    7  C   UNL     1      -7.833   7.299  64.306  1.00  0.00    -0.125 A  
HETATM    8  C   UNL     1      -7.881   8.417  63.480  1.00  0.00    -0.152 A  
HETATM    9  C   UNL     1      -8.472   9.591  63.960  1.00  0.00    -0.192 A  
HETATM   10  C   UNL     1      -8.998   9.655  65.259  1.00  0.00    -0.246 A  
HETATM   11  N   UNL     1      -8.377   7.304  65.546  1.00  0.00    -0.138 NA 
HETATM   12  C   UNL     1      -8.936   8.460  65.982  1.00  0.00    -0.184 A  
BRANCH  10  13
HETATM   13  C   UNL     1      -9.492  10.913  65.863  1.00  0.00    -0.241 A  
HETATM   14  C   UNL     1      -8.930  11.414  67.047  1.00  0.00    -0.166 A  
HETATM   15  C   UNL     1      -9.466  12.532  67.704  1.00  0.00    -0.188 A  
HETATM   16  C   UNL     1     -10.583  13.203  67.203  1.00  0.00    -0.257 A  
HETATM   17  F   UNL     1     -11.168  11.247  64.204  1.00  0.00    -0.423 F  
HETATM   18  C   UNL     1     -11.127  12.742  66.002  1.00  0.00    -0.315 A  
HETATM   19  C   UNL     1     -10.586  11.626  65.352  1.00  0.00    -0.280 A  
BRANCH  16  20
HETATM   20  N   UNL     1     -11.128  14.325  67.868  1.00  0.00    -0.269 N  
HETATM   21  C   UNL     1     -11.366  16.537  68.339  1.00  0.00    -0.209 C  
HETATM   22  C   UNL     1     -11.503  15.543  67.210  1.00  0.00    -0.102 C  
HETATM   23  O   UNL     1     -11.744  15.770  69.488  1.00  0.00    -0.340 OA 
HETATM   24  O   UNL     1     -11.344  13.623  70.108  1.00  0.00    -0.104 OA 
HETATM   25  C   UNL     1     -11.397  14.462  69.228  1.00  0.00    -0.284 C  
BRANCH  21  26
HETATM   26  C   UNL     1      -9.932  17.035  68.530  1.00  0.00    -0.293 C  
BRANCH  26  27
HETATM   27  O   UNL     1      -9.539  17.897  67.472  1.00  0.00    -0.262 OA 
HETATM   28  P   UNL     1      -7.967  17.510  66.863  1.00  0.00    -0.260 P  
HETATM   29  O   UNL     1      -8.761  16.496  65.853  1.00  0.00    -0.456 OA 
HETATM   30  O   UNL     1      -6.560  17.164  66.317  1.00  0.00    -0.226 OA 
HETATM   31  O   UNL     1      -8.117  18.866  65.962  1.00  0.00    -0.431 OA 
ENDBRANCH  26  27
ENDBRANCH  21  26
ENDBRANCH  16  20
ENDBRANCH  10  13
ENDBRANCH   5   7
TORSDOF 5
ENDMDL
MODEL       80
REMARK 921   NORMALIZED FREE ENERGY PREDICTED BY IDOCK:   -4.87 KCAL/MOL
REMARK 922        TOTAL FREE ENERGY PREDICTED BY IDOCK:   -7.06 KCAL/MOL
REMARK 923 INTER-LIGAND FREE ENERGY PREDICTED BY IDOCK:   -6.58 KCAL/MOL
REMARK 924 INTRA-LIGAND FREE ENERGY PREDICTED BY IDOCK:   -0.48 KCAL/MOL
REMARK 927      BINDING AFFINITY PREDICTED BY RF-SCORE:    0.00 PKD
ROOT
HETATM    1  C   UNL     1     -10.624  18.657  65.671  1.00  0.00    -0.132 C  
HETATM    2  N   UNL     1     -10.759  17.244  65.441  1.00  0.00    -0.573 NA 
HETATM    3  N   UNL     1     -11.139  16.756  64.256  1.00  0.00    -1.010 NA 
HETATM    4  N   UNL     1     -11.174  15.442  64.431  1.00  0.00    -0.273 NA 
HETATM    5  C   UNL     1     -10.812  15.199  65.740  1.00  0.00    -0.353 A  
HETATM    6  N   UNL     1     -10.538  16.339  66.412  1.00  0.00    -0.288 NA 
ENDROOT
BRANCH   5   7
HETATM    7  C   UNL     1     -10.708  13.849  66.294  1.00  0.00    -0.285 A  
HETATM    8  C   UNL     1     -10.355  13.638  67.623  1.00  0.00    -0.239 A  
HETATM    9  C   UNL     1     -10.184  12.326  68.081  1.00  0.00    -0.212 A  
HETATM   10  C   UNL     1     -10.350  11.234  67.217  1.00  0.00    -0.236 A  
HETATM   11  N   UNL     1     -10.930  12.819  65.443  1.00  0.00    -0.279 NA 
HETATM   12  C   UNL     1     -10.749  11.562  65.918  1.00  0.00    -0.272 A  
BRANCH  10  13
HETATM   13  C   UNL     1     -10.032   9.844  67.613  1.00  0.00    -0.212 A  
HETATM   14  C   UNL     1     -10.630   8.753  66.962  1.00  0.00    -0.283 A  
HETATM   15  C   UNL     1     -10.441   7.435  67.405  1.00  0.00    -0.366 A  
HETATM   16  C   UNL     1      -9.642   7.147  68.513  1.00  0.00    -0.139 A  
HETATM   17  F   UNL     1      -8.552  10.503  69.359  1.00  0.00    -0.151 F  
HETATM   18  C   UNL     1      -9.006   8.218  69.144  1.00  0.00    -0.147 A  
HETATM   19  C   UNL     1      -9.198   9.531  68.697  1.00  0.00    -0.135 A  
BRANCH  16  20
HETATM   20  N   UNL     1      -9.458   5.820  68.962  1.00  0.00    -0.122 N  
HETATM   21  C   UNL     1      -8.789   4.199  70.411  1.00  0.00    -0.085 C  
HETATM   22  C   UNL     1      -9.720   5.383  70.304  1.00  0.00    -0.192 C  
HETATM   23  O   UNL     1      -8.794   3.666  69.082  1.00  0.00    -0.085 OA 
HETATM   24  O   UNL     1      -8.803   4.639  67.030  1.00  0.00    -0.110 OA 
HETATM   25  C   UNL     1      -9.011   4.725  68.226  1.00  0.00    -0.111 C  
BRANCH  21  26
HETATM   26  C   UNL     1      -7.356   4.593  70.775  1.00  0.00    -0.052 C  
BRANCH  26  27
HETATM   27  O   UNL     1      -6.884   3.850  71.890  1.00  0.00    -0.025 OA 
HETATM   28  P   UNL     1      -6.398   4.873  73.198  1.00  0.00    -0.050 P  
HETATM   29  O   UNL     1      -7.958   4.762  73.680  1.00  0.00    -0.103 OA 
HETATM   30  O   UNL     1      -5.963   5.787  74.370  1.00  0.00    -0.056 OA 
HETATM   31  O   UNL     1      -5.860   3.502  73.907  1.00  0.00    -0.003 OA 
ENDBRANCH  26  27
ENDBRANCH  21  26
ENDBRANCH  16  20
ENDBRANCH  10  13
ENDBRANCH   5   7
TORSDOF 5
ENDMDL
MODEL       81
REMARK 921   NORMALIZED FREE ENERGY PREDICTED BY IDOCK:   -4.86 KCAL/MOL
REMARK 922        TOTAL FREE ENERGY PREDICTED BY IDOCK:   -7.04 KCAL/MOL
REMARK 923 INTER-LIGAND FREE ENERGY PREDICTED BY IDOCK:   -6.35 KCAL/MOL
REMARK 924 INTRA-LIGAND FREE ENERGY PREDICTED BY IDOCK:   -0.69 KCAL/MOL
REMARK 927      BINDING AFFINITY PREDICTED BY RF-SCORE:    0.00 PKD
ROOT
HETATM    1  C   UNL     1      -9.085   2.199  64.581  1.00  0.00    -0.125 C  
HETATM    2  N   UNL     1      -8.591   3.549  64.623  1.00  0.00    -0.100 NA 
HETATM    3  N   UNL     1      -7.545   3.941  63.887  1.00  0.00    -0.076 NA 
HETATM    4  N   UNL     1      -7.373   5.216  64.204  1.00  0.00    -0.054 NA 
HETATM    5  C   UNL     1      -8.339   5.535  65.136  1.00  0.00    -0.146 A  
HETATM    6  N   UNL     1      -9.137   4.483  65.423  1.00  0.00    -0.140 NA 
ENDROOT
BRANCH   5   7
HETATM    7  C   UNL     1      -8.480   6.878  65.700  1.00  0.00    -0.136 A  
HETATM    8  C   UNL     1      -8.630   7.075  67.069  1.00  0.00    -0.122 A  
HETATM    9  C   UNL     1      -8.849   8.371  67.550  1.00  0.00    -0.139 A  
HETATM   10  C   UNL     1      -8.932   9.461  66.671  1.00  0.00    -0.170 A  
HETATM   11  N   UNL     1      -8.500   7.911  64.825  1.00  0.00    -0.059 NA 
HETATM   12  C   UNL     1      -8.720   9.153  65.324  1.00  0.00    -0.188 A  
BRANCH  10  13
HETATM   13  C   UNL     1      -9.313  10.820  67.115  1.00  0.00    -0.171 A  
HETATM   14  C   UNL     1      -8.388  11.876  67.083  1.00  0.00    -0.174 A  
HETATM   15  C   UNL     1      -8.688  13.138  67.617  1.00  0.00    -0.192 A  
HETATM   16  C   UNL     1      -9.928  13.404  68.201  1.00  0.00    -0.237 A  
HETATM   17  F   UNL     1     -11.531  10.187  67.708  1.00  0.00    -0.361 F  
HETATM   18  C   UNL     1     -10.873  12.376  68.201  1.00  0.00    -0.250 A  
HETATM   19  C   UNL     1     -10.567  11.120  67.666  1.00  0.00    -0.211 A  
BRANCH  16  20
HETATM   20  N   UNL     1     -10.227  14.674  68.745  1.00  0.00    -0.238 N  
HETATM   21  C   UNL     1     -11.143  16.756  68.759  1.00  0.00    -0.220 C  
HETATM   22  C   UNL     1     -11.518  15.296  68.666  1.00  0.00    -0.337 C  
HETATM   23  O   UNL     1     -10.004  16.739  69.628  1.00  0.00    -0.118 OA 
HETATM   24  O   UNL     1      -8.237  15.326  69.827  1.00  0.00    -0.200 OA 
HETATM   25  C   UNL     1      -9.372  15.529  69.436  1.00  0.00    -0.279 C  
BRANCH  21  26
HETATM   26  C   UNL     1     -10.725  17.356  67.415  1.00  0.00    -0.251 C  
BRANCH  26  27
HETATM   27  O   UNL     1     -10.534  18.760  67.514  1.00  0.00    -0.391 OA 
HETATM   28  P   UNL     1      -9.050  19.271  66.787  1.00  0.00    -0.354 P  
HETATM   29  O   UNL     1      -9.931  19.404  65.414  1.00  0.00    -0.216 OA 
HETATM   30  O   UNL     1      -7.721  19.729  66.136  1.00  0.00    -0.305 OA 
HETATM   31  O   UNL     1      -9.398  20.744  67.405  1.00  0.00    -0.392 OA 
ENDBRANCH  26  27
ENDBRANCH  21  26
ENDBRANCH  16  20
ENDBRANCH  10  13
ENDBRANCH   5   7
TORSDOF 5
ENDMDL
MODEL       82
REMARK 921   NORMALIZED FREE ENERGY PREDICTED BY IDOCK:   -4.80 KCAL/MOL
REMARK 922        TOTAL FREE ENERGY PREDICTED BY IDOCK:   -6.96 KCAL/MOL
REMARK 923 INTER-LIGAND FREE ENERGY PREDICTED BY IDOCK:   -7.00 KCAL/MOL
REMARK 924 INTRA-LIGAND FREE ENERGY PREDICTED BY IDOCK:    0.04 KCAL/MOL
REMARK 927      BINDING AFFINITY PREDICTED BY RF-SCORE:    0.00 PKD
ROOT
HETATM    1  C   UNL     1      -9.660   3.031  70.242  1.00  0.00    -0.090 C  
HETATM    2  N   UNL     1      -9.944   4.426  70.448  1.00  0.00    -0.214 NA 
HETATM    3  N   UNL     1     -10.867   4.836  71.323  1.00  0.00     0.134 NA 
HETATM    4  N   UNL     1     -10.863   6.158  71.219  1.00  0.00    -0.255 NA 
HETATM    5  C   UNL     1      -9.921   6.485  70.264  1.00  0.00    -0.174 A  
HETATM    6  N   UNL     1      -9.314   5.391  69.753  1.00  0.00    -0.137 NA 
ENDROOT
BRANCH   5   7
HETATM    7  C   UNL     1      -9.614   7.868  69.898  1.00  0.00    -0.168 A  
HETATM    8  C   UNL     1     -10.494   8.905  70.188  1.00  0.00    -0.236 A  
HETATM    9  C   UNL     1     -10.194  10.196  69.741  1.00  0.00    -0.286 A  
HETATM   10  C   UNL     1      -9.033  10.449  68.996  1.00  0.00    -0.184 A  
HETATM   11  N   UNL     1      -8.456   8.082  69.229  1.00  0.00    -0.134 NA 
HETATM   12  C   UNL     1      -8.200   9.344  68.804  1.00  0.00    -0.108 A  
BRANCH  10  13
HETATM   13  C   UNL     1      -8.751  11.762  68.372  1.00  0.00    -0.155 A  
HETATM   14  C   UNL     1      -7.479  12.058  67.856  1.00  0.00    -0.114 A  
HETATM   15  C   UNL     1      -7.155  13.336  67.378  1.00  0.00    -0.111 A  
HETATM   16  C   UNL     1      -8.088  14.374  67.388  1.00  0.00    -0.199 A  
HETATM   17  F   UNL     1     -10.941  12.609  68.770  1.00  0.00    -0.235 F  
HETATM   18  C   UNL     1      -9.371  14.083  67.859  1.00  0.00    -0.206 A  
HETATM   19  C   UNL     1      -9.687  12.806  68.334  1.00  0.00    -0.186 A  
BRANCH  16  20
HETATM   20  N   UNL     1      -7.760  15.664  66.912  1.00  0.00    -0.226 N  
HETATM   21  C   UNL     1      -6.939  17.780  67.065  1.00  0.00    -0.176 C  
HETATM   22  C   UNL     1      -6.524  16.334  67.199  1.00  0.00    -0.179 C  
HETATM   23  O   UNL     1      -7.928  17.735  66.030  1.00  0.00    -0.473 OA 
HETATM   24  O   UNL     1      -9.584  16.259  65.543  1.00  0.00    -0.474 OA 
HETATM   25  C   UNL     1      -8.532  16.498  66.107  1.00  0.00    -0.285 C  
BRANCH  21  26
HETATM   26  C   UNL     1      -7.584  18.339  68.336  1.00  0.00    -0.290 C  
BRANCH  26  27
HETATM   27  O   UNL     1      -8.106  19.642  68.118  1.00  0.00    -0.309 OA 
HETATM   28  P   UNL     1      -9.783  19.611  67.694  1.00  0.00    -0.408 P  
HETATM   29  O   UNL     1     -10.048  19.685  69.307  1.00  0.00    -0.423 OA 
HETATM   30  O   UNL     1     -11.284  19.585  67.315  1.00  0.00    -0.353 OA 
HETATM   31  O   UNL     1      -9.619  21.217  67.434  1.00  0.00    -0.343 OA 
ENDBRANCH  26  27
ENDBRANCH  21  26
ENDBRANCH  16  20
ENDBRANCH  10  13
ENDBRANCH   5   7
TORSDOF 5
ENDMDL
MODEL       83
REMARK 921   NORMALIZED FREE ENERGY PREDICTED BY IDOCK:   -4.78 KCAL/MOL
REMARK 922        TOTAL FREE ENERGY PREDICTED BY IDOCK:   -6.94 KCAL/MOL
REMARK 923 INTER-LIGAND FREE ENERGY PREDICTED BY IDOCK:   -6.93 KCAL/MOL
REMARK 924 INTRA-LIGAND FREE ENERGY PREDICTED BY IDOCK:   -0.02 KCAL/MOL
REMARK 927      BINDING AFFINITY PREDICTED BY RF-SCORE:    0.00 PKD
ROOT
HETATM    1  C   UNL     1      -9.395   1.527  68.195  1.00  0.00    -0.182 C  
HETATM    2  N   UNL     1      -9.396   2.856  68.746  1.00  0.00    -0.175 NA 
HETATM    3  N   UNL     1      -9.382   3.072  70.065  1.00  0.00    -0.154 NA 
HETATM    4  N   UNL     1      -9.413   4.391  70.188  1.00  0.00    -0.156 NA 
HETATM    5  C   UNL     1      -9.448   4.915  68.912  1.00  0.00    -0.143 A  
HETATM    6  N   UNL     1      -9.437   3.951  67.965  1.00  0.00    -0.174 NA 
ENDROOT
BRANCH   5   7
HETATM    7  C   UNL     1      -9.458   6.354  68.649  1.00  0.00    -0.122 A  
HETATM    8  C   UNL     1     -10.026   7.250  69.548  1.00  0.00    -0.170 A  
HETATM    9  C   UNL     1     -10.089   8.606  69.210  1.00  0.00    -0.203 A  
HETATM   10  C   UNL     1      -9.600   9.065  67.978  1.00  0.00    -0.166 A  
HETATM   11  N   UNL     1      -8.927   6.766  67.472  1.00  0.00    -0.116 NA 
HETATM   12  C   UNL     1      -9.010   8.086  67.173  1.00  0.00    -0.135 A  
BRANCH  10  13
HETATM   13  C   UNL     1      -9.782  10.458  67.512  1.00  0.00    -0.195 A  
HETATM   14  C   UNL     1      -9.501  10.818  66.184  1.00  0.00    -0.221 A  
HETATM   15  C   UNL     1      -9.543  12.154  65.756  1.00  0.00    -0.209 A  
HETATM   16  C   UNL     1      -9.873  13.188  66.634  1.00  0.00    -0.261 A  
HETATM   17  F   UNL     1     -10.478  11.257  69.646  1.00  0.00    -0.206 F  
HETATM   18  C   UNL     1     -10.197  12.840  67.947  1.00  0.00    -0.229 A  
HETATM   19  C   UNL     1     -10.154  11.506  68.367  1.00  0.00    -0.204 A  
BRANCH  16  20
HETATM   20  N   UNL     1      -9.909  14.534  66.204  1.00  0.00    -0.303 N  
HETATM   21  C   UNL     1      -9.580  16.777  66.393  1.00  0.00    -0.281 C  
HETATM   22  C   UNL     1      -8.833  15.465  66.390  1.00  0.00    -0.305 C  
HETATM   23  O   UNL     1     -10.653  16.536  65.475  1.00  0.00    -0.436 OA 
HETATM   24  O   UNL     1     -11.976  14.732  65.087  1.00  0.00    -0.346 OA 
HETATM   25  C   UNL     1     -10.945  15.191  65.544  1.00  0.00    -0.365 C  
BRANCH  21  26
HETATM   26  C   UNL     1     -10.173  17.127  67.759  1.00  0.00    -0.324 C  
BRANCH  26  27
HETATM   27  O   UNL     1      -9.193  17.043  68.784  1.00  0.00    -0.261 OA 
HETATM   28  P   UNL     1      -7.657  17.650  68.270  1.00  0.00    -0.275 P  
HETATM   29  O   UNL     1      -8.208  19.096  68.802  1.00  0.00    -0.358 OA 
HETATM   30  O   UNL     1      -6.281  18.193  67.811  1.00  0.00    -0.172 OA 
HETATM   31  O   UNL     1      -7.098  17.097  69.703  1.00  0.00    -0.080 OA 
ENDBRANCH  26  27
ENDBRANCH  21  26
ENDBRANCH  16  20
ENDBRANCH  10  13
ENDBRANCH   5   7
TORSDOF 5
ENDMDL
MODEL       84
REMARK 921   NORMALIZED FREE ENERGY PREDICTED BY IDOCK:   -4.74 KCAL/MOL
REMARK 922        TOTAL FREE ENERGY PREDICTED BY IDOCK:   -6.88 KCAL/MOL
REMARK 923 INTER-LIGAND FREE ENERGY PREDICTED BY IDOCK:   -6.26 KCAL/MOL
REMARK 924 INTRA-LIGAND FREE ENERGY PREDICTED BY IDOCK:   -0.63 KCAL/MOL
REMARK 927      BINDING AFFINITY PREDICTED BY RF-SCORE:    0.00 PKD
ROOT
HETATM    1  C   UNL     1     -13.174  15.881  73.098  1.00  0.00    -0.592 C  
HETATM    2  N   UNL     1     -13.224  14.565  72.519  1.00  0.00    -0.413 NA 
HETATM    3  N   UNL     1     -14.197  13.699  72.820  1.00  0.00    -0.544 NA 
HETATM    4  N   UNL     1     -13.899  12.609  72.127  1.00  0.00    -0.306 NA 
HETATM    5  C   UNL     1     -12.736  12.876  71.433  1.00  0.00    -0.270 A  
HETATM    6  N   UNL     1     -12.281  14.126  71.665  1.00  0.00    -0.276 NA 
ENDROOT
BRANCH   5   7
HETATM    7  C   UNL     1     -12.115  11.907  70.529  1.00  0.00    -0.331 A  
HETATM    8  C   UNL     1     -11.902  10.589  70.918  1.00  0.00    -0.455 A  
HETATM    9  C   UNL     1     -11.225   9.725  70.050  1.00  0.00    -0.297 A  
HETATM   10  C   UNL     1     -10.752  10.175  68.809  1.00  0.00    -0.247 A  
HETATM   11  N   UNL     1     -11.722  12.365  69.317  1.00  0.00    -0.315 NA 
HETATM   12  C   UNL     1     -11.063  11.503  68.503  1.00  0.00    -0.236 A  
BRANCH  10  13
HETATM   13  C   UNL     1      -9.902   9.345  67.926  1.00  0.00    -0.197 A  
HETATM   14  C   UNL     1      -9.855   9.577  66.542  1.00  0.00    -0.305 A  
HETATM   15  C   UNL     1      -9.158   8.725  65.673  1.00  0.00    -0.247 A  
HETATM   16  C   UNL     1      -8.470   7.606  66.149  1.00  0.00    -0.143 A  
HETATM   17  F   UNL     1      -9.122   7.961  69.700  1.00  0.00    -0.148 F  
HETATM   18  C   UNL     1      -8.472   7.388  67.528  1.00  0.00    -0.116 A  
HETATM   19  C   UNL     1      -9.169   8.242  68.389  1.00  0.00    -0.135 A  
BRANCH  16  20
HETATM   20  N   UNL     1      -7.773   6.744  65.272  1.00  0.00    -0.099 N  
HETATM   21  C   UNL     1      -7.093   4.734  64.453  1.00  0.00    -0.050 C  
HETATM   22  C   UNL     1      -8.336   5.554  64.701  1.00  0.00    -0.131 C  
HETATM   23  O   UNL     1      -6.113   5.728  64.130  1.00  0.00    -0.024 OA 
HETATM   24  O   UNL     1      -5.691   7.802  64.951  1.00  0.00    -0.037 OA 
HETATM   25  C   UNL     1      -6.466   6.874  64.809  1.00  0.00    -0.042 C  
BRANCH  21  26
HETATM   26  C   UNL     1      -6.623   3.967  65.691  1.00  0.00    -0.041 C  
BRANCH  26  27
HETATM   27  O   UNL     1      -7.518   4.145  66.779  1.00  0.00    -0.078 OA 
HETATM   28  P   UNL     1      -6.946   3.389  68.227  1.00  0.00    -0.051 P  
HETATM   29  O   UNL     1      -6.193   4.814  68.507  1.00  0.00    -0.029 OA 
HETATM   30  O   UNL     1      -6.435   2.713  69.523  1.00  0.00    -0.028 OA 
HETATM   31  O   UNL     1      -8.398   3.789  68.862  1.00  0.00    -0.071 OA 
ENDBRANCH  26  27
ENDBRANCH  21  26
ENDBRANCH  16  20
ENDBRANCH  10  13
ENDBRANCH   5   7
TORSDOF 5
ENDMDL
MODEL       85
REMARK 921   NORMALIZED FREE ENERGY PREDICTED BY IDOCK:   -4.68 KCAL/MOL
REMARK 922        TOTAL FREE ENERGY PREDICTED BY IDOCK:   -6.81 KCAL/MOL
REMARK 923 INTER-LIGAND FREE ENERGY PREDICTED BY IDOCK:   -6.02 KCAL/MOL
REMARK 924 INTRA-LIGAND FREE ENERGY PREDICTED BY IDOCK:   -0.80 KCAL/MOL
REMARK 927      BINDING AFFINITY PREDICTED BY RF-SCORE:    0.00 PKD
ROOT
HETATM    1  C   UNL     1     -13.320  15.513  71.357  1.00  0.00    -0.511 C  
HETATM    2  N   UNL     1     -12.710  14.496  70.544  1.00  0.00    -0.353 NA 
HETATM    3  N   UNL     1     -12.212  14.767  69.333  1.00  0.00    -0.256 NA 
HETATM    4  N   UNL     1     -11.766  13.601  68.887  1.00  0.00    -0.315 NA 
HETATM    5  C   UNL     1     -12.026  12.666  69.868  1.00  0.00    -0.295 A  
HETATM    6  N   UNL     1     -12.631  13.214  70.945  1.00  0.00    -0.330 NA 
ENDROOT
BRANCH   5   7
HETATM    7  C   UNL     1     -11.643  11.260  69.741  1.00  0.00    -0.333 A  
HETATM    8  C   UNL     1     -11.748  10.382  70.815  1.00  0.00    -0.464 A  
HETATM    9  C   UNL     1     -11.287   9.069  70.668  1.00  0.00    -0.311 A  
HETATM   10  C   UNL     1     -10.712   8.638  69.464  1.00  0.00    -0.189 A  
HETATM   11  N   UNL     1     -11.143  10.866  68.546  1.00  0.00    -0.235 NA 
HETATM   12  C   UNL     1     -10.699   9.589  68.440  1.00  0.00    -0.186 A  
BRANCH  10  13
HETATM   13  C   UNL     1     -10.073   7.312  69.311  1.00  0.00    -0.183 A  
HETATM   14  C   UNL     1      -8.910   6.984  70.025  1.00  0.00    -0.142 A  
HETATM   15  C   UNL     1      -8.218   5.784  69.800  1.00  0.00    -0.108 A  
HETATM   16  C   UNL     1      -8.661   4.856  68.856  1.00  0.00    -0.085 A  
HETATM   17  F   UNL     1     -11.651   6.553  67.696  1.00  0.00    -0.328 F  
HETATM   18  C   UNL     1      -9.841   5.149  68.169  1.00  0.00    -0.204 A  
HETATM   19  C   UNL     1     -10.526   6.347  68.399  1.00  0.00    -0.222 A  
BRANCH  16  20
HETATM   20  N   UNL     1      -7.960   3.651  68.625  1.00  0.00    -0.066 N  
HETATM   21  C   UNL     1      -7.143   1.940  67.368  1.00  0.00    -0.043 C  
HETATM   22  C   UNL     1      -7.068   3.440  67.520  1.00  0.00    -0.058 C  
HETATM   23  O   UNL     1      -7.317   1.489  68.717  1.00  0.00    -0.042 OA 
HETATM   24  O   UNL     1      -8.519   2.291  70.468  1.00  0.00    -0.048 OA 
HETATM   25  C   UNL     1      -7.992   2.486  69.388  1.00  0.00    -0.041 C  
BRANCH  21  26
HETATM   26  C   UNL     1      -8.344   1.480  66.539  1.00  0.00    -0.086 C  
BRANCH  26  27
HETATM   27  O   UNL     1      -9.073   2.587  66.028  1.00  0.00    -0.140 OA 
HETATM   28  P   UNL     1      -8.796   2.827  64.337  1.00  0.00    -0.114 P  
HETATM   29  O   UNL     1     -10.052   1.799  64.128  1.00  0.00    -0.089 OA 
HETATM   30  O   UNL     1      -8.549   3.043  62.824  1.00  0.00    -0.078 OA 
HETATM   31  O   UNL     1      -9.672   4.196  64.515  1.00  0.00    -0.163 OA 
ENDBRANCH  26  27
ENDBRANCH  21  26
ENDBRANCH  16  20
ENDBRANCH  10  13
ENDBRANCH   5   7
TORSDOF 5
ENDMDL
MODEL       86
REMARK 921   NORMALIZED FREE ENERGY PREDICTED BY IDOCK:   -4.61 KCAL/MOL
REMARK 922        TOTAL FREE ENERGY PREDICTED BY IDOCK:   -6.71 KCAL/MOL
REMARK 923 INTER-LIGAND FREE ENERGY PREDICTED BY IDOCK:   -6.34 KCAL/MOL
REMARK 924 INTRA-LIGAND FREE ENERGY PREDICTED BY IDOCK:   -0.38 KCAL/MOL
REMARK 927      BINDING AFFINITY PREDICTED BY RF-SCORE:    0.00 PKD
ROOT
HETATM    1  C   UNL     1      -8.759   1.468  64.894  1.00  0.00    -0.104 C  
HETATM    2  N   UNL     1      -8.365   2.851  64.887  1.00  0.00    -0.087 NA 
HETATM    3  N   UNL     1      -7.193   3.247  64.380  1.00  0.00    -0.057 NA 
HETATM    4  N   UNL     1      -7.173   4.559  64.569  1.00  0.00    -0.064 NA 
HETATM    5  C   UNL     1      -8.356   4.894  65.197  1.00  0.00    -0.133 A  
HETATM    6  N   UNL     1      -9.141   3.816  65.412  1.00  0.00    -0.137 NA 
ENDROOT
BRANCH   5   7
HETATM    7  C   UNL     1      -8.704   6.273  65.542  1.00  0.00    -0.082 A  
HETATM    8  C   UNL     1      -7.879   7.336  65.191  1.00  0.00    -0.123 A  
HETATM    9  C   UNL     1      -8.213   8.626  65.620  1.00  0.00    -0.123 A  
HETATM   10  C   UNL     1      -9.353   8.852  66.405  1.00  0.00    -0.262 A  
HETATM   11  N   UNL     1      -9.842   6.458  66.252  1.00  0.00    -0.058 NA 
HETATM   12  C   UNL     1     -10.132   7.719  66.657  1.00  0.00    -0.224 A  
BRANCH  10  13
HETATM   13  C   UNL     1      -9.662  10.168  67.008  1.00  0.00    -0.224 A  
HETATM   14  C   UNL     1     -10.985  10.630  67.093  1.00  0.00    -0.312 A  
HETATM   15  C   UNL     1     -11.289  11.924  67.542  1.00  0.00    -0.381 A  
HETATM   16  C   UNL     1     -10.284  12.812  67.934  1.00  0.00    -0.229 A  
HETATM   17  F   UNL     1      -7.380  10.694  67.441  1.00  0.00    -0.087 F  
HETATM   18  C   UNL     1      -8.967  12.350  67.896  1.00  0.00    -0.184 A  
HETATM   19  C   UNL     1      -8.672  11.058  67.447  1.00  0.00    -0.132 A  
BRANCH  16  20
HETATM   20  N   UNL     1     -10.590  14.117  68.380  1.00  0.00    -0.252 N  
HETATM   21  C   UNL     1     -10.522  15.884  69.810  1.00  0.00    -0.311 C  
HETATM   22  C   UNL     1      -9.630  15.012  68.961  1.00  0.00    -0.225 C  
HETATM   23  O   UNL     1     -11.731  15.947  69.045  1.00  0.00    -0.385 OA 
HETATM   24  O   UNL     1     -12.860  14.407  67.816  1.00  0.00     0.575 OA 
HETATM   25  C   UNL     1     -11.822  14.764  68.343  1.00  0.00    -0.286 C  
BRANCH  21  26
HETATM   26  C   UNL     1     -10.838  15.271  71.176  1.00  0.00    -0.080 C  
BRANCH  26  27
HETATM   27  O   UNL     1     -12.059  15.776  71.698  1.00  0.00    -0.371 OA 
HETATM   28  P   UNL     1     -13.177  14.513  72.083  1.00  0.00    -0.451 P  
HETATM   29  O   UNL     1     -12.454  14.511  73.551  1.00  0.00    -0.361 OA 
HETATM   30  O   UNL     1     -14.178  13.383  72.428  1.00  0.00    -0.637 OA 
HETATM   31  O   UNL     1     -14.244  15.716  72.375  1.00  0.00    -0.551 OA 
ENDBRANCH  26  27
ENDBRANCH  21  26
ENDBRANCH  16  20
ENDBRANCH  10  13
ENDBRANCH   5   7
TORSDOF 5
ENDMDL
MODEL       87
REMARK 921   NORMALIZED FREE ENERGY PREDICTED BY IDOCK:   -4.56 KCAL/MOL
REMARK 922        TOTAL FREE ENERGY PREDICTED BY IDOCK:   -6.65 KCAL/MOL
REMARK 923 INTER-LIGAND FREE ENERGY PREDICTED BY IDOCK:   -5.69 KCAL/MOL
REMARK 924 INTRA-LIGAND FREE ENERGY PREDICTED BY IDOCK:   -0.96 KCAL/MOL
REMARK 927      BINDING AFFINITY PREDICTED BY RF-SCORE:    0.00 PKD
ROOT
HETATM    1  C   UNL     1     -10.801  19.479  67.360  1.00  0.00    -0.414 C  
HETATM    2  N   UNL     1     -10.073  18.303  67.753  1.00  0.00    -0.338 NA 
HETATM    3  N   UNL     1      -8.906  18.380  68.400  1.00  0.00    -0.315 NA 
HETATM    4  N   UNL     1      -8.532  17.119  68.567  1.00  0.00    -0.255 NA 
HETATM    5  C   UNL     1      -9.510  16.329  67.998  1.00  0.00    -0.223 A  
HETATM    6  N   UNL     1     -10.513  17.063  67.469  1.00  0.00    -0.333 NA 
ENDROOT
BRANCH   5   7
HETATM    7  C   UNL     1      -9.456  14.867  68.017  1.00  0.00    -0.198 A  
HETATM    8  C   UNL     1      -8.247  14.188  67.911  1.00  0.00    -0.155 A  
HETATM    9  C   UNL     1      -8.256  12.790  67.846  1.00  0.00    -0.168 A  
HETATM   10  C   UNL     1      -9.462  12.075  67.872  1.00  0.00    -0.196 A  
HETATM   11  N   UNL     1     -10.637  14.211  68.100  1.00  0.00    -0.241 NA 
HETATM   12  C   UNL     1     -10.611  12.857  68.027  1.00  0.00    -0.227 A  
BRANCH  10  13
HETATM   13  C   UNL     1      -9.532  10.613  67.652  1.00  0.00    -0.167 A  
HETATM   14  C   UNL     1      -9.020   9.715  68.602  1.00  0.00    -0.129 A  
HETATM   15  C   UNL     1      -8.961   8.335  68.357  1.00  0.00    -0.136 A  
HETATM   16  C   UNL     1      -9.416   7.789  67.155  1.00  0.00    -0.155 A  
HETATM   17  F   UNL     1     -10.569  10.815  65.517  1.00  0.00    -0.316 F  
HETATM   18  C   UNL     1      -9.968   8.666  66.218  1.00  0.00    -0.287 A  
HETATM   19  C   UNL     1     -10.025  10.041  66.470  1.00  0.00    -0.225 A  
BRANCH  16  20
HETATM   20  N   UNL     1      -9.350   6.400  66.906  1.00  0.00    -0.130 N  
HETATM   21  C   UNL     1      -9.775   4.202  67.308  1.00  0.00    -0.170 C  
HETATM   22  C   UNL     1     -10.470   5.510  67.017  1.00  0.00    -0.274 C  
HETATM   23  O   UNL     1      -8.555   4.315  66.565  1.00  0.00    -0.111 OA 
HETATM   24  O   UNL     1      -7.131   6.044  66.193  1.00  0.00    -0.064 OA 
HETATM   25  C   UNL     1      -8.238   5.655  66.518  1.00  0.00    -0.106 C  
BRANCH  21  26
HETATM   26  C   UNL     1      -9.432   4.021  68.788  1.00  0.00    -0.158 C  
BRANCH  26  27
HETATM   27  O   UNL     1      -8.369   3.094  68.962  1.00  0.00    -0.059 OA 
HETATM   28  P   UNL     1      -7.197   3.651  70.106  1.00  0.00    -0.041 P  
HETATM   29  O   UNL     1      -8.137   2.908  71.221  1.00  0.00    -0.059 OA 
HETATM   30  O   UNL     1      -6.147   4.149  71.130  1.00  0.00    -0.013 OA 
HETATM   31  O   UNL     1      -6.323   2.343  69.661  1.00  0.00    -0.027 OA 
ENDBRANCH  26  27
ENDBRANCH  21  26
ENDBRANCH  16  20
ENDBRANCH  10  13
ENDBRANCH   5   7
TORSDOF 5
ENDMDL
MODEL       88
REMARK 921   NORMALIZED FREE ENERGY PREDICTED BY IDOCK:   -4.51 KCAL/MOL
REMARK 922        TOTAL FREE ENERGY PREDICTED BY IDOCK:   -6.59 KCAL/MOL
REMARK 923 INTER-LIGAND FREE ENERGY PREDICTED BY IDOCK:   -6.21 KCAL/MOL
REMARK 924 INTRA-LIGAND FREE ENERGY PREDICTED BY IDOCK:   -0.37 KCAL/MOL
REMARK 927      BINDING AFFINITY PREDICTED BY RF-SCORE:    0.00 PKD
ROOT
HETATM    1  C   UNL     1     -10.659  18.122  67.847  1.00  0.00    -0.371 C  
HETATM    2  N   UNL     1     -10.861  16.795  68.363  1.00  0.00    -0.357 NA 
HETATM    3  N   UNL     1     -11.284  16.582  69.613  1.00  0.00    -0.235 NA 
HETATM    4  N   UNL     1     -11.327  15.262  69.731  1.00  0.00    -0.267 NA 
HETATM    5  C   UNL     1     -10.916  14.735  68.524  1.00  0.00    -0.258 A  
HETATM    6  N   UNL     1     -10.612  15.697  67.626  1.00  0.00    -0.288 NA 
ENDROOT
BRANCH   5   7
HETATM    7  C   UNL     1     -10.864  13.295  68.266  1.00  0.00    -0.256 A  
HETATM    8  C   UNL     1     -11.452  12.384  69.137  1.00  0.00    -0.358 A  
HETATM    9  C   UNL     1     -11.299  11.014  68.893  1.00  0.00    -0.346 A  
HETATM   10  C   UNL     1     -10.553  10.557  67.796  1.00  0.00    -0.285 A  
HETATM   11  N   UNL     1     -10.182  12.894  67.167  1.00  0.00    -0.237 NA 
HETATM   12  C   UNL     1     -10.048  11.560  66.964  1.00  0.00    -0.210 A  
BRANCH  10  13
HETATM   13  C   UNL     1     -10.236   9.127  67.584  1.00  0.00    -0.293 A  
HETATM   14  C   UNL     1     -10.342   8.200  68.634  1.00  0.00    -0.224 A  
HETATM   15  C   UNL     1      -9.924   6.869  68.489  1.00  0.00    -0.149 A  
HETATM   16  C   UNL     1      -9.389   6.402  67.287  1.00  0.00    -0.119 A  
HETATM   17  F   UNL     1      -9.634   9.427  65.299  1.00  0.00    -0.311 F  
HETATM   18  C   UNL     1      -9.318   7.301  66.220  1.00  0.00    -0.160 A  
HETATM   19  C   UNL     1      -9.737   8.627  66.372  1.00  0.00    -0.263 A  
BRANCH  16  20
HETATM   20  N   UNL     1      -8.963   5.062  67.143  1.00  0.00    -0.112 N  
HETATM   21  C   UNL     1      -8.729   2.886  67.762  1.00  0.00    -0.114 C  
HETATM   22  C   UNL     1      -9.780   3.922  67.446  1.00  0.00    -0.124 C  
HETATM   23  O   UNL     1      -7.655   3.241  66.884  1.00  0.00    -0.074 OA 
HETATM   24  O   UNL     1      -6.799   5.238  66.222  1.00  0.00    -0.056 OA 
HETATM   25  C   UNL     1      -7.725   4.605  66.696  1.00  0.00    -0.091 C  
BRANCH  21  26
HETATM   26  C   UNL     1      -8.227   2.961  69.206  1.00  0.00    -0.054 C  
BRANCH  26  27
HETATM   27  O   UNL     1      -8.960   3.918  69.958  1.00  0.00    -0.082 OA 
HETATM   28  P   UNL     1      -9.558   3.263  71.443  1.00  0.00    -0.129 P  
HETATM   29  O   UNL     1      -8.126   3.747  72.070  1.00  0.00    -0.070 OA 
HETATM   30  O   UNL     1     -10.093   2.678  72.773  1.00  0.00    -0.131 OA 
HETATM   31  O   UNL     1     -10.350   4.684  71.607  1.00  0.00    -0.187 OA 
ENDBRANCH  26  27
ENDBRANCH  21  26
ENDBRANCH  16  20
ENDBRANCH  10  13
ENDBRANCH   5   7
TORSDOF 5
ENDMDL
MODEL       89
REMARK 921   NORMALIZED FREE ENERGY PREDICTED BY IDOCK:   -4.48 KCAL/MOL
REMARK 922        TOTAL FREE ENERGY PREDICTED BY IDOCK:   -6.56 KCAL/MOL
REMARK 923 INTER-LIGAND FREE ENERGY PREDICTED BY IDOCK:   -6.86 KCAL/MOL
REMARK 924 INTRA-LIGAND FREE ENERGY PREDICTED BY IDOCK:    0.31 KCAL/MOL
REMARK 927      BINDING AFFINITY PREDICTED BY RF-SCORE:    0.00 PKD
ROOT
HETATM    1  C   UNL     1      -8.418   2.830  68.159  1.00  0.00    -0.082 C  
HETATM    2  N   UNL     1      -8.976   4.088  68.574  1.00  0.00    -0.108 NA 
HETATM    3  N   UNL     1      -9.873   4.170  69.562  1.00  0.00    -0.179 NA 
HETATM    4  N   UNL     1     -10.168   5.460  69.640  1.00  0.00    -0.251 NA 
HETATM    5  C   UNL     1      -9.422   6.104  68.673  1.00  0.00    -0.124 A  
HETATM    6  N   UNL     1      -8.646   5.247  67.974  1.00  0.00    -0.104 NA 
ENDROOT
BRANCH   5   7
HETATM    7  C   UNL     1      -9.462   7.554  68.480  1.00  0.00    -0.146 A  
HETATM    8  C   UNL     1      -8.999   8.140  67.306  1.00  0.00    -0.149 A  
HETATM    9  C   UNL     1      -8.977   9.535  67.205  1.00  0.00    -0.148 A  
HETATM   10  C   UNL     1      -9.401  10.341  68.271  1.00  0.00    -0.140 A  
HETATM   11  N   UNL     1      -9.930   8.297  69.510  1.00  0.00    -0.183 NA 
HETATM   12  C   UNL     1      -9.889   9.646  69.382  1.00  0.00    -0.193 A  
BRANCH  10  13
HETATM   13  C   UNL     1      -9.254  11.814  68.270  1.00  0.00    -0.188 A  
HETATM   14  C   UNL     1     -10.365  12.651  68.465  1.00  0.00    -0.232 A  
HETATM   15  C   UNL     1     -10.271  14.045  68.340  1.00  0.00    -0.239 A  
HETATM   16  C   UNL     1      -9.061  14.666  68.022  1.00  0.00    -0.189 A  
HETATM   17  F   UNL     1      -6.914  11.748  67.829  1.00  0.00    -0.075 F  
HETATM   18  C   UNL     1      -7.939  13.850  67.867  1.00  0.00    -0.160 A  
HETATM   19  C   UNL     1      -8.040  12.460  67.994  1.00  0.00    -0.162 A  
BRANCH  16  20
HETATM   20  N   UNL     1      -8.968  16.070  67.889  1.00  0.00    -0.185 N  
HETATM   21  C   UNL     1      -9.742  18.165  67.459  1.00  0.00    -0.303 C  
HETATM   22  C   UNL     1      -9.952  16.990  68.384  1.00  0.00    -0.289 C  
HETATM   23  O   UNL     1      -8.333  18.125  67.204  1.00  0.00    -0.230 OA 
HETATM   24  O   UNL     1      -6.877  16.418  66.858  1.00  0.00    -0.203 OA 
HETATM   25  C   UNL     1      -7.949  16.804  67.285  1.00  0.00    -0.172 C  
BRANCH  21  26
HETATM   26  C   UNL     1     -10.485  18.022  66.128  1.00  0.00    -0.331 C  
BRANCH  26  27
HETATM   27  O   UNL     1     -10.122  16.821  65.462  1.00  0.00    -0.566 OA 
HETATM   28  P   UNL     1     -11.467  15.751  65.264  1.00  0.00     0.219 P  
HETATM   29  O   UNL     1     -11.717  16.552  63.859  1.00  0.00    -1.148 OA 
HETATM   30  O   UNL     1     -12.670  14.792  65.086  1.00  0.00    -0.262 OA 
HETATM   31  O   UNL     1     -10.370  14.676  64.701  1.00  0.00    -0.340 OA 
ENDBRANCH  26  27
ENDBRANCH  21  26
ENDBRANCH  16  20
ENDBRANCH  10  13
ENDBRANCH   5   7
TORSDOF 5
ENDMDL
MODEL       90
REMARK 921   NORMALIZED FREE ENERGY PREDICTED BY IDOCK:   -4.46 KCAL/MOL
REMARK 922        TOTAL FREE ENERGY PREDICTED BY IDOCK:   -6.53 KCAL/MOL
REMARK 923 INTER-LIGAND FREE ENERGY PREDICTED BY IDOCK:   -6.13 KCAL/MOL
REMARK 924 INTRA-LIGAND FREE ENERGY PREDICTED BY IDOCK:   -0.39 KCAL/MOL
REMARK 927      BINDING AFFINITY PREDICTED BY RF-SCORE:    0.00 PKD
ROOT
HETATM    1  C   UNL     1     -14.170  15.313  72.434  1.00  0.00    -0.486 C  
HETATM    2  N   UNL     1     -13.468  14.314  71.674  1.00  0.00    -0.356 NA 
HETATM    3  N   UNL     1     -12.872  14.601  70.513  1.00  0.00    -0.344 NA 
HETATM    4  N   UNL     1     -12.362  13.448  70.105  1.00  0.00    -0.287 NA 
HETATM    5  C   UNL     1     -12.686  12.503  71.057  1.00  0.00    -0.225 A  
HETATM    6  N   UNL     1     -13.396  13.032  72.078  1.00  0.00    -0.494 NA 
ENDROOT
BRANCH   5   7
HETATM    7  C   UNL     1     -12.262  11.106  70.961  1.00  0.00    -0.333 A  
HETATM    8  C   UNL     1     -12.636  10.170  71.919  1.00  0.00    -0.437 A  
HETATM    9  C   UNL     1     -12.133   8.867  71.830  1.00  0.00    -0.443 A  
HETATM   10  C   UNL     1     -11.251   8.504  70.801  1.00  0.00    -0.289 A  
HETATM   11  N   UNL     1     -11.457  10.780  69.923  1.00  0.00    -0.294 NA 
HETATM   12  C   UNL     1     -10.982   9.511  69.870  1.00  0.00    -0.238 A  
BRANCH  10  13
HETATM   13  C   UNL     1     -10.575   7.189  70.752  1.00  0.00    -0.240 A  
HETATM   14  C   UNL     1      -9.751   6.761  71.805  1.00  0.00    -0.164 A  
HETATM   15  C   UNL     1      -9.000   5.578  71.723  1.00  0.00    -0.144 A  
HETATM   16  C   UNL     1      -9.046   4.766  70.588  1.00  0.00    -0.128 A  
HETATM   17  F   UNL     1     -11.431   6.641  68.597  1.00  0.00    -0.272 F  
HETATM   18  C   UNL     1      -9.895   5.157  69.550  1.00  0.00    -0.278 A  
HETATM   19  C   UNL     1     -10.640   6.337  69.639  1.00  0.00    -0.264 A  
BRANCH  16  20
HETATM   20  N   UNL     1      -8.285   3.578  70.502  1.00  0.00    -0.053 N  
HETATM   21  C   UNL     1      -6.433   2.333  70.064  1.00  0.00    -0.028 C  
HETATM   22  C   UNL     1      -6.922   3.465  70.936  1.00  0.00    -0.033 C  
HETATM   23  O   UNL     1      -7.595   1.507  69.930  1.00  0.00    -0.036 OA 
HETATM   24  O   UNL     1      -9.800   1.979  69.663  1.00  0.00     0.066 OA 
HETATM   25  C   UNL     1      -8.690   2.341  70.008  1.00  0.00    -0.062 C  
BRANCH  21  26
HETATM   26  C   UNL     1      -5.995   2.794  68.672  1.00  0.00    -0.024 C  
BRANCH  26  27
HETATM   27  O   UNL     1      -6.931   2.397  67.680  1.00  0.00    -0.046 OA 
HETATM   28  P   UNL     1      -6.862   3.406  66.276  1.00  0.00    -0.055 P  
HETATM   29  O   UNL     1      -5.730   2.351  65.745  1.00  0.00    -0.016 OA 
HETATM   30  O   UNL     1      -6.801   4.309  65.019  1.00  0.00    -0.047 OA 
HETATM   31  O   UNL     1      -8.177   2.578  65.768  1.00  0.00    -0.083 OA 
ENDBRANCH  26  27
ENDBRANCH  21  26
ENDBRANCH  16  20
ENDBRANCH  10  13
ENDBRANCH   5   7
TORSDOF 5
ENDMDL
MODEL       91
REMARK 921   NORMALIZED FREE ENERGY PREDICTED BY IDOCK:   -4.38 KCAL/MOL
REMARK 922        TOTAL FREE ENERGY PREDICTED BY IDOCK:   -6.42 KCAL/MOL
REMARK 923 INTER-LIGAND FREE ENERGY PREDICTED BY IDOCK:   -6.09 KCAL/MOL
REMARK 924 INTRA-LIGAND FREE ENERGY PREDICTED BY IDOCK:   -0.32 KCAL/MOL
REMARK 927      BINDING AFFINITY PREDICTED BY RF-SCORE:    0.00 PKD
ROOT
HETATM    1  C   UNL     1      -9.526   3.560  69.379  1.00  0.00    -0.164 C  
HETATM    2  N   UNL     1      -9.842   4.945  69.600  1.00  0.00    -0.200 NA 
HETATM    3  N   UNL     1     -10.945   5.321  70.255  1.00  0.00    -0.052 NA 
HETATM    4  N   UNL     1     -10.908   6.646  70.239  1.00  0.00    -0.251 NA 
HETATM    5  C   UNL     1      -9.764   7.010  69.558  1.00  0.00    -0.160 A  
HETATM    6  N   UNL     1      -9.059   5.937  69.137  1.00  0.00    -0.122 NA 
ENDROOT
BRANCH   5   7
HETATM    7  C   UNL     1      -9.370   8.406  69.365  1.00  0.00    -0.154 A  
HETATM    8  C   UNL     1     -10.278   9.445  69.541  1.00  0.00    -0.219 A  
HETATM    9  C   UNL     1      -9.875  10.755  69.259  1.00  0.00    -0.160 A  
HETATM   10  C   UNL     1      -8.582  11.026  68.791  1.00  0.00    -0.144 A  
HETATM   11  N   UNL     1      -8.095   8.633  68.966  1.00  0.00    -0.118 NA 
HETATM   12  C   UNL     1      -7.741   9.914  68.695  1.00  0.00    -0.081 A  
BRANCH  10  13
HETATM   13  C   UNL     1      -8.160  12.370  68.335  1.00  0.00    -0.143 A  
HETATM   14  C   UNL     1      -6.812  12.759  68.385  1.00  0.00    -0.091 A  
HETATM   15  C   UNL     1      -6.408  14.068  68.079  1.00  0.00    -0.146 A  
HETATM   16  C   UNL     1      -7.333  15.044  67.704  1.00  0.00    -0.188 A  
HETATM   17  F   UNL     1     -10.374  13.066  67.799  1.00  0.00    -0.212 F  
HETATM   18  C   UNL     1      -8.673  14.660  67.609  1.00  0.00    -0.181 A  
HETATM   19  C   UNL     1      -9.067  13.353  67.914  1.00  0.00    -0.208 A  
BRANCH  16  20
HETATM   20  N   UNL     1      -6.928  16.364  67.403  1.00  0.00    -0.147 N  
HETATM   21  C   UNL     1      -6.172  18.457  67.877  1.00  0.00    -0.184 C  
HETATM   22  C   UNL     1      -5.779  17.002  67.979  1.00  0.00    -0.120 C  
HETATM   23  O   UNL     1      -6.936  18.497  66.666  1.00  0.00    -0.191 OA 
HETATM   24  O   UNL     1      -8.450  17.075  65.748  1.00  0.00    -0.508 OA 
HETATM   25  C   UNL     1      -7.533  17.263  66.527  1.00  0.00    -0.280 C  
BRANCH  21  26
HETATM   26  C   UNL     1      -7.061  18.921  69.032  1.00  0.00    -0.306 C  
BRANCH  26  27
HETATM   27  O   UNL     1      -6.469  18.627  70.289  1.00  0.00     0.026 OA 
HETATM   28  P   UNL     1      -5.778  20.029  71.031  1.00  0.00    -0.260 P  
HETATM   29  O   UNL     1      -7.262  20.241  71.688  1.00  0.00     0.167 OA 
HETATM   30  O   UNL     1      -5.160  21.284  71.696  1.00  0.00    -0.550 OA 
HETATM   31  O   UNL     1      -5.195  18.995  72.155  1.00  0.00    -0.743 OA 
ENDBRANCH  26  27
ENDBRANCH  21  26
ENDBRANCH  16  20
ENDBRANCH  10  13
ENDBRANCH   5   7
TORSDOF 5
ENDMDL
MODEL       92
REMARK 921   NORMALIZED FREE ENERGY PREDICTED BY IDOCK:   -4.37 KCAL/MOL
REMARK 922        TOTAL FREE ENERGY PREDICTED BY IDOCK:   -6.41 KCAL/MOL
REMARK 923 INTER-LIGAND FREE ENERGY PREDICTED BY IDOCK:   -6.30 KCAL/MOL
REMARK 924 INTRA-LIGAND FREE ENERGY PREDICTED BY IDOCK:   -0.11 KCAL/MOL
REMARK 927      BINDING AFFINITY PREDICTED BY RF-SCORE:    0.00 PKD
ROOT
HETATM    1  C   UNL     1     -14.259  15.661  71.460  1.00  0.00    -0.176 C  
HETATM    2  N   UNL     1     -13.432  14.557  71.053  1.00  0.00    -0.345 NA 
HETATM    3  N   UNL     1     -12.511  14.683  70.092  1.00  0.00    -0.333 NA 
HETATM    4  N   UNL     1     -11.978  13.475  69.979  1.00  0.00    -0.334 NA 
HETATM    5  C   UNL     1     -12.619  12.663  70.893  1.00  0.00    -0.249 A  
HETATM    6  N   UNL     1     -13.557  13.333  71.598  1.00  0.00    -0.267 NA 
ENDROOT
BRANCH   5   7
HETATM    7  C   UNL     1     -12.272  11.254  71.079  1.00  0.00    -0.311 A  
HETATM    8  C   UNL     1     -13.002  10.437  71.935  1.00  0.00    -0.555 A  
HETATM    9  C   UNL     1     -12.578   9.120  72.145  1.00  0.00    -0.451 A  
HETATM   10  C   UNL     1     -11.425   8.626  71.517  1.00  0.00    -0.363 A  
HETATM   11  N   UNL     1     -11.185  10.798  70.413  1.00  0.00    -0.260 NA 
HETATM   12  C   UNL     1     -10.797   9.519  70.645  1.00  0.00    -0.306 A  
BRANCH  10  13
HETATM   13  C   UNL     1     -10.852   7.296  71.826  1.00  0.00    -0.251 A  
HETATM   14  C   UNL     1     -10.320   7.016  73.094  1.00  0.00    -0.314 A  
HETATM   15  C   UNL     1      -9.659   5.809  73.368  1.00  0.00    -0.143 A  
HETATM   16  C   UNL     1      -9.504   4.827  72.389  1.00  0.00    -0.134 A  
HETATM   17  F   UNL     1     -11.235   6.438  69.637  1.00  0.00    -0.333 F  
HETATM   18  C   UNL     1     -10.066   5.074  71.134  1.00  0.00    -0.293 A  
HETATM   19  C   UNL     1     -10.725   6.279  70.868  1.00  0.00    -0.259 A  
BRANCH  16  20
HETATM   20  N   UNL     1      -8.832   3.614  72.662  1.00  0.00    -0.093 N  
HETATM   21  C   UNL     1      -7.019   2.268  72.935  1.00  0.00    -0.027 C  
HETATM   22  C   UNL     1      -7.667   3.512  73.493  1.00  0.00    -0.066 C  
HETATM   23  O   UNL     1      -8.142   1.468  72.548  1.00  0.00    -0.044 OA 
HETATM   24  O   UNL     1     -10.136   1.972  71.584  1.00  0.00    -0.151 OA 
HETATM   25  C   UNL     1      -9.155   2.338  72.205  1.00  0.00    -0.080 C  
BRANCH  21  26
HETATM   26  C   UNL     1      -6.163   2.541  71.696  1.00  0.00    -0.014 C  
BRANCH  26  27
HETATM   27  O   UNL     1      -6.965   2.923  70.588  1.00  0.00    -0.033 OA 
HETATM   28  P   UNL     1      -6.302   4.274  69.735  1.00  0.00    -0.029 P  
HETATM   29  O   UNL     1      -5.492   3.149  68.866  1.00  0.00    -0.012 OA 
HETATM   30  O   UNL     1      -5.708   5.483  68.971  1.00  0.00    -0.013 OA 
HETATM   31  O   UNL     1      -7.688   4.251  68.870  1.00  0.00    -0.058 OA 
ENDBRANCH  26  27
ENDBRANCH  21  26
ENDBRANCH  16  20
ENDBRANCH  10  13
ENDBRANCH   5   7
TORSDOF 5
ENDMDL
MODEL       93
REMARK 921   NORMALIZED FREE ENERGY PREDICTED BY IDOCK:   -4.31 KCAL/MOL
REMARK 922        TOTAL FREE ENERGY PREDICTED BY IDOCK:   -6.33 KCAL/MOL
REMARK 923 INTER-LIGAND FREE ENERGY PREDICTED BY IDOCK:   -6.20 KCAL/MOL
REMARK 924 INTRA-LIGAND FREE ENERGY PREDICTED BY IDOCK:   -0.14 KCAL/MOL
REMARK 927      BINDING AFFINITY PREDICTED BY RF-SCORE:    0.00 PKD
ROOT
HETATM    1  C   UNL     1      -9.301   1.924  64.566  1.00  0.00    -0.129 C  
HETATM    2  N   UNL     1      -8.655   2.916  65.384  1.00  0.00    -0.102 NA 
HETATM    3  N   UNL     1      -7.664   2.600  66.224  1.00  0.00    -0.076 NA 
HETATM    4  N   UNL     1      -7.346   3.745  66.810  1.00  0.00    -0.068 NA 
HETATM    5  C   UNL     1      -8.179   4.713  66.287  1.00  0.00    -0.107 A  
HETATM    6  N   UNL     1      -9.030   4.208  65.367  1.00  0.00    -0.126 NA 
ENDROOT
BRANCH   5   7
HETATM    7  C   UNL     1      -8.098   6.120  66.678  1.00  0.00    -0.109 A  
HETATM    8  C   UNL     1      -7.889   6.492  68.002  1.00  0.00    -0.105 A  
HETATM    9  C   UNL     1      -7.907   7.850  68.338  1.00  0.00    -0.120 A  
HETATM   10  C   UNL     1      -8.147   8.830  67.363  1.00  0.00    -0.105 A  
HETATM   11  N   UNL     1      -8.279   7.039  65.700  1.00  0.00    -0.129 NA 
HETATM   12  C   UNL     1      -8.298   8.346  66.061  1.00  0.00    -0.126 A  
BRANCH  10  13
HETATM   13  C   UNL     1      -8.328  10.262  67.694  1.00  0.00    -0.114 A  
HETATM   14  C   UNL     1      -9.465  10.964  67.264  1.00  0.00    -0.176 A  
HETATM   15  C   UNL     1      -9.595  12.348  67.456  1.00  0.00    -0.185 A  
HETATM   16  C   UNL     1      -8.598  13.091  68.091  1.00  0.00    -0.188 A  
HETATM   17  F   UNL     1      -6.252  10.429  68.851  1.00  0.00    -0.044 F  
HETATM   18  C   UNL     1      -7.480  12.398  68.563  1.00  0.00    -0.112 A  
HETATM   19  C   UNL     1      -7.358  11.018  68.368  1.00  0.00    -0.096 A  
BRANCH  16  20
HETATM   20  N   UNL     1      -8.726  14.486  68.278  1.00  0.00    -0.167 N  
HETATM   21  C   UNL     1      -9.844  16.461  68.417  1.00  0.00    -0.233 C  
HETATM   22  C   UNL     1      -9.760  15.099  69.062  1.00  0.00    -0.234 C  
HETATM   23  O   UNL     1      -8.489  16.716  68.029  1.00  0.00    -0.184 OA 
HETATM   24  O   UNL     1      -6.859  15.394  67.162  1.00  0.00    -0.244 OA 
HETATM   25  C   UNL     1      -7.911  15.493  67.766  1.00  0.00    -0.143 C  
BRANCH  21  26
HETATM   26  C   UNL     1     -10.725  16.480  67.166  1.00  0.00    -0.220 C  
BRANCH  26  27
HETATM   27  O   UNL     1     -10.189  15.649  66.146  1.00  0.00    -0.275 OA 
HETATM   28  P   UNL     1     -11.405  15.103  65.043  1.00  0.00    -0.300 P  
HETATM   29  O   UNL     1     -11.071  16.475  64.215  1.00  0.00    -0.915 OA 
HETATM   30  O   UNL     1     -12.492  14.615  64.054  1.00  0.00    -0.796 OA 
HETATM   31  O   UNL     1     -10.225  14.174  64.396  1.00  0.00    -0.272 OA 
ENDBRANCH  26  27
ENDBRANCH  21  26
ENDBRANCH  16  20
ENDBRANCH  10  13
ENDBRANCH   5   7
TORSDOF 5
ENDMDL
MODEL       94
REMARK 921   NORMALIZED FREE ENERGY PREDICTED BY IDOCK:   -4.28 KCAL/MOL
REMARK 922        TOTAL FREE ENERGY PREDICTED BY IDOCK:   -6.30 KCAL/MOL
REMARK 923 INTER-LIGAND FREE ENERGY PREDICTED BY IDOCK:   -5.44 KCAL/MOL
REMARK 924 INTRA-LIGAND FREE ENERGY PREDICTED BY IDOCK:   -0.85 KCAL/MOL
REMARK 927      BINDING AFFINITY PREDICTED BY RF-SCORE:    0.00 PKD
ROOT
HETATM    1  C   UNL     1     -11.028  19.459  67.338  1.00  0.00    -0.334 C  
HETATM    2  N   UNL     1     -10.147  18.382  67.699  1.00  0.00    -0.342 NA 
HETATM    3  N   UNL     1      -8.913  18.606  68.164  1.00  0.00    -0.302 NA 
HETATM    4  N   UNL     1      -8.405  17.397  68.360  1.00  0.00    -0.255 NA 
HETATM    5  C   UNL     1      -9.375  16.486  67.992  1.00  0.00    -0.218 A  
HETATM    6  N   UNL     1     -10.505  17.092  67.565  1.00  0.00    -0.333 NA 
ENDROOT
BRANCH   5   7
HETATM    7  C   UNL     1      -9.183  15.040  68.101  1.00  0.00    -0.183 A  
HETATM    8  C   UNL     1      -7.915  14.473  68.039  1.00  0.00    -0.136 A  
HETATM    9  C   UNL     1      -7.792  13.079  68.060  1.00  0.00    -0.146 A  
HETATM   10  C   UNL     1      -8.926  12.256  68.127  1.00  0.00    -0.192 A  
HETATM   11  N   UNL     1     -10.299  14.281  68.220  1.00  0.00    -0.236 NA 
HETATM   12  C   UNL     1     -10.144  12.934  68.231  1.00  0.00    -0.242 A  
BRANCH  10  13
HETATM   13  C   UNL     1      -8.856  10.783  67.997  1.00  0.00    -0.132 A  
HETATM   14  C   UNL     1      -9.140  10.152  66.776  1.00  0.00    -0.159 A  
HETATM   15  C   UNL     1      -9.205   8.755  66.663  1.00  0.00    -0.223 A  
HETATM   16  C   UNL     1      -8.983   7.926  67.765  1.00  0.00    -0.128 A  
HETATM   17  F   UNL     1      -8.274  10.442  70.281  1.00  0.00    -0.111 F  
HETATM   18  C   UNL     1      -8.656   8.539  68.976  1.00  0.00    -0.130 A  
HETATM   19  C   UNL     1      -8.593   9.933  69.081  1.00  0.00    -0.157 A  
BRANCH  16  20
HETATM   20  N   UNL     1      -9.055   6.519  67.653  1.00  0.00    -0.113 N  
HETATM   21  C   UNL     1      -8.626   4.493  66.714  1.00  0.00    -0.104 C  
HETATM   22  C   UNL     1      -7.934   5.681  67.337  1.00  0.00    -0.102 C  
HETATM   23  O   UNL     1      -9.857   4.420  67.443  1.00  0.00    -0.185 OA 
HETATM   24  O   UNL     1     -11.285   6.006  68.221  1.00  0.00    -0.273 OA 
HETATM   25  C   UNL     1     -10.173   5.707  67.824  1.00  0.00    -0.193 C  
BRANCH  21  26
HETATM   26  C   UNL     1      -8.947   4.694  65.231  1.00  0.00    -0.148 C  
BRANCH  26  27
HETATM   27  O   UNL     1      -8.439   5.933  64.757  1.00  0.00    -0.128 OA 
HETATM   28  P   UNL     1      -7.142   5.720  63.631  1.00  0.00    -0.058 P  
HETATM   29  O   UNL     1      -8.321   5.676  62.497  1.00  0.00    -0.106 OA 
HETATM   30  O   UNL     1      -5.982   5.531  62.624  1.00  0.00    -0.017 OA 
HETATM   31  O   UNL     1      -6.978   7.345  63.702  1.00  0.00    -0.055 OA 
ENDBRANCH  26  27
ENDBRANCH  21  26
ENDBRANCH  16  20
ENDBRANCH  10  13
ENDBRANCH   5   7
TORSDOF 5
ENDMDL
MODEL       95
REMARK 921   NORMALIZED FREE ENERGY PREDICTED BY IDOCK:   -4.27 KCAL/MOL
REMARK 922        TOTAL FREE ENERGY PREDICTED BY IDOCK:   -6.28 KCAL/MOL
REMARK 923 INTER-LIGAND FREE ENERGY PREDICTED BY IDOCK:   -6.96 KCAL/MOL
REMARK 924 INTRA-LIGAND FREE ENERGY PREDICTED BY IDOCK:    0.68 KCAL/MOL
REMARK 927      BINDING AFFINITY PREDICTED BY RF-SCORE:    0.00 PKD
ROOT
HETATM    1  C   UNL     1      -7.987   3.058  68.850  1.00  0.00    -0.056 C  
HETATM    2  N   UNL     1      -8.867   4.148  69.174  1.00  0.00    -0.090 NA 
HETATM    3  N   UNL     1      -9.832   4.025  70.091  1.00  0.00    -0.194 NA 
HETATM    4  N   UNL     1     -10.439   5.204  70.097  1.00  0.00    -0.275 NA 
HETATM    5  C   UNL     1      -9.800   5.992  69.162  1.00  0.00    -0.148 A  
HETATM    6  N   UNL     1      -8.785   5.339  68.555  1.00  0.00    -0.098 NA 
ENDROOT
BRANCH   5   7
HETATM    7  C   UNL     1     -10.178   7.383  68.909  1.00  0.00    -0.196 A  
HETATM    8  C   UNL     1     -10.300   7.874  67.614  1.00  0.00    -0.307 A  
HETATM    9  C   UNL     1     -10.579   9.233  67.425  1.00  0.00    -0.324 A  
HETATM   10  C   UNL     1     -10.720  10.098  68.520  1.00  0.00    -0.264 A  
HETATM   11  N   UNL     1     -10.361   8.175  69.992  1.00  0.00    -0.210 NA 
HETATM   12  C   UNL     1     -10.623   9.487  69.773  1.00  0.00    -0.236 A  
BRANCH  10  13
HETATM   13  C   UNL     1     -10.861  11.564  68.370  1.00  0.00    -0.250 A  
HETATM   14  C   UNL     1     -10.366  12.225  67.235  1.00  0.00    -0.228 A  
HETATM   15  C   UNL     1     -10.375  13.623  67.131  1.00  0.00    -0.250 A  
HETATM   16  C   UNL     1     -10.885  14.425  68.154  1.00  0.00    -0.244 A  
HETATM   17  F   UNL     1     -11.942  11.843  70.474  1.00  0.00    -0.405 F  
HETATM   18  C   UNL     1     -11.421  13.780  69.271  1.00  0.00    -0.344 A  
HETATM   19  C   UNL     1     -11.409  12.384  69.367  1.00  0.00    -0.220 A  
BRANCH  16  20
HETATM   20  N   UNL     1     -10.888  15.834  68.053  1.00  0.00    -0.299 N  
HETATM   21  C   UNL     1     -10.290  17.848  67.181  1.00  0.00    -0.367 C  
HETATM   22  C   UNL     1     -10.967  16.550  66.812  1.00  0.00     0.046 C  
HETATM   23  O   UNL     1     -10.661  18.024  68.553  1.00  0.00    -0.313 OA 
HETATM   24  O   UNL     1     -10.871  16.577  70.291  1.00  0.00    -0.294 OA 
HETATM   25  C   UNL     1     -10.821  16.764  69.089  1.00  0.00    -0.287 C  
BRANCH  21  26
HETATM   26  C   UNL     1      -8.765  17.777  67.090  1.00  0.00    -0.245 C  
BRANCH  26  27
HETATM   27  O   UNL     1      -8.206  17.182  68.253  1.00  0.00    -0.213 OA 
HETATM   28  P   UNL     1      -7.487  15.645  67.919  1.00  0.00    -0.160 P  
HETATM   29  O   UNL     1      -6.130  16.504  67.607  1.00  0.00    -0.115 OA 
HETATM   30  O   UNL     1      -6.843  14.268  67.621  1.00  0.00    -0.170 OA 
HETATM   31  O   UNL     1      -7.292  15.523  69.538  1.00  0.00    -0.200 OA 
ENDBRANCH  26  27
ENDBRANCH  21  26
ENDBRANCH  16  20
ENDBRANCH  10  13
ENDBRANCH   5   7
TORSDOF 5
ENDMDL
MODEL       96
REMARK 921   NORMALIZED FREE ENERGY PREDICTED BY IDOCK:   -4.25 KCAL/MOL
REMARK 922        TOTAL FREE ENERGY PREDICTED BY IDOCK:   -6.25 KCAL/MOL
REMARK 923 INTER-LIGAND FREE ENERGY PREDICTED BY IDOCK:   -5.90 KCAL/MOL
REMARK 924 INTRA-LIGAND FREE ENERGY PREDICTED BY IDOCK:   -0.35 KCAL/MOL
REMARK 927      BINDING AFFINITY PREDICTED BY RF-SCORE:    0.00 PKD
ROOT
HETATM    1  C   UNL     1     -11.649   2.251  73.586  1.00  0.00    -0.146 C  
HETATM    2  N   UNL     1     -11.208   3.618  73.507  1.00  0.00    -0.229 NA 
HETATM    3  N   UNL     1     -10.692   4.254  74.563  1.00  0.00    -0.265 NA 
HETATM    4  N   UNL     1     -10.431   5.476  74.122  1.00  0.00    -0.279 NA 
HETATM    5  C   UNL     1     -10.814   5.518  72.797  1.00  0.00    -0.263 A  
HETATM    6  N   UNL     1     -11.315   4.337  72.375  1.00  0.00     0.355 NA 
ENDROOT
BRANCH   5   7
HETATM    7  C   UNL     1     -10.647   6.709  71.963  1.00  0.00    -0.211 A  
HETATM    8  C   UNL     1      -9.874   7.785  72.387  1.00  0.00    -0.264 A  
HETATM    9  C   UNL     1      -9.816   8.936  71.592  1.00  0.00    -0.387 A  
HETATM   10  C   UNL     1     -10.536   9.018  70.391  1.00  0.00    -0.254 A  
HETATM   11  N   UNL     1     -11.312   6.730  70.784  1.00  0.00    -0.303 NA 
HETATM   12  C   UNL     1     -11.240   7.863  70.042  1.00  0.00    -0.100 A  
BRANCH  10  13
HETATM   13  C   UNL     1     -10.629  10.264  69.597  1.00  0.00    -0.288 A  
HETATM   14  C   UNL     1     -11.081  11.459  70.179  1.00  0.00     0.064 A  
HETATM   15  C   UNL     1     -11.298  12.617  69.417  1.00  0.00    -0.273 A  
HETATM   16  C   UNL     1     -11.067  12.634  68.040  1.00  0.00    -0.251 A  
HETATM   17  F   UNL     1      -9.889   9.233  67.581  1.00  0.00    -0.171 F  
HETATM   18  C   UNL     1     -10.576  11.465  67.454  1.00  0.00    -0.257 A  
HETATM   19  C   UNL     1     -10.361  10.314  68.221  1.00  0.00    -0.181 A  
BRANCH  16  20
HETATM   20  N   UNL     1     -11.293  13.798  67.270  1.00  0.00    -0.307 N  
HETATM   21  C   UNL     1     -11.755  14.970  65.377  1.00  0.00    -0.170 C  
HETATM   22  C   UNL     1     -12.340  13.927  66.298  1.00  0.00    -0.449 C  
HETATM   23  O   UNL     1     -11.002  15.800  66.270  1.00  0.00    -0.277 OA 
HETATM   24  O   UNL     1      -9.702  15.341  68.074  1.00  0.00    -0.209 OA 
HETATM   25  C   UNL     1     -10.579  14.993  67.305  1.00  0.00    -0.279 C  
BRANCH  21  26
HETATM   26  C   UNL     1     -10.802  14.383  64.333  1.00  0.00    -0.106 C  
BRANCH  26  27
HETATM   27  O   UNL     1     -11.237  13.102  63.901  1.00  0.00    -0.387 OA 
HETATM   28  P   UNL     1      -9.922  12.108  63.375  1.00  0.00     0.164 P  
HETATM   29  O   UNL     1      -9.832  11.641  64.940  1.00  0.00    -0.241 OA 
HETATM   30  O   UNL     1      -8.745  11.219  62.903  1.00  0.00    -0.181 OA 
HETATM   31  O   UNL     1     -11.074  11.048  62.904  1.00  0.00     0.248 OA 
ENDBRANCH  26  27
ENDBRANCH  21  26
ENDBRANCH  16  20
ENDBRANCH  10  13
ENDBRANCH   5   7
TORSDOF 5
ENDMDL
MODEL       97
REMARK 921   NORMALIZED FREE ENERGY PREDICTED BY IDOCK:   -4.17 KCAL/MOL
REMARK 922        TOTAL FREE ENERGY PREDICTED BY IDOCK:   -6.14 KCAL/MOL
REMARK 923 INTER-LIGAND FREE ENERGY PREDICTED BY IDOCK:   -5.07 KCAL/MOL
REMARK 924 INTRA-LIGAND FREE ENERGY PREDICTED BY IDOCK:   -1.07 KCAL/MOL
REMARK 927      BINDING AFFINITY PREDICTED BY RF-SCORE:    0.00 PKD
ROOT
HETATM    1  C   UNL     1     -11.734   1.496  73.723  1.00  0.00    -0.171 C  
HETATM    2  N   UNL     1     -10.843   2.615  73.570  1.00  0.00    -0.178 NA 
HETATM    3  N   UNL     1      -9.913   2.905  74.485  1.00  0.00    -0.122 NA 
HETATM    4  N   UNL     1      -9.316   3.994  74.020  1.00  0.00    -0.098 NA 
HETATM    5  C   UNL     1      -9.932   4.314  72.828  1.00  0.00    -0.153 A  
HETATM    6  N   UNL     1     -10.916   3.444  72.513  1.00  0.00     0.187 NA 
ENDROOT
BRANCH   5   7
HETATM    7  C   UNL     1      -9.516   5.450  72.004  1.00  0.00    -0.148 A  
HETATM    8  C   UNL     1      -8.400   5.374  71.178  1.00  0.00    -0.124 A  
HETATM    9  C   UNL     1      -7.994   6.515  70.477  1.00  0.00    -0.112 A  
HETATM   10  C   UNL     1      -8.686   7.727  70.611  1.00  0.00    -0.139 A  
HETATM   11  N   UNL     1     -10.243   6.588  72.118  1.00  0.00    -0.184 NA 
HETATM   12  C   UNL     1      -9.817   7.676  71.431  1.00  0.00    -0.174 A  
BRANCH  10  13
HETATM   13  C   UNL     1      -8.206   8.994  70.014  1.00  0.00    -0.128 A  
HETATM   14  C   UNL     1      -7.054   9.631  70.501  1.00  0.00    -0.137 A  
HETATM   15  C   UNL     1      -6.655  10.894  70.037  1.00  0.00    -0.151 A  
HETATM   16  C   UNL     1      -7.386  11.573  69.061  1.00  0.00    -0.094 A  
HETATM   17  F   UNL     1      -9.996   9.128  68.447  1.00  0.00    -0.167 F  
HETATM   18  C   UNL     1      -8.511  10.933  68.535  1.00  0.00    -0.147 A  
HETATM   19  C   UNL     1      -8.902   9.673  69.003  1.00  0.00    -0.147 A  
BRANCH  16  20
HETATM   20  N   UNL     1      -6.988  12.848  68.598  1.00  0.00    -0.097 N  
HETATM   21  C   UNL     1      -7.281  15.036  68.051  1.00  0.00    -0.131 C  
HETATM   22  C   UNL     1      -7.372  14.083  69.218  1.00  0.00     0.016 C  
HETATM   23  O   UNL     1      -6.192  14.504  67.287  1.00  0.00    -0.302 OA 
HETATM   24  O   UNL     1      -5.548  12.384  66.790  1.00  0.00    -0.319 OA 
HETATM   25  C   UNL     1      -6.180  13.143  67.502  1.00  0.00    -0.122 C  
BRANCH  21  26
HETATM   26  C   UNL     1      -8.538  15.036  67.177  1.00  0.00    -0.223 C  
BRANCH  26  27
HETATM   27  O   UNL     1      -9.683  15.426  67.921  1.00  0.00    -0.207 OA 
HETATM   28  P   UNL     1     -11.142  14.761  67.272  1.00  0.00    -0.349 P  
HETATM   29  O   UNL     1     -10.834  13.490  68.256  1.00  0.00    -0.243 OA 
HETATM   30  O   UNL     1     -12.448  14.165  66.692  1.00  0.00    -0.426 OA 
HETATM   31  O   UNL     1     -11.911  15.696  68.370  1.00  0.00    -0.283 OA 
ENDBRANCH  26  27
ENDBRANCH  21  26
ENDBRANCH  16  20
ENDBRANCH  10  13
ENDBRANCH   5   7
TORSDOF 5
ENDMDL
MODEL       98
REMARK 921   NORMALIZED FREE ENERGY PREDICTED BY IDOCK:   -4.13 KCAL/MOL
REMARK 922        TOTAL FREE ENERGY PREDICTED BY IDOCK:   -6.10 KCAL/MOL
REMARK 923 INTER-LIGAND FREE ENERGY PREDICTED BY IDOCK:   -5.42 KCAL/MOL
REMARK 924 INTRA-LIGAND FREE ENERGY PREDICTED BY IDOCK:   -0.68 KCAL/MOL
REMARK 927      BINDING AFFINITY PREDICTED BY RF-SCORE:    0.00 PKD
ROOT
HETATM    1  C   UNL     1      -9.866   3.981  71.040  1.00  0.00    -0.160 C  
HETATM    2  N   UNL     1      -9.040   5.151  71.169  1.00  0.00    -0.140 NA 
HETATM    3  N   UNL     1      -8.144   5.277  72.153  1.00  0.00    -0.112 NA 
HETATM    4  N   UNL     1      -7.604   6.472  71.963  1.00  0.00    -0.093 NA 
HETATM    5  C   UNL     1      -8.216   7.021  70.854  1.00  0.00    -0.121 A  
HETATM    6  N   UNL     1      -9.142   6.193  70.323  1.00  0.00    -0.152 NA 
ENDROOT
BRANCH   5   7
HETATM    7  C   UNL     1      -7.853   8.333  70.319  1.00  0.00    -0.092 A  
HETATM    8  C   UNL     1      -6.528   8.751  70.267  1.00  0.00    -0.039 A  
HETATM    9  C   UNL     1      -6.241  10.049  69.829  1.00  0.00    -0.054 A  
HETATM   10  C   UNL     1      -7.269  10.928  69.459  1.00  0.00    -0.113 A  
HETATM   11  N   UNL     1      -8.870   9.134  69.920  1.00  0.00    -0.155 NA 
HETATM   12  C   UNL     1      -8.557  10.387  69.507  1.00  0.00    -0.093 A  
BRANCH  10  13
HETATM   13  C   UNL     1      -7.027  12.353  69.137  1.00  0.00    -0.034 A  
HETATM   14  C   UNL     1      -6.095  13.110  69.864  1.00  0.00    -0.128 A  
HETATM   15  C   UNL     1      -5.944  14.489  69.661  1.00  0.00    -0.111 A  
HETATM   16  C   UNL     1      -6.712  15.174  68.717  1.00  0.00    -0.099 A  
HETATM   17  F   UNL     1      -8.647  12.406  67.391  1.00  0.00    -0.149 F  
HETATM   18  C   UNL     1      -7.613  14.426  67.956  1.00  0.00    -0.139 A  
HETATM   19  C   UNL     1      -7.758  13.050  68.164  1.00  0.00    -0.143 A  
BRANCH  16  20
HETATM   20  N   UNL     1      -6.564  16.565  68.517  1.00  0.00    -0.135 N  
HETATM   21  C   UNL     1      -7.077  18.763  68.800  1.00  0.00    -0.308 C  
HETATM   22  C   UNL     1      -6.638  17.539  69.568  1.00  0.00    -0.160 C  
HETATM   23  O   UNL     1      -6.436  18.591  67.530  1.00  0.00    -0.192 OA 
HETATM   24  O   UNL     1      -6.072  16.771  66.221  1.00  0.00    -0.250 OA 
HETATM   25  C   UNL     1      -6.325  17.233  67.318  1.00  0.00    -0.152 C  
BRANCH  21  26
HETATM   26  C   UNL     1      -8.590  18.824  68.581  1.00  0.00    -0.323 C  
BRANCH  26  27
HETATM   27  O   UNL     1      -8.917  19.644  67.469  1.00  0.00    -0.300 OA 
HETATM   28  P   UNL     1      -9.915  18.821  66.320  1.00  0.00    -0.312 P  
HETATM   29  O   UNL     1     -11.166  19.387  67.210  1.00  0.00    -0.362 OA 
HETATM   30  O   UNL     1     -10.808  18.085  65.291  1.00  0.00    -0.627 OA 
HETATM   31  O   UNL     1      -9.710  20.143  65.380  1.00  0.00    -0.174 OA 
ENDBRANCH  26  27
ENDBRANCH  21  26
ENDBRANCH  16  20
ENDBRANCH  10  13
ENDBRANCH   5   7
TORSDOF 5
ENDMDL
MODEL       99
REMARK 921   NORMALIZED FREE ENERGY PREDICTED BY IDOCK:   -3.97 KCAL/MOL
REMARK 922        TOTAL FREE ENERGY PREDICTED BY IDOCK:   -5.89 KCAL/MOL
REMARK 923 INTER-LIGAND FREE ENERGY PREDICTED BY IDOCK:   -5.94 KCAL/MOL
REMARK 924 INTRA-LIGAND FREE ENERGY PREDICTED BY IDOCK:    0.05 KCAL/MOL
REMARK 927      BINDING AFFINITY PREDICTED BY RF-SCORE:    0.00 PKD
ROOT
HETATM    1  C   UNL     1      -7.932   3.538  70.933  1.00  0.00    -0.057 C  
HETATM    2  N   UNL     1      -7.343   4.836  70.741  1.00  0.00    -0.055 NA 
HETATM    3  N   UNL     1      -6.140   5.144  71.234  1.00  0.00    -0.021 NA 
HETATM    4  N   UNL     1      -5.949   6.408  70.884  1.00  0.00    -0.026 NA 
HETATM    5  C   UNL     1      -7.070   6.808  70.186  1.00  0.00    -0.071 A  
HETATM    6  N   UNL     1      -7.982   5.817  70.078  1.00  0.00    -0.098 NA 
ENDROOT
BRANCH   5   7
HETATM    7  C   UNL     1      -7.208   8.146  69.611  1.00  0.00    -0.065 A  
HETATM    8  C   UNL     1      -6.132   8.786  69.005  1.00  0.00    -0.043 A  
HETATM    9  C   UNL     1      -6.291  10.100  68.548  1.00  0.00    -0.048 A  
HETATM   10  C   UNL     1      -7.510  10.774  68.707  1.00  0.00    -0.109 A  
HETATM   11  N   UNL     1      -8.416   8.745  69.734  1.00  0.00    -0.125 NA 
HETATM   12  C   UNL     1      -8.534  10.020  69.286  1.00  0.00    -0.163 A  
BRANCH  10  13
HETATM   13  C   UNL     1      -7.680  12.208  68.381  1.00  0.00    -0.134 A  
HETATM   14  C   UNL     1      -6.874  13.187  68.984  1.00  0.00    -0.090 A  
HETATM   15  C   UNL     1      -7.103  14.557  68.787  1.00  0.00    -0.112 A  
HETATM   16  C   UNL     1      -8.143  15.011  67.974  1.00  0.00    -0.130 A  
HETATM   17  F   UNL     1      -9.491  11.824  66.881  1.00  0.00    -0.179 F  
HETATM   18  C   UNL     1      -8.926  14.049  67.332  1.00  0.00    -0.208 A  
HETATM   19  C   UNL     1      -8.692  12.684  67.533  1.00  0.00    -0.184 A  
BRANCH  16  20
HETATM   20  N   UNL     1      -8.377  16.391  67.781  1.00  0.00    -0.164 N  
HETATM   21  C   UNL     1      -9.649  18.253  67.485  1.00  0.00    -0.280 C  
HETATM   22  C   UNL     1      -9.392  17.136  68.468  1.00  0.00    -0.274 C  
HETATM   23  O   UNL     1      -8.359  18.470  66.902  1.00  0.00    -0.249 OA 
HETATM   24  O   UNL     1      -6.696  17.059  66.269  1.00  0.00    -0.222 OA 
HETATM   25  C   UNL     1      -7.699  17.260  66.929  1.00  0.00    -0.215 C  
BRANCH  21  26
HETATM   26  C   UNL     1     -10.629  17.863  66.376  1.00  0.00    -0.235 C  
BRANCH  26  27
HETATM   27  O   UNL     1     -10.100  16.825  65.562  1.00  0.00    -0.566 OA 
HETATM   28  P   UNL     1     -11.293  15.639  65.158  1.00  0.00    -0.061 P  
HETATM   29  O   UNL     1     -11.608  16.600  63.871  1.00  0.00    -1.204 OA 
HETATM   30  O   UNL     1     -12.360  14.578  64.795  1.00  0.00    -0.438 OA 
HETATM   31  O   UNL     1     -10.055  14.800  64.496  1.00  0.00    -0.116 OA 
ENDBRANCH  26  27
ENDBRANCH  21  26
ENDBRANCH  16  20
ENDBRANCH  10  13
ENDBRANCH   5   7
TORSDOF 5
ENDMDL
MODEL      100
REMARK 921   NORMALIZED FREE ENERGY PREDICTED BY IDOCK:   -3.96 KCAL/MOL
REMARK 922        TOTAL FREE ENERGY PREDICTED BY IDOCK:   -5.88 KCAL/MOL
REMARK 923 INTER-LIGAND FREE ENERGY PREDICTED BY IDOCK:   -4.96 KCAL/MOL
REMARK 924 INTRA-LIGAND FREE ENERGY PREDICTED BY IDOCK:   -0.91 KCAL/MOL
REMARK 927      BINDING AFFINITY PREDICTED BY RF-SCORE:    0.00 PKD
ROOT
HETATM    1  C   UNL     1     -10.030  17.372  69.125  1.00  0.00    -0.200 C  
HETATM    2  N   UNL     1     -10.551  16.096  68.713  1.00  0.00    -0.262 NA 
HETATM    3  N   UNL     1     -11.744  15.980  68.120  1.00  0.00    -0.188 NA 
HETATM    4  N   UNL     1     -11.890  14.679  67.916  1.00  0.00    -0.343 NA 
HETATM    5  C   UNL     1     -10.759  14.062  68.410  1.00  0.00    -0.251 A  
HETATM    6  N   UNL     1      -9.881  14.949  68.927  1.00  0.00    -0.226 NA 
ENDROOT
BRANCH   5   7
HETATM    7  C   UNL     1     -10.549  12.616  68.332  1.00  0.00    -0.243 A  
HETATM    8  C   UNL     1     -11.200  11.744  69.196  1.00  0.00    -0.324 A  
HETATM    9  C   UNL     1     -10.899  10.378  69.139  1.00  0.00    -0.274 A  
HETATM   10  C   UNL     1      -9.945   9.888  68.236  1.00  0.00    -0.172 A  
HETATM   11  N   UNL     1      -9.661  12.175  67.409  1.00  0.00    -0.176 NA 
HETATM   12  C   UNL     1      -9.387  10.847  67.385  1.00  0.00    -0.155 A  
BRANCH  10  13
HETATM   13  C   UNL     1      -9.482   8.482  68.243  1.00  0.00    -0.143 A  
HETATM   14  C   UNL     1     -10.154   7.497  67.501  1.00  0.00    -0.261 A  
HETATM   15  C   UNL     1      -9.812   6.140  67.594  1.00  0.00    -0.131 A  
HETATM   16  C   UNL     1      -8.779   5.706  68.428  1.00  0.00    -0.109 A  
HETATM   17  F   UNL     1      -7.693   8.903  69.759  1.00  0.00    -0.068 F  
HETATM   18  C   UNL     1      -8.074   6.679  69.140  1.00  0.00    -0.116 A  
HETATM   19  C   UNL     1      -8.420   8.032  69.041  1.00  0.00    -0.130 A  
BRANCH  16  20
HETATM   20  N   UNL     1      -8.439   4.338  68.527  1.00  0.00    -0.091 N  
HETATM   21  C   UNL     1      -7.952   2.264  67.732  1.00  0.00    -0.059 C  
HETATM   22  C   UNL     1      -7.463   3.692  67.697  1.00  0.00    -0.066 C  
HETATM   23  O   UNL     1      -8.497   2.144  69.052  1.00  0.00    -0.054 OA 
HETATM   24  O   UNL     1      -9.707   3.556  70.355  1.00  0.00    -0.185 OA 
HETATM   25  C   UNL     1      -8.956   3.393  69.410  1.00  0.00    -0.116 C  
BRANCH  21  26
HETATM   26  C   UNL     1      -9.062   1.984  66.717  1.00  0.00    -0.065 C  
BRANCH  26  27
HETATM   27  O   UNL     1      -9.252   3.087  65.843  1.00  0.00    -0.152 OA 
HETATM   28  P   UNL     1      -8.816   2.712  64.211  1.00  0.00    -0.108 P  
HETATM   29  O   UNL     1     -10.369   2.218  64.058  1.00  0.00    -0.086 OA 
HETATM   30  O   UNL     1      -8.427   2.376  62.750  1.00  0.00    -0.073 OA 
HETATM   31  O   UNL     1      -9.069   4.298  63.909  1.00  0.00    -0.137 OA 
ENDBRANCH  26  27
ENDBRANCH  21  26
ENDBRANCH  16  20
ENDBRANCH  10  13
ENDBRANCH   5   7
TORSDOF 5
ENDMDL
MODEL      101
REMARK 921   NORMALIZED FREE ENERGY PREDICTED BY IDOCK:   -3.91 KCAL/MOL
REMARK 922        TOTAL FREE ENERGY PREDICTED BY IDOCK:   -5.81 KCAL/MOL
REMARK 923 INTER-LIGAND FREE ENERGY PREDICTED BY IDOCK:   -4.94 KCAL/MOL
REMARK 924 INTRA-LIGAND FREE ENERGY PREDICTED BY IDOCK:   -0.88 KCAL/MOL
REMARK 927      BINDING AFFINITY PREDICTED BY RF-SCORE:    0.00 PKD
ROOT
HETATM    1  C   UNL     1     -10.675   1.657  72.501  1.00  0.00    -0.119 C  
HETATM    2  N   UNL     1      -9.721   2.703  72.249  1.00  0.00    -0.131 NA 
HETATM    3  N   UNL     1      -8.450   2.611  72.655  1.00  0.00    -0.069 NA 
HETATM    4  N   UNL     1      -7.894   3.752  72.272  1.00  0.00    -0.067 NA 
HETATM    5  C   UNL     1      -8.877   4.491  71.645  1.00  0.00    -0.120 A  
HETATM    6  N   UNL     1     -10.061   3.841  71.615  1.00  0.00    -0.131 NA 
ENDROOT
BRANCH   5   7
HETATM    7  C   UNL     1      -8.623   5.807  71.059  1.00  0.00    -0.131 A  
HETATM    8  C   UNL     1      -7.816   5.955  69.936  1.00  0.00    -0.096 A  
HETATM    9  C   UNL     1      -7.533   7.242  69.466  1.00  0.00    -0.091 A  
HETATM   10  C   UNL     1      -8.039   8.375  70.119  1.00  0.00    -0.108 A  
HETATM   11  N   UNL     1      -9.174   6.874  71.686  1.00  0.00    -0.147 NA 
HETATM   12  C   UNL     1      -8.874   8.107  71.208  1.00  0.00    -0.146 A  
BRANCH  10  13
HETATM   13  C   UNL     1      -7.644   9.754  69.754  1.00  0.00    -0.137 A  
HETATM   14  C   UNL     1      -6.500  10.349  70.309  1.00  0.00    -0.141 A  
HETATM   15  C   UNL     1      -6.180  11.695  70.076  1.00  0.00    -0.140 A  
HETATM   16  C   UNL     1      -6.985  12.505  69.272  1.00  0.00     0.032 A  
HETATM   17  F   UNL     1      -9.508  10.082  68.307  1.00  0.00    -0.136 F  
HETATM   18  C   UNL     1      -8.102  11.915  68.678  1.00  0.00    -0.086 A  
HETATM   19  C   UNL     1      -8.415  10.571  68.915  1.00  0.00    -0.152 A  
BRANCH  16  20
HETATM   20  N   UNL     1      -6.666  13.862  69.043  1.00  0.00    -0.106 N  
HETATM   21  C   UNL     1      -7.073  16.098  68.957  1.00  0.00    -0.187 C  
HETATM   22  C   UNL     1      -7.044  14.934  69.918  1.00  0.00    -0.109 C  
HETATM   23  O   UNL     1      -6.027  15.777  68.033  1.00  0.00    -0.117 OA 
HETATM   24  O   UNL     1      -5.351  13.826  67.086  1.00  0.00    -0.200 OA 
HETATM   25  C   UNL     1      -5.953  14.401  67.975  1.00  0.00    -0.148 C  
BRANCH  21  26
HETATM   26  C   UNL     1      -8.391  16.208  68.187  1.00  0.00    -0.166 C  
BRANCH  26  27
HETATM   27  O   UNL     1      -8.744  17.565  67.959  1.00  0.00    -0.241 OA 
HETATM   28  P   UNL     1      -9.770  17.750  66.579  1.00  0.00    -0.305 P  
HETATM   29  O   UNL     1     -10.998  17.523  67.636  1.00  0.00    -0.294 OA 
HETATM   30  O   UNL     1     -10.689  17.917  65.343  1.00  0.00    -0.634 OA 
HETATM   31  O   UNL     1      -9.586  19.357  66.812  1.00  0.00    -0.312 OA 
ENDBRANCH  26  27
ENDBRANCH  21  26
ENDBRANCH  16  20
ENDBRANCH  10  13
ENDBRANCH   5   7
TORSDOF 5
ENDMDL
MODEL      102
REMARK 921   NORMALIZED FREE ENERGY PREDICTED BY IDOCK:   -3.89 KCAL/MOL
REMARK 922        TOTAL FREE ENERGY PREDICTED BY IDOCK:   -5.79 KCAL/MOL
REMARK 923 INTER-LIGAND FREE ENERGY PREDICTED BY IDOCK:   -5.20 KCAL/MOL
REMARK 924 INTRA-LIGAND FREE ENERGY PREDICTED BY IDOCK:   -0.59 KCAL/MOL
REMARK 927      BINDING AFFINITY PREDICTED BY RF-SCORE:    0.00 PKD
ROOT
HETATM    1  C   UNL     1     -11.339  16.417  68.627  1.00  0.00    -0.289 C  
HETATM    2  N   UNL     1     -11.040  15.197  67.925  1.00  0.00    -0.309 NA 
HETATM    3  N   UNL     1     -11.055  15.131  66.590  1.00  0.00    -0.327 NA 
HETATM    4  N   UNL     1     -10.761  13.868  66.315  1.00  0.00    -0.284 NA 
HETATM    5  C   UNL     1     -10.583  13.222  67.522  1.00  0.00    -0.246 A  
HETATM    6  N   UNL     1     -10.755  14.053  68.574  1.00  0.00    -0.249 NA 
ENDROOT
BRANCH   5   7
HETATM    7  C   UNL     1     -10.214  11.809  67.616  1.00  0.00    -0.199 A  
HETATM    8  C   UNL     1     -10.936  10.828  66.946  1.00  0.00    -0.255 A  
HETATM    9  C   UNL     1     -10.597   9.484  67.138  1.00  0.00    -0.295 A  
HETATM   10  C   UNL     1      -9.555   9.120  68.004  1.00  0.00    -0.165 A  
HETATM   11  N   UNL     1      -9.167  11.502  68.418  1.00  0.00    -0.188 NA 
HETATM   12  C   UNL     1      -8.870  10.189  68.587  1.00  0.00    -0.136 A  
BRANCH  10  13
HETATM   13  C   UNL     1      -9.261   7.713  68.356  1.00  0.00    -0.140 A  
HETATM   14  C   UNL     1     -10.174   6.949  69.100  1.00  0.00    -0.196 A  
HETATM   15  C   UNL     1      -9.861   5.659  69.554  1.00  0.00    -0.238 A  
HETATM   16  C   UNL     1      -8.624   5.072  69.279  1.00  0.00    -0.088 A  
HETATM   17  F   UNL     1      -7.118   7.725  67.315  1.00  0.00    -0.075 F  
HETATM   18  C   UNL     1      -7.722   5.803  68.503  1.00  0.00    -0.093 A  
HETATM   19  C   UNL     1      -8.041   7.089  68.054  1.00  0.00    -0.119 A  
BRANCH  16  20
HETATM   20  N   UNL     1      -8.306   3.775  69.742  1.00  0.00    -0.052 N  
HETATM   21  C   UNL     1      -8.759   1.669  70.472  1.00  0.00    -0.059 C  
HETATM   22  C   UNL     1      -8.951   2.578  69.282  1.00  0.00    -0.110 C  
HETATM   23  O   UNL     1      -7.487   2.080  70.987  1.00  0.00    -0.033 OA 
HETATM   24  O   UNL     1      -6.503   4.113  71.222  1.00  0.00    -0.018 OA 
HETATM   25  C   UNL     1      -7.347   3.418  70.687  1.00  0.00    -0.037 C  
BRANCH  21  26
HETATM   26  C   UNL     1      -9.816   1.871  71.559  1.00  0.00    -0.137 C  
BRANCH  26  27
HETATM   27  O   UNL     1      -9.336   2.714  72.596  1.00  0.00    -0.088 OA 
HETATM   28  P   UNL     1     -10.466   3.960  73.002  1.00  0.00    -0.153 P  
HETATM   29  O   UNL     1     -11.074   2.869  74.059  1.00  0.00    -0.188 OA 
HETATM   30  O   UNL     1     -11.477   5.075  73.366  1.00  0.00    -0.323 OA 
HETATM   31  O   UNL     1      -9.283   4.549  73.964  1.00  0.00    -0.110 OA 
ENDBRANCH  26  27
ENDBRANCH  21  26
ENDBRANCH  16  20
ENDBRANCH  10  13
ENDBRANCH   5   7
TORSDOF 5
ENDMDL
MODEL      103
REMARK 921   NORMALIZED FREE ENERGY PREDICTED BY IDOCK:   -3.88 KCAL/MOL
REMARK 922        TOTAL FREE ENERGY PREDICTED BY IDOCK:   -5.78 KCAL/MOL
REMARK 923 INTER-LIGAND FREE ENERGY PREDICTED BY IDOCK:   -5.78 KCAL/MOL
REMARK 924 INTRA-LIGAND FREE ENERGY PREDICTED BY IDOCK:    0.00 KCAL/MOL
REMARK 927      BINDING AFFINITY PREDICTED BY RF-SCORE:    0.00 PKD
ROOT
HETATM    1  C   UNL     1      -9.256   3.575  65.266  1.00  0.00    -0.153 C  
HETATM    2  N   UNL     1      -9.569   4.693  66.115  1.00  0.00    -0.166 NA 
HETATM    3  N   UNL     1     -10.272   4.546  67.242  1.00  0.00    -0.087 NA 
HETATM    4  N   UNL     1     -10.380   5.773  67.731  1.00  0.00    -0.193 NA 
HETATM    5  C   UNL     1      -9.727   6.616  66.854  1.00  0.00    -0.164 A  
HETATM    6  N   UNL     1      -9.196   5.948  65.807  1.00  0.00    -0.097 NA 
ENDROOT
BRANCH   5   7
HETATM    7  C   UNL     1      -9.610   8.057  67.082  1.00  0.00    -0.175 A  
HETATM    8  C   UNL     1      -9.973   8.975  66.102  1.00  0.00    -0.311 A  
HETATM    9  C   UNL     1      -9.760  10.338  66.336  1.00  0.00    -0.252 A  
HETATM   10  C   UNL     1      -9.176  10.782  67.531  1.00  0.00    -0.150 A  
HETATM   11  N   UNL     1      -9.094   8.449  68.271  1.00  0.00    -0.139 NA 
HETATM   12  C   UNL     1      -8.894   9.777  68.461  1.00  0.00    -0.121 A  
BRANCH  10  13
HETATM   13  C   UNL     1      -8.791  12.193  67.760  1.00  0.00    -0.172 A  
HETATM   14  C   UNL     1      -9.707  13.113  68.294  1.00  0.00    -0.223 A  
HETATM   15  C   UNL     1      -9.406  14.479  68.399  1.00  0.00    -0.208 A  
HETATM   16  C   UNL     1      -8.173  14.986  67.982  1.00  0.00    -0.137 A  
HETATM   17  F   UNL     1      -6.588  11.906  66.902  1.00  0.00    -0.126 F  
HETATM   18  C   UNL     1      -7.236  14.075  67.489  1.00  0.00    -0.183 A  
HETATM   19  C   UNL     1      -7.543  12.714  67.388  1.00  0.00    -0.150 A  
BRANCH  16  20
HETATM   20  N   UNL     1      -7.872  16.363  68.081  1.00  0.00    -0.154 N  
HETATM   21  C   UNL     1      -8.232  18.521  68.702  1.00  0.00    -0.308 C  
HETATM   22  C   UNL     1      -8.044  17.138  69.277  1.00  0.00     0.109 C  
HETATM   23  O   UNL     1      -7.396  18.502  67.539  1.00  0.00    -0.216 OA 
HETATM   24  O   UNL     1      -6.967  16.913  65.974  1.00  0.00    -0.095 OA 
HETATM   25  C   UNL     1      -7.369  17.200  67.087  1.00  0.00    -0.167 C  
BRANCH  21  26
HETATM   26  C   UNL     1      -9.672  18.799  68.266  1.00  0.00    -0.362 C  
BRANCH  26  27
HETATM   27  O   UNL     1      -9.940  18.243  66.986  1.00  0.00    -0.311 OA 
HETATM   28  P   UNL     1     -10.608  19.407  65.894  1.00  0.00    -0.201 P  
HETATM   29  O   UNL     1      -9.051  19.739  65.516  1.00  0.00    -0.240 OA 
HETATM   30  O   UNL     1     -11.206  20.449  64.917  1.00  0.00     0.041 OA 
HETATM   31  O   UNL     1     -10.810  18.149  64.871  1.00  0.00    -0.666 OA 
ENDBRANCH  26  27
ENDBRANCH  21  26
ENDBRANCH  16  20
ENDBRANCH  10  13
ENDBRANCH   5   7
TORSDOF 5
ENDMDL
MODEL      104
REMARK 921   NORMALIZED FREE ENERGY PREDICTED BY IDOCK:   -3.73 KCAL/MOL
REMARK 922        TOTAL FREE ENERGY PREDICTED BY IDOCK:   -5.58 KCAL/MOL
REMARK 923 INTER-LIGAND FREE ENERGY PREDICTED BY IDOCK:   -5.20 KCAL/MOL
REMARK 924 INTRA-LIGAND FREE ENERGY PREDICTED BY IDOCK:   -0.38 KCAL/MOL
REMARK 927      BINDING AFFINITY PREDICTED BY RF-SCORE:    0.00 PKD
ROOT
HETATM    1  C   UNL     1     -10.645  20.038  66.734  1.00  0.00    -0.330 C  
HETATM    2  N   UNL     1      -9.834  18.961  67.236  1.00  0.00    -0.310 NA 
HETATM    3  N   UNL     1      -8.910  19.157  68.182  1.00  0.00    -0.308 NA 
HETATM    4  N   UNL     1      -8.362  17.964  68.365  1.00  0.00    -0.297 NA 
HETATM    5  C   UNL     1      -8.992  17.092  67.501  1.00  0.00    -0.221 A  
HETATM    6  N   UNL     1      -9.944  17.706  66.765  1.00  0.00    -0.305 NA 
ENDROOT
BRANCH   5   7
HETATM    7  C   UNL     1      -8.670  15.666  67.442  1.00  0.00    -0.179 A  
HETATM    8  C   UNL     1      -9.663  14.707  67.279  1.00  0.00    -0.231 A  
HETATM    9  C   UNL     1      -9.313  13.352  67.317  1.00  0.00    -0.233 A  
HETATM   10  C   UNL     1      -7.984  12.957  67.529  1.00  0.00    -0.178 A  
HETATM   11  N   UNL     1      -7.368  15.326  67.595  1.00  0.00    -0.160 NA 
HETATM   12  C   UNL     1      -7.065  14.004  67.634  1.00  0.00    -0.179 A  
BRANCH  10  13
HETATM   13  C   UNL     1      -7.591  11.544  67.729  1.00  0.00    -0.111 A  
HETATM   14  C   UNL     1      -7.774  10.593  66.713  1.00  0.00    -0.127 A  
HETATM   15  C   UNL     1      -7.528   9.228  66.926  1.00  0.00    -0.091 A  
HETATM   16  C   UNL     1      -7.082   8.754  68.161  1.00  0.00    -0.078 A  
HETATM   17  F   UNL     1      -6.856  11.892  69.968  1.00  0.00    -0.063 F  
HETATM   18  C   UNL     1      -6.853   9.694  69.167  1.00  0.00    -0.050 A  
HETATM   19  C   UNL     1      -7.100  11.054  68.948  1.00  0.00    -0.098 A  
BRANCH  16  20
HETATM   20  N   UNL     1      -6.840   7.378  68.376  1.00  0.00    -0.061 N  
HETATM   21  C   UNL     1      -6.661   5.190  67.783  1.00  0.00    -0.055 C  
HETATM   22  C   UNL     1      -6.073   6.549  67.491  1.00  0.00    -0.024 C  
HETATM   23  O   UNL     1      -6.983   5.272  69.176  1.00  0.00    -0.053 OA 
HETATM   24  O   UNL     1      -7.839   6.935  70.465  1.00  0.00    -0.101 OA 
HETATM   25  C   UNL     1      -7.274   6.593  69.442  1.00  0.00    -0.090 C  
BRANCH  21  26
HETATM   26  C   UNL     1      -7.946   4.910  66.999  1.00  0.00    -0.103 C  
BRANCH  26  27
HETATM   27  O   UNL     1      -9.088   4.979  67.840  1.00  0.00    -0.110 OA 
HETATM   28  P   UNL     1     -10.146   6.276  67.402  1.00  0.00    -0.210 P  
HETATM   29  O   UNL     1     -10.844   5.183  66.404  1.00  0.00    -0.283 OA 
HETATM   30  O   UNL     1     -11.093   7.437  67.010  1.00  0.00    -0.268 OA 
HETATM   31  O   UNL     1     -10.979   5.889  68.754  1.00  0.00    -0.300 OA 
ENDBRANCH  26  27
ENDBRANCH  21  26
ENDBRANCH  16  20
ENDBRANCH  10  13
ENDBRANCH   5   7
TORSDOF 5
ENDMDL
MODEL      105
REMARK 921   NORMALIZED FREE ENERGY PREDICTED BY IDOCK:   -3.63 KCAL/MOL
REMARK 922        TOTAL FREE ENERGY PREDICTED BY IDOCK:   -5.45 KCAL/MOL
REMARK 923 INTER-LIGAND FREE ENERGY PREDICTED BY IDOCK:   -4.55 KCAL/MOL
REMARK 924 INTRA-LIGAND FREE ENERGY PREDICTED BY IDOCK:   -0.90 KCAL/MOL
REMARK 927      BINDING AFFINITY PREDICTED BY RF-SCORE:    0.00 PKD
ROOT
HETATM    1  C   UNL     1      -9.971   5.751  66.140  1.00  0.00    -0.019 C  
HETATM    2  N   UNL     1      -9.986   6.867  67.046  1.00  0.00    -0.181 NA 
HETATM    3  N   UNL     1     -10.521   6.777  68.268  1.00  0.00    -0.190 NA 
HETATM    4  N   UNL     1     -10.374   7.987  68.787  1.00  0.00    -0.210 NA 
HETATM    5  C   UNL     1      -9.748   8.764  67.833  1.00  0.00    -0.157 A  
HETATM    6  N   UNL     1      -9.486   8.069  66.705  1.00  0.00    -0.197 NA 
ENDROOT
BRANCH   5   7
HETATM    7  C   UNL     1      -9.390  10.164  68.064  1.00  0.00    -0.141 A  
HETATM    8  C   UNL     1     -10.346  11.102  68.437  1.00  0.00    -0.201 A  
HETATM    9  C   UNL     1      -9.970  12.444  68.560  1.00  0.00    -0.175 A  
HETATM   10  C   UNL     1      -8.653  12.850  68.299  1.00  0.00    -0.170 A  
HETATM   11  N   UNL     1      -8.097  10.508  67.856  1.00  0.00    -0.106 NA 
HETATM   12  C   UNL     1      -7.768  11.818  67.977  1.00  0.00    -0.123 A  
BRANCH  10  13
HETATM   13  C   UNL     1      -8.245  14.273  68.266  1.00  0.00    -0.148 A  
HETATM   14  C   UNL     1      -8.748  15.146  67.288  1.00  0.00    -0.221 A  
HETATM   15  C   UNL     1      -8.278  16.462  67.160  1.00  0.00    -0.209 A  
HETATM   16  C   UNL     1      -7.289  16.966  68.007  1.00  0.00    -0.171 A  
HETATM   17  F   UNL     1      -6.771  14.066  70.126  1.00  0.00    -0.124 F  
HETATM   18  C   UNL     1      -6.811  16.123  69.012  1.00  0.00    -0.176 A  
HETATM   19  C   UNL     1      -7.284  14.811  69.134  1.00  0.00    -0.148 A  
BRANCH  16  20
HETATM   20  N   UNL     1      -6.811  18.289  67.874  1.00  0.00    -0.210 N  
HETATM   21  C   UNL     1      -6.989  20.555  67.778  1.00  0.00    -0.315 C  
HETATM   22  C   UNL     1      -7.238  19.383  68.698  1.00  0.00    -0.339 C  
HETATM   23  O   UNL     1      -5.830  20.144  67.044  1.00  0.00    -0.170 OA 
HETATM   24  O   UNL     1      -5.179  18.148  66.179  1.00  0.00    -0.140 OA 
HETATM   25  C   UNL     1      -5.873  18.769  66.963  1.00  0.00    -0.154 C  
BRANCH  21  26
HETATM   26  C   UNL     1      -8.134  20.797  66.791  1.00  0.00     0.004 C  
BRANCH  26  27
HETATM   27  O   UNL     1      -9.352  20.244  67.269  1.00  0.00    -0.365 OA 
HETATM   28  P   UNL     1     -10.562  20.166  66.035  1.00  0.00     0.125 P  
HETATM   29  O   UNL     1      -9.929  18.694  65.702  1.00  0.00    -0.455 OA 
HETATM   30  O   UNL     1     -11.646  20.096  64.931  1.00  0.00     0.307 OA 
HETATM   31  O   UNL     1     -11.574  19.695  67.229  1.00  0.00     0.231 OA 
ENDBRANCH  26  27
ENDBRANCH  21  26
ENDBRANCH  16  20
ENDBRANCH  10  13
ENDBRANCH   5   7
TORSDOF 5
ENDMDL
MODEL      106
REMARK 921   NORMALIZED FREE ENERGY PREDICTED BY IDOCK:   -3.53 KCAL/MOL
REMARK 922        TOTAL FREE ENERGY PREDICTED BY IDOCK:   -5.32 KCAL/MOL
REMARK 923 INTER-LIGAND FREE ENERGY PREDICTED BY IDOCK:   -5.65 KCAL/MOL
REMARK 924 INTRA-LIGAND FREE ENERGY PREDICTED BY IDOCK:    0.33 KCAL/MOL
REMARK 927      BINDING AFFINITY PREDICTED BY RF-SCORE:    0.00 PKD
ROOT
HETATM    1  C   UNL     1      -9.054   2.536  70.016  1.00  0.00    -0.113 C  
HETATM    2  N   UNL     1      -8.428   3.727  69.509  1.00  0.00    -0.063 NA 
HETATM    3  N   UNL     1      -7.098   3.843  69.425  1.00  0.00    -0.046 NA 
HETATM    4  N   UNL     1      -6.899   5.062  68.945  1.00  0.00    -0.050 NA 
HETATM    5  C   UNL     1      -8.142   5.633  68.763  1.00  0.00    -0.100 A  
HETATM    6  N   UNL     1      -9.143   4.797  69.116  1.00  0.00    -0.103 NA 
ENDROOT
BRANCH   5   7
HETATM    7  C   UNL     1      -8.322   6.977  68.213  1.00  0.00    -0.123 A  
HETATM    8  C   UNL     1      -7.415   7.514  67.306  1.00  0.00    -0.100 A  
HETATM    9  C   UNL     1      -7.584   8.836  66.877  1.00  0.00    -0.090 A  
HETATM   10  C   UNL     1      -8.641   9.620  67.360  1.00  0.00    -0.125 A  
HETATM   11  N   UNL     1      -9.386   7.685  68.661  1.00  0.00    -0.147 NA 
HETATM   12  C   UNL     1      -9.516   8.964  68.230  1.00  0.00    -0.140 A  
BRANCH  10  13
HETATM   13  C   UNL     1      -8.772  11.063  67.056  1.00  0.00    -0.141 A  
HETATM   14  C   UNL     1      -7.824  11.988  67.522  1.00  0.00    -0.155 A  
HETATM   15  C   UNL     1      -7.996  13.370  67.355  1.00  0.00    -0.170 A  
HETATM   16  C   UNL     1      -9.119  13.890  66.709  1.00  0.00    -0.223 A  
HETATM   17  F   UNL     1     -10.812  10.796  65.855  1.00  0.00    -0.281 F  
HETATM   18  C   UNL     1     -10.049  12.980  66.202  1.00  0.00    -0.287 A  
HETATM   19  C   UNL     1      -9.871  11.603  66.371  1.00  0.00    -0.207 A  
BRANCH  16  20
HETATM   20  N   UNL     1      -9.296  15.283  66.546  1.00  0.00    -0.260 N  
HETATM   21  C   UNL     1      -9.338  17.456  67.216  1.00  0.00    -0.238 C  
HETATM   22  C   UNL     1      -8.409  16.273  67.087  1.00  0.00    -0.191 C  
HETATM   23  O   UNL     1     -10.222  17.292  66.101  1.00  0.00    -0.333 OA 
HETATM   24  O   UNL     1     -11.190  15.469  65.155  1.00  0.00    -0.358 OA 
HETATM   25  C   UNL     1     -10.315  15.938  65.859  1.00  0.00    -0.365 C  
BRANCH  21  26
HETATM   26  C   UNL     1     -10.165  17.433  68.504  1.00  0.00    -0.369 C  
BRANCH  26  27
HETATM   27  O   UNL     1     -11.300  16.589  68.373  1.00  0.00    -0.348 OA 
HETATM   28  P   UNL     1     -11.189  15.185  69.377  1.00  0.00    -0.329 P  
HETATM   29  O   UNL     1     -11.908  16.114  70.516  1.00  0.00    -0.330 OA 
HETATM   30  O   UNL     1     -11.090  13.927  70.276  1.00  0.00     0.065 OA 
HETATM   31  O   UNL     1     -12.550  14.688  68.620  1.00  0.00     0.070 OA 
ENDBRANCH  26  27
ENDBRANCH  21  26
ENDBRANCH  16  20
ENDBRANCH  10  13
ENDBRANCH   5   7
TORSDOF 5
ENDMDL
MODEL      107
REMARK 921   NORMALIZED FREE ENERGY PREDICTED BY IDOCK:   -3.43 KCAL/MOL
REMARK 922        TOTAL FREE ENERGY PREDICTED BY IDOCK:   -5.19 KCAL/MOL
REMARK 923 INTER-LIGAND FREE ENERGY PREDICTED BY IDOCK:   -4.61 KCAL/MOL
REMARK 924 INTRA-LIGAND FREE ENERGY PREDICTED BY IDOCK:   -0.59 KCAL/MOL
REMARK 927      BINDING AFFINITY PREDICTED BY RF-SCORE:    0.00 PKD
ROOT
HETATM    1  C   UNL     1     -10.886  19.528  67.309  1.00  0.00    -0.437 C  
HETATM    2  N   UNL     1      -9.987  18.496  67.751  1.00  0.00    -0.327 NA 
HETATM    3  N   UNL     1      -8.897  18.774  68.475  1.00  0.00    -0.339 NA 
HETATM    4  N   UNL     1      -8.316  17.598  68.667  1.00  0.00    -0.286 NA 
HETATM    5  C   UNL     1      -9.097  16.653  68.034  1.00  0.00    -0.218 A  
HETATM    6  N   UNL     1     -10.178  17.202  67.438  1.00  0.00    -0.312 NA 
ENDROOT
BRANCH   5   7
HETATM    7  C   UNL     1      -8.782  15.224  68.057  1.00  0.00    -0.160 A  
HETATM    8  C   UNL     1      -9.698  14.275  67.617  1.00  0.00    -0.220 A  
HETATM    9  C   UNL     1      -9.384  12.917  67.741  1.00  0.00    -0.203 A  
HETATM   10  C   UNL     1      -8.171  12.508  68.314  1.00  0.00    -0.168 A  
HETATM   11  N   UNL     1      -7.578  14.870  68.566  1.00  0.00    -0.114 NA 
HETATM   12  C   UNL     1      -7.309  13.545  68.679  1.00  0.00    -0.112 A  
BRANCH  10  13
HETATM   13  C   UNL     1      -7.861  11.090  68.606  1.00  0.00    -0.136 A  
HETATM   14  C   UNL     1      -8.361  10.059  67.795  1.00  0.00    -0.114 A  
HETATM   15  C   UNL     1      -8.187   8.707  68.126  1.00  0.00    -0.115 A  
HETATM   16  C   UNL     1      -7.499   8.324  69.279  1.00  0.00    -0.085 A  
HETATM   17  F   UNL     1      -6.585  11.597  70.553  1.00  0.00    -0.071 F  
HETATM   18  C   UNL     1      -6.958   9.338  70.073  1.00  0.00    -0.060 A  
HETATM   19  C   UNL     1      -7.136  10.685  69.736  1.00  0.00    -0.139 A  
BRANCH  16  20
HETATM   20  N   UNL     1      -7.329   6.963  69.616  1.00  0.00    -0.084 N  
HETATM   21  C   UNL     1      -7.209   4.728  69.207  1.00  0.00    -0.052 C  
HETATM   22  C   UNL     1      -6.548   6.037  68.847  1.00  0.00    -0.051 C  
HETATM   23  O   UNL     1      -7.607   4.935  70.568  1.00  0.00    -0.060 OA 
HETATM   24  O   UNL     1      -8.466   6.727  71.668  1.00  0.00    -0.115 OA 
HETATM   25  C   UNL     1      -7.857   6.283  70.711  1.00  0.00    -0.106 C  
BRANCH  21  26
HETATM   26  C   UNL     1      -8.456   4.435  68.371  1.00  0.00    -0.093 C  
BRANCH  26  27
HETATM   27  O   UNL     1      -8.159   4.447  66.981  1.00  0.00    -0.101 OA 
HETATM   28  P   UNL     1      -7.672   2.891  66.404  1.00  0.00    -0.078 P  
HETATM   29  O   UNL     1      -9.268   2.642  66.145  1.00  0.00    -0.131 OA 
HETATM   30  O   UNL     1      -7.235   1.498  65.886  1.00  0.00    -0.052 OA 
HETATM   31  O   UNL     1      -7.346   3.653  64.995  1.00  0.00    -0.069 OA 
ENDBRANCH  26  27
ENDBRANCH  21  26
ENDBRANCH  16  20
ENDBRANCH  10  13
ENDBRANCH   5   7
TORSDOF 5
ENDMDL
MODEL      108
REMARK 921   NORMALIZED FREE ENERGY PREDICTED BY IDOCK:   -3.41 KCAL/MOL
REMARK 922        TOTAL FREE ENERGY PREDICTED BY IDOCK:   -5.17 KCAL/MOL
REMARK 923 INTER-LIGAND FREE ENERGY PREDICTED BY IDOCK:   -4.32 KCAL/MOL
REMARK 924 INTRA-LIGAND FREE ENERGY PREDICTED BY IDOCK:   -0.85 KCAL/MOL
REMARK 927      BINDING AFFINITY PREDICTED BY RF-SCORE:    0.00 PKD
ROOT
HETATM    1  C   UNL     1      -9.706  17.084  68.663  1.00  0.00    -0.282 C  
HETATM    2  N   UNL     1      -9.699  16.049  67.664  1.00  0.00    -0.223 NA 
HETATM    3  N   UNL     1     -10.054  16.289  66.398  1.00  0.00    -0.289 NA 
HETATM    4  N   UNL     1      -9.948  15.114  65.793  1.00  0.00    -0.320 NA 
HETATM    5  C   UNL     1      -9.530  14.206  66.744  1.00  0.00    -0.279 A  
HETATM    6  N   UNL     1      -9.361  14.779  67.955  1.00  0.00    -0.192 NA 
ENDROOT
BRANCH   5   7
HETATM    7  C   UNL     1      -9.273  12.799  66.434  1.00  0.00    -0.145 A  
HETATM    8  C   UNL     1     -10.240  12.004  65.828  1.00  0.00    -0.274 A  
HETATM    9  C   UNL     1      -9.977  10.643  65.633  1.00  0.00    -0.327 A  
HETATM   10  C   UNL     1      -8.764  10.077  66.051  1.00  0.00    -0.152 A  
HETATM   11  N   UNL     1      -8.069  12.301  66.803  1.00  0.00    -0.086 NA 
HETATM   12  C   UNL     1      -7.850  10.977  66.605  1.00  0.00    -0.153 A  
BRANCH  10  13
HETATM   13  C   UNL     1      -8.502   8.621  66.006  1.00  0.00    -0.151 A  
HETATM   14  C   UNL     1      -8.886   7.784  67.066  1.00  0.00    -0.136 A  
HETATM   15  C   UNL     1      -8.534   6.427  67.102  1.00  0.00    -0.112 A  
HETATM   16  C   UNL     1      -7.790   5.842  66.076  1.00  0.00    -0.105 A  
HETATM   17  F   UNL     1      -7.414   8.713  63.888  1.00  0.00    -0.099 F  
HETATM   18  C   UNL     1      -7.438   6.651  64.993  1.00  0.00    -0.089 A  
HETATM   19  C   UNL     1      -7.792   8.005  64.964  1.00  0.00    -0.123 A  
BRANCH  16  20
HETATM   20  N   UNL     1      -7.430   4.476  66.114  1.00  0.00    -0.084 N  
HETATM   21  C   UNL     1      -7.802   2.243  66.336  1.00  0.00    -0.076 C  
HETATM   22  C   UNL     1      -8.182   3.430  65.483  1.00  0.00    -0.097 C  
HETATM   23  O   UNL     1      -6.446   2.530  66.697  1.00  0.00    -0.033 OA 
HETATM   24  O   UNL     1      -5.377   4.449  67.272  1.00  0.00    -0.011 OA 
HETATM   25  C   UNL     1      -6.325   3.903  66.739  1.00  0.00    -0.036 C  
BRANCH  21  26
HETATM   26  C   UNL     1      -8.636   2.129  67.613  1.00  0.00    -0.091 C  
BRANCH  26  27
HETATM   27  O   UNL     1      -7.818   2.204  68.772  1.00  0.00    -0.049 OA 
HETATM   28  P   UNL     1      -8.364   3.414  69.881  1.00  0.00    -0.055 P  
HETATM   29  O   UNL     1      -9.289   2.220  70.511  1.00  0.00    -0.116 OA 
HETATM   30  O   UNL     1      -8.852   4.497  70.874  1.00  0.00    -0.107 OA 
HETATM   31  O   UNL     1      -6.998   3.087  70.718  1.00  0.00    -0.032 OA 
ENDBRANCH  26  27
ENDBRANCH  21  26
ENDBRANCH  16  20
ENDBRANCH  10  13
ENDBRANCH   5   7
TORSDOF 5
ENDMDL
MODEL      109
REMARK 921   NORMALIZED FREE ENERGY PREDICTED BY IDOCK:   -3.32 KCAL/MOL
REMARK 922        TOTAL FREE ENERGY PREDICTED BY IDOCK:   -5.05 KCAL/MOL
REMARK 923 INTER-LIGAND FREE ENERGY PREDICTED BY IDOCK:   -5.30 KCAL/MOL
REMARK 924 INTRA-LIGAND FREE ENERGY PREDICTED BY IDOCK:    0.25 KCAL/MOL
REMARK 927      BINDING AFFINITY PREDICTED BY RF-SCORE:    0.00 PKD
ROOT
HETATM    1  C   UNL     1     -12.867  16.236  73.594  1.00  0.00    -0.478 C  
HETATM    2  N   UNL     1     -13.041  15.102  72.728  1.00  0.00    -0.405 NA 
HETATM    3  N   UNL     1     -14.206  14.850  72.122  1.00  0.00    -0.496 NA 
HETATM    4  N   UNL     1     -13.994  13.732  71.442  1.00  0.00    -0.099 NA 
HETATM    5  C   UNL     1     -12.687  13.356  71.680  1.00  0.00    -0.265 A  
HETATM    6  N   UNL     1     -12.051  14.219  72.501  1.00  0.00     0.034 NA 
ENDROOT
BRANCH   5   7
HETATM    7  C   UNL     1     -12.081  12.174  71.066  1.00  0.00     0.047 A  
HETATM    8  C   UNL     1     -11.452  12.245  69.827  1.00  0.00    -0.237 A  
HETATM    9  C   UNL     1     -10.965  11.070  69.243  1.00  0.00    -0.305 A  
HETATM   10  C   UNL     1     -11.117   9.831  69.883  1.00  0.00    -0.293 A  
HETATM   11  N   UNL     1     -12.199  11.005  71.740  1.00  0.00     0.029 NA 
HETATM   12  C   UNL     1     -11.722   9.885  71.142  1.00  0.00    -0.396 A  
BRANCH  10  13
HETATM   13  C   UNL     1     -10.758   8.548  69.239  1.00  0.00    -0.147 A  
HETATM   14  C   UNL     1     -10.186   8.518  67.957  1.00  0.00    -0.264 A  
HETATM   15  C   UNL     1      -9.957   7.313  67.278  1.00  0.00    -0.251 A  
HETATM   16  C   UNL     1     -10.283   6.082  67.851  1.00  0.00    -0.178 A  
HETATM   17  F   UNL     1     -11.551   7.224  71.054  1.00  0.00    -0.280 F  
HETATM   18  C   UNL     1     -10.812   6.093  69.143  1.00  0.00    -0.418 A  
HETATM   19  C   UNL     1     -11.038   7.300  69.815  1.00  0.00    -0.182 A  
BRANCH  16  20
HETATM   20  N   UNL     1     -10.059   4.867  67.164  1.00  0.00    -0.196 N  
HETATM   21  C   UNL     1      -8.809   3.152  66.347  1.00  0.00    -0.143 C  
HETATM   22  C   UNL     1      -9.201   3.821  67.642  1.00  0.00    -0.174 C  
HETATM   23  O   UNL     1      -9.983   3.301  65.541  1.00  0.00     0.022 OA 
HETATM   24  O   UNL     1     -11.468   4.999  65.279  1.00  0.00     0.295 OA 
HETATM   25  C   UNL     1     -10.602   4.464  65.947  1.00  0.00    -0.042 C  
BRANCH  21  26
HETATM   26  C   UNL     1      -7.640   3.844  65.644  1.00  0.00    -0.082 C  
BRANCH  26  27
HETATM   27  O   UNL     1      -7.908   5.223  65.434  1.00  0.00    -0.089 OA 
HETATM   28  P   UNL     1      -7.211   5.808  63.962  1.00  0.00    -0.064 P  
HETATM   29  O   UNL     1      -8.622   5.345  63.274  1.00  0.00    -0.104 OA 
HETATM   30  O   UNL     1      -6.588   6.332  62.645  1.00  0.00    -0.036 OA 
HETATM   31  O   UNL     1      -7.697   7.286  64.464  1.00  0.00    -0.100 OA 
ENDBRANCH  26  27
ENDBRANCH  21  26
ENDBRANCH  16  20
ENDBRANCH  10  13
ENDBRANCH   5   7
TORSDOF 5
ENDMDL
MODEL      110
REMARK 921   NORMALIZED FREE ENERGY PREDICTED BY IDOCK:   -3.15 KCAL/MOL
REMARK 922        TOTAL FREE ENERGY PREDICTED BY IDOCK:   -4.83 KCAL/MOL
REMARK 923 INTER-LIGAND FREE ENERGY PREDICTED BY IDOCK:   -3.88 KCAL/MOL
REMARK 924 INTRA-LIGAND FREE ENERGY PREDICTED BY IDOCK:   -0.95 KCAL/MOL
REMARK 927      BINDING AFFINITY PREDICTED BY RF-SCORE:    0.00 PKD
ROOT
HETATM    1  C   UNL     1      -6.928  18.501  69.132  1.00  0.00    -0.242 C  
HETATM    2  N   UNL     1      -6.475  17.153  69.347  1.00  0.00    -0.235 NA 
HETATM    3  N   UNL     1      -5.518  16.864  70.234  1.00  0.00    -0.215 NA 
HETATM    4  N   UNL     1      -5.356  15.552  70.134  1.00  0.00    -0.123 NA 
HETATM    5  C   UNL     1      -6.238  15.108  69.171  1.00  0.00    -0.106 A  
HETATM    6  N   UNL     1      -6.971  16.115  68.648  1.00  0.00    -0.134 NA 
ENDROOT
BRANCH   5   7
HETATM    7  C   UNL     1      -6.366  13.696  68.807  1.00  0.00    -0.093 A  
HETATM    8  C   UNL     1      -6.555  13.304  67.486  1.00  0.00    -0.153 A  
HETATM    9  C   UNL     1      -6.760  11.950  67.201  1.00  0.00    -0.142 A  
HETATM   10  C   UNL     1      -6.789  10.994  68.227  1.00  0.00    -0.067 A  
HETATM   11  N   UNL     1      -6.334  12.797  69.819  1.00  0.00    -0.103 NA 
HETATM   12  C   UNL     1      -6.541  11.494  69.509  1.00  0.00    -0.120 A  
BRANCH  10  13
HETATM   13  C   UNL     1      -7.153   9.578  67.994  1.00  0.00    -0.080 A  
HETATM   14  C   UNL     1      -8.342   9.238  67.330  1.00  0.00    -0.125 A  
HETATM   15  C   UNL     1      -8.768   7.907  67.211  1.00  0.00    -0.131 A  
HETATM   16  C   UNL     1      -8.021   6.855  67.745  1.00  0.00    -0.114 A  
HETATM   17  F   UNL     1      -5.224   8.726  69.102  1.00  0.00    -0.033 F  
HETATM   18  C   UNL     1      -6.814   7.174  68.371  1.00  0.00    -0.073 A  
HETATM   19  C   UNL     1      -6.396   8.505  68.485  1.00  0.00    -0.054 A  
BRANCH  16  20
HETATM   20  N   UNL     1      -8.454   5.514  67.631  1.00  0.00    -0.103 N  
HETATM   21  C   UNL     1      -9.535   3.625  68.291  1.00  0.00    -0.152 C  
HETATM   22  C   UNL     1      -9.784   5.071  67.936  1.00  0.00    -0.153 C  
HETATM   23  O   UNL     1      -8.448   3.266  67.429  1.00  0.00    -0.089 OA 
HETATM   24  O   UNL     1      -6.586   4.375  66.753  1.00  0.00    -0.047 OA 
HETATM   25  C   UNL     1      -7.710   4.411  67.218  1.00  0.00    -0.089 C  
BRANCH  21  26
HETATM   26  C   UNL     1      -9.094   3.431  69.743  1.00  0.00    -0.129 C  
BRANCH  26  27
HETATM   27  O   UNL     1      -9.937   4.142  70.638  1.00  0.00    -0.197 OA 
HETATM   28  P   UNL     1      -9.088   4.688  72.043  1.00  0.00    -0.131 P  
HETATM   29  O   UNL     1      -8.763   6.024  71.156  1.00  0.00    -0.131 OA 
HETATM   30  O   UNL     1      -8.328   5.176  73.300  1.00  0.00    -0.110 OA 
HETATM   31  O   UNL     1     -10.554   5.153  72.597  1.00  0.00    -0.208 OA 
ENDBRANCH  26  27
ENDBRANCH  21  26
ENDBRANCH  16  20
ENDBRANCH  10  13
ENDBRANCH   5   7
TORSDOF 5
ENDMDL
MODEL      111
REMARK 921   NORMALIZED FREE ENERGY PREDICTED BY IDOCK:   -3.06 KCAL/MOL
REMARK 922        TOTAL FREE ENERGY PREDICTED BY IDOCK:   -4.71 KCAL/MOL
REMARK 923 INTER-LIGAND FREE ENERGY PREDICTED BY IDOCK:   -3.84 KCAL/MOL
REMARK 924 INTRA-LIGAND FREE ENERGY PREDICTED BY IDOCK:   -0.87 KCAL/MOL
REMARK 927      BINDING AFFINITY PREDICTED BY RF-SCORE:    0.00 PKD
ROOT
HETATM    1  C   UNL     1      -9.715  17.098  68.668  1.00  0.00    -0.293 C  
HETATM    2  N   UNL     1      -9.747  15.894  67.883  1.00  0.00    -0.216 NA 
HETATM    3  N   UNL     1     -10.309  15.858  66.670  1.00  0.00    -0.294 NA 
HETATM    4  N   UNL     1     -10.170  14.600  66.275  1.00  0.00    -0.281 NA 
HETATM    5  C   UNL     1      -9.522  13.926  67.290  1.00  0.00    -0.239 A  
HETATM    6  N   UNL     1      -9.237  14.733  68.335  1.00  0.00    -0.184 NA 
ENDROOT
BRANCH   5   7
HETATM    7  C   UNL     1      -9.166  12.510  67.197  1.00  0.00    -0.205 A  
HETATM    8  C   UNL     1     -10.141  11.526  67.082  1.00  0.00    -0.223 A  
HETATM    9  C   UNL     1      -9.754  10.181  67.085  1.00  0.00    -0.214 A  
HETATM   10  C   UNL     1      -8.405   9.820  67.216  1.00  0.00    -0.121 A  
HETATM   11  N   UNL     1      -7.849  12.203  67.271  1.00  0.00    -0.169 NA 
HETATM   12  C   UNL     1      -7.509  10.891  67.278  1.00  0.00    -0.104 A  
BRANCH  10  13
HETATM   13  C   UNL     1      -7.963   8.416  67.378  1.00  0.00    -0.106 A  
HETATM   14  C   UNL     1      -7.520   7.667  66.276  1.00  0.00    -0.083 A  
HETATM   15  C   UNL     1      -7.219   6.301  66.384  1.00  0.00    -0.069 A  
HETATM   16  C   UNL     1      -7.342   5.624  67.599  1.00  0.00    -0.077 A  
HETATM   17  F   UNL     1      -8.415   8.368  69.716  1.00  0.00    -0.117 F  
HETATM   18  C   UNL     1      -7.740   6.366  68.713  1.00  0.00    -0.101 A  
HETATM   19  C   UNL     1      -8.038   7.729  68.598  1.00  0.00    -0.127 A  
BRANCH  16  20
HETATM   20  N   UNL     1      -7.045   4.246  67.707  1.00  0.00    -0.063 N  
HETATM   21  C   UNL     1      -5.835   2.355  67.344  1.00  0.00    -0.019 C  
HETATM   22  C   UNL     1      -5.734   3.726  67.970  1.00  0.00    -0.022 C  
HETATM   23  O   UNL     1      -7.204   1.999  67.572  1.00  0.00    -0.052 OA 
HETATM   24  O   UNL     1      -9.139   3.184  67.492  1.00  0.00    -0.144 OA 
HETATM   25  C   UNL     1      -7.925   3.173  67.588  1.00  0.00    -0.076 C  
BRANCH  21  26
HETATM   26  C   UNL     1      -5.574   2.363  65.837  1.00  0.00    -0.017 C  
BRANCH  26  27
HETATM   27  O   UNL     1      -6.693   1.863  65.117  1.00  0.00    -0.026 OA 
HETATM   28  P   UNL     1      -7.222   2.959  63.888  1.00  0.00    -0.055 P  
HETATM   29  O   UNL     1      -6.152   2.179  62.927  1.00  0.00    -0.009 OA 
HETATM   30  O   UNL     1      -7.697   3.940  62.788  1.00  0.00    -0.059 OA 
HETATM   31  O   UNL     1      -8.477   1.931  63.685  1.00  0.00    -0.079 OA 
ENDBRANCH  26  27
ENDBRANCH  21  26
ENDBRANCH  16  20
ENDBRANCH  10  13
ENDBRANCH   5   7
TORSDOF 5
ENDMDL
MODEL      112
REMARK 921   NORMALIZED FREE ENERGY PREDICTED BY IDOCK:   -2.92 KCAL/MOL
REMARK 922        TOTAL FREE ENERGY PREDICTED BY IDOCK:   -4.53 KCAL/MOL
REMARK 923 INTER-LIGAND FREE ENERGY PREDICTED BY IDOCK:   -4.46 KCAL/MOL
REMARK 924 INTRA-LIGAND FREE ENERGY PREDICTED BY IDOCK:   -0.07 KCAL/MOL
REMARK 927      BINDING AFFINITY PREDICTED BY RF-SCORE:    0.00 PKD
ROOT
HETATM    1  C   UNL     1      -9.166  17.513  65.889  1.00  0.00     0.089 C  
HETATM    2  N   UNL     1      -8.494  16.363  66.432  1.00  0.00    -0.302 NA 
HETATM    3  N   UNL     1      -7.170  16.342  66.613  1.00  0.00    -0.186 NA 
HETATM    4  N   UNL     1      -6.918  15.133  67.096  1.00  0.00    -0.238 NA 
HETATM    5  C   UNL     1      -8.126  14.472  67.180  1.00  0.00    -0.168 A  
HETATM    6  N   UNL     1      -9.156  15.239  66.761  1.00  0.00    -0.237 NA 
ENDROOT
BRANCH   5   7
HETATM    7  C   UNL     1      -8.248  13.111  67.703  1.00  0.00    -0.175 A  
HETATM    8  C   UNL     1      -9.312  12.291  67.344  1.00  0.00    -0.183 A  
HETATM    9  C   UNL     1      -9.430  11.030  67.939  1.00  0.00    -0.170 A  
HETATM   10  C   UNL     1      -8.502  10.595  68.897  1.00  0.00    -0.154 A  
HETATM   11  N   UNL     1      -7.301  12.706  68.583  1.00  0.00    -0.110 NA 
HETATM   12  C   UNL     1      -7.450  11.481  69.146  1.00  0.00    -0.025 A  
BRANCH  10  13
HETATM   13  C   UNL     1      -8.669   9.340  69.663  1.00  0.00    -0.155 A  
HETATM   14  C   UNL     1      -9.677   9.214  70.632  1.00  0.00    -0.314 A  
HETATM   15  C   UNL     1      -9.772   8.084  71.458  1.00  0.00    -0.213 A  
HETATM   16  C   UNL     1      -8.869   7.025  71.347  1.00  0.00    -0.129 A  
HETATM   17  F   UNL     1      -6.825   8.257  68.613  1.00  0.00    -0.057 F  
HETATM   18  C   UNL     1      -7.887   7.117  70.358  1.00  0.00    -0.100 A  
HETATM   19  C   UNL     1      -7.799   8.247  69.538  1.00  0.00    -0.103 A  
BRANCH  16  20
HETATM   20  N   UNL     1      -8.961   5.889  72.183  1.00  0.00    -0.143 N  
HETATM   21  C   UNL     1      -8.424   3.799  72.901  1.00  0.00    -0.094 C  
HETATM   22  C   UNL     1      -7.827   5.169  72.686  1.00  0.00    -0.098 C  
HETATM   23  O   UNL     1      -9.772   4.094  73.285  1.00  0.00    -0.117 OA 
HETATM   24  O   UNL     1     -11.273   5.645  72.576  1.00  0.00    -0.268 OA 
HETATM   25  C   UNL     1     -10.116   5.276  72.663  1.00  0.00    -0.174 C  
BRANCH  21  26
HETATM   26  C   UNL     1      -8.451   2.949  71.629  1.00  0.00    -0.064 C  
BRANCH  26  27
HETATM   27  O   UNL     1      -9.311   3.514  70.650  1.00  0.00    -0.130 OA 
HETATM   28  P   UNL     1      -8.570   3.581  69.089  1.00  0.00    -0.089 P  
HETATM   29  O   UNL     1      -9.187   2.079  68.885  1.00  0.00    -0.124 OA 
HETATM   30  O   UNL     1      -7.906   3.641  67.691  1.00  0.00    -0.077 OA 
HETATM   31  O   UNL     1      -9.896   4.419  68.631  1.00  0.00    -0.144 OA 
ENDBRANCH  26  27
ENDBRANCH  21  26
ENDBRANCH  16  20
ENDBRANCH  10  13
ENDBRANCH   5   7
TORSDOF 5
ENDMDL
MODEL      113
REMARK 921   NORMALIZED FREE ENERGY PREDICTED BY IDOCK:   -2.72 KCAL/MOL
REMARK 922        TOTAL FREE ENERGY PREDICTED BY IDOCK:   -4.28 KCAL/MOL
REMARK 923 INTER-LIGAND FREE ENERGY PREDICTED BY IDOCK:   -3.36 KCAL/MOL
REMARK 924 INTRA-LIGAND FREE ENERGY PREDICTED BY IDOCK:   -0.92 KCAL/MOL
REMARK 927      BINDING AFFINITY PREDICTED BY RF-SCORE:    0.00 PKD
ROOT
HETATM    1  C   UNL     1      -6.042  18.572  70.149  1.00  0.00    -0.077 C  
HETATM    2  N   UNL     1      -5.855  17.147  70.191  1.00  0.00    -0.230 NA 
HETATM    3  N   UNL     1      -5.127  16.559  71.146  1.00  0.00    -0.250 NA 
HETATM    4  N   UNL     1      -5.161  15.269  70.847  1.00  0.00    -0.138 NA 
HETATM    5  C   UNL     1      -5.921  15.140  69.701  1.00  0.00    -0.117 A  
HETATM    6  N   UNL     1      -6.380  16.331  69.259  1.00  0.00    -0.164 NA 
ENDROOT
BRANCH   5   7
HETATM    7  C   UNL     1      -6.207  13.844  69.084  1.00  0.00    -0.098 A  
HETATM    8  C   UNL     1      -6.527  13.741  67.735  1.00  0.00    -0.178 A  
HETATM    9  C   UNL     1      -6.878  12.491  67.212  1.00  0.00    -0.116 A  
HETATM   10  C   UNL     1      -6.924  11.355  68.033  1.00  0.00    -0.069 A  
HETATM   11  N   UNL     1      -6.188  12.761  69.897  1.00  0.00    -0.116 NA 
HETATM   12  C   UNL     1      -6.539  11.567  69.360  1.00  0.00    -0.117 A  
BRANCH  10  13
HETATM   13  C   UNL     1      -7.436  10.048  67.563  1.00  0.00    -0.090 A  
HETATM   14  C   UNL     1      -8.629   9.961  66.829  1.00  0.00    -0.133 A  
HETATM   15  C   UNL     1      -9.197   8.725  66.485  1.00  0.00    -0.228 A  
HETATM   16  C   UNL     1      -8.595   7.521  66.854  1.00  0.00    -0.124 A  
HETATM   17  F   UNL     1      -5.659   8.808  68.554  1.00  0.00    -0.035 F  
HETATM   18  C   UNL     1      -7.385   7.591  67.547  1.00  0.00    -0.102 A  
HETATM   19  C   UNL     1      -6.824   8.828  67.886  1.00  0.00    -0.070 A  
BRANCH  16  20
HETATM   20  N   UNL     1      -9.171   6.276  66.513  1.00  0.00    -0.151 N  
HETATM   21  C   UNL     1      -9.752   4.103  66.850  1.00  0.00    -0.205 C  
HETATM   22  C   UNL     1      -9.968   5.488  67.410  1.00  0.00    -0.162 C  
HETATM   23  O   UNL     1      -9.627   4.342  65.443  1.00  0.00    -0.162 OA 
HETATM   24  O   UNL     1      -8.614   5.981  64.242  1.00  0.00     0.007 OA 
HETATM   25  C   UNL     1      -9.086   5.601  65.298  1.00  0.00     0.037 C  
BRANCH  21  26
HETATM   26  C   UNL     1      -8.464   3.446  67.352  1.00  0.00    -0.097 C  
BRANCH  26  27
HETATM   27  O   UNL     1      -8.204   3.789  68.706  1.00  0.00    -0.072 OA 
HETATM   28  P   UNL     1      -6.681   3.180  69.253  1.00  0.00    -0.034 P  
HETATM   29  O   UNL     1      -6.073   4.592  68.693  1.00  0.00    -0.028 OA 
HETATM   30  O   UNL     1      -5.317   2.636  69.744  1.00  0.00    -0.011 OA 
HETATM   31  O   UNL     1      -7.136   3.718  70.729  1.00  0.00    -0.033 OA 
ENDBRANCH  26  27
ENDBRANCH  21  26
ENDBRANCH  16  20
ENDBRANCH  10  13
ENDBRANCH   5   7
TORSDOF 5
ENDMDL
MODEL      114
REMARK 921   NORMALIZED FREE ENERGY PREDICTED BY IDOCK:   -2.44 KCAL/MOL
REMARK 922        TOTAL FREE ENERGY PREDICTED BY IDOCK:   -3.91 KCAL/MOL
REMARK 923 INTER-LIGAND FREE ENERGY PREDICTED BY IDOCK:   -3.37 KCAL/MOL
REMARK 924 INTRA-LIGAND FREE ENERGY PREDICTED BY IDOCK:   -0.54 KCAL/MOL
REMARK 927      BINDING AFFINITY PREDICTED BY RF-SCORE:    0.00 PKD
ROOT
HETATM    1  C   UNL     1      -8.278  16.953  66.329  1.00  0.00    -0.309 C  
HETATM    2  N   UNL     1      -7.655  15.832  66.980  1.00  0.00    -0.223 NA 
HETATM    3  N   UNL     1      -6.594  15.982  67.780  1.00  0.00    -0.140 NA 
HETATM    4  N   UNL     1      -6.292  14.751  68.168  1.00  0.00    -0.124 NA 
HETATM    5  C   UNL     1      -7.201  13.904  67.568  1.00  0.00    -0.161 A  
HETATM    6  N   UNL     1      -8.090  14.572  66.800  1.00  0.00     0.027 NA 
ENDROOT
BRANCH   5   7
HETATM    7  C   UNL     1      -7.199  12.457  67.789  1.00  0.00    -0.119 A  
HETATM    8  C   UNL     1      -7.604  11.573  66.795  1.00  0.00    -0.126 A  
HETATM    9  C   UNL     1      -7.667  10.206  67.085  1.00  0.00    -0.092 A  
HETATM   10  C   UNL     1      -7.342   9.725  68.361  1.00  0.00    -0.078 A  
HETATM   11  N   UNL     1      -6.826  12.026  69.017  1.00  0.00    -0.104 NA 
HETATM   12  C   UNL     1      -6.905  10.695  69.267  1.00  0.00    -0.086 A  
BRANCH  10  13
HETATM   13  C   UNL     1      -7.540   8.312  68.759  1.00  0.00    -0.101 A  
HETATM   14  C   UNL     1      -6.574   7.337  68.465  1.00  0.00    -0.045 A  
HETATM   15  C   UNL     1      -6.797   5.975  68.718  1.00  0.00    -0.066 A  
HETATM   16  C   UNL     1      -7.993   5.528  69.283  1.00  0.00    -0.095 A  
HETATM   17  F   UNL     1      -9.683   8.709  69.721  1.00  0.00    -0.168 F  
HETATM   18  C   UNL     1      -8.946   6.491  69.621  1.00  0.00    -0.141 A  
HETATM   19  C   UNL     1      -8.716   7.848  69.366  1.00  0.00    -0.138 A  
BRANCH  16  20
HETATM   20  N   UNL     1      -8.220   4.155  69.532  1.00  0.00    -0.058 N  
HETATM   21  C   UNL     1      -8.262   1.939  69.024  1.00  0.00    -0.048 C  
HETATM   22  C   UNL     1      -7.316   3.109  69.148  1.00  0.00    -0.048 C  
HETATM   23  O   UNL     1      -9.236   2.205  70.040  1.00  0.00    -0.098 OA 
HETATM   24  O   UNL     1     -10.234   4.115  70.757  1.00  0.00    -0.107 OA 
HETATM   25  C   UNL     1      -9.313   3.575  70.171  1.00  0.00    -0.174 C  
BRANCH  21  26
HETATM   26  C   UNL     1      -8.971   1.880  67.669  1.00  0.00    -0.139 C  
BRANCH  26  27
HETATM   27  O   UNL     1      -8.335   2.722  66.718  1.00  0.00    -0.088 OA 
HETATM   28  P   UNL     1      -8.544   2.152  65.098  1.00  0.00    -0.120 P  
HETATM   29  O   UNL     1      -9.910   3.053  65.105  1.00  0.00    -0.048 OA 
HETATM   30  O   UNL     1      -8.730   1.642  63.647  1.00  0.00    -0.082 OA 
HETATM   31  O   UNL     1      -7.507   3.343  64.676  1.00  0.00    -0.072 OA 
ENDBRANCH  26  27
ENDBRANCH  21  26
ENDBRANCH  16  20
ENDBRANCH  10  13
ENDBRANCH   5   7
TORSDOF 5
ENDMDL
MODEL      115
REMARK 921   NORMALIZED FREE ENERGY PREDICTED BY IDOCK:   -2.19 KCAL/MOL
REMARK 922        TOTAL FREE ENERGY PREDICTED BY IDOCK:   -3.59 KCAL/MOL
REMARK 923 INTER-LIGAND FREE ENERGY PREDICTED BY IDOCK:   -2.90 KCAL/MOL
REMARK 924 INTRA-LIGAND FREE ENERGY PREDICTED BY IDOCK:   -0.69 KCAL/MOL
REMARK 927      BINDING AFFINITY PREDICTED BY RF-SCORE:    0.00 PKD
ROOT
HETATM    1  C   UNL     1      -5.153  16.630  71.574  1.00  0.00     0.118 C  
HETATM    2  N   UNL     1      -5.239  15.198  71.687  1.00  0.00    -0.106 NA 
HETATM    3  N   UNL     1      -5.128  14.576  72.865  1.00  0.00    -0.253 NA 
HETATM    4  N   UNL     1      -5.232  13.287  72.573  1.00  0.00    -0.379 NA 
HETATM    5  C   UNL     1      -5.400  13.195  71.206  1.00  0.00    -0.185 A  
HETATM    6  N   UNL     1      -5.410  14.408  70.612  1.00  0.00    -0.117 NA 
ENDROOT
BRANCH   5   7
HETATM    7  C   UNL     1      -5.582  11.917  70.517  1.00  0.00    -0.162 A  
HETATM    8  C   UNL     1      -5.147  11.732  69.209  1.00  0.00    -0.052 A  
HETATM    9  C   UNL     1      -5.423  10.521  68.565  1.00  0.00    -0.037 A  
HETATM   10  C   UNL     1      -6.140   9.507  69.215  1.00  0.00    -0.037 A  
HETATM   11  N   UNL     1      -6.231  10.941  71.197  1.00  0.00    -0.273 NA 
HETATM   12  C   UNL     1      -6.488   9.783  70.540  1.00  0.00    -0.108 A  
BRANCH  10  13
HETATM   13  C   UNL     1      -6.588   8.275  68.527  1.00  0.00    -0.059 A  
HETATM   14  C   UNL     1      -6.768   8.250  67.135  1.00  0.00    -0.063 A  
HETATM   15  C   UNL     1      -7.312   7.136  66.479  1.00  0.00    -0.083 A  
HETATM   16  C   UNL     1      -7.695   5.993  67.185  1.00  0.00    -0.101 A  
HETATM   17  F   UNL     1      -6.766   7.014  70.540  1.00  0.00    -0.048 F  
HETATM   18  C   UNL     1      -7.481   5.986  68.565  1.00  0.00    -0.087 A  
HETATM   19  C   UNL     1      -6.937   7.102  69.212  1.00  0.00    -0.070 A  
BRANCH  16  20
HETATM   20  N   UNL     1      -8.249   4.873  66.525  1.00  0.00    -0.107 N  
HETATM   21  C   UNL     1      -9.650   3.097  66.283  1.00  0.00     0.048 C  
HETATM   22  C   UNL     1      -9.656   4.597  66.456  1.00  0.00    -0.182 C  
HETATM   23  O   UNL     1      -8.466   2.868  65.511  1.00  0.00    -0.096 OA 
HETATM   24  O   UNL     1      -6.391   3.790  65.559  1.00  0.00    -0.030 OA 
HETATM   25  C   UNL     1      -7.573   3.865  65.842  1.00  0.00    -0.089 C  
BRANCH  21  26
HETATM   26  C   UNL     1      -9.526   2.341  67.608  1.00  0.00    -0.061 C  
BRANCH  26  27
HETATM   27  O   UNL     1      -9.786   3.193  68.715  1.00  0.00    -0.094 OA 
HETATM   28  P   UNL     1      -9.467   2.416  70.227  1.00  0.00     0.035 P  
HETATM   29  O   UNL     1      -7.945   2.987  70.040  1.00  0.00    -0.043 OA 
HETATM   30  O   UNL     1      -9.182   1.721  71.581  1.00  0.00    -0.077 OA 
HETATM   31  O   UNL     1     -10.112   3.754  70.909  1.00  0.00    -0.105 OA 
ENDBRANCH  26  27
ENDBRANCH  21  26
ENDBRANCH  16  20
ENDBRANCH  10  13
ENDBRANCH   5   7
TORSDOF 5
ENDMDL
MODEL      116
REMARK 921   NORMALIZED FREE ENERGY PREDICTED BY IDOCK:   -2.07 KCAL/MOL
REMARK 922        TOTAL FREE ENERGY PREDICTED BY IDOCK:   -3.43 KCAL/MOL
REMARK 923 INTER-LIGAND FREE ENERGY PREDICTED BY IDOCK:   -3.37 KCAL/MOL
REMARK 924 INTRA-LIGAND FREE ENERGY PREDICTED BY IDOCK:   -0.06 KCAL/MOL
REMARK 927      BINDING AFFINITY PREDICTED BY RF-SCORE:    0.00 PKD
ROOT
HETATM    1  C   UNL     1      -9.166  17.513  65.888  1.00  0.00     0.089 C  
HETATM    2  N   UNL     1      -8.484  16.360  66.412  1.00  0.00    -0.302 NA 
HETATM    3  N   UNL     1      -7.158  16.343  66.584  1.00  0.00    -0.194 NA 
HETATM    4  N   UNL     1      -6.898  15.130  67.051  1.00  0.00    -0.165 NA 
HETATM    5  C   UNL     1      -8.102  14.461  67.134  1.00  0.00    -0.145 A  
HETATM    6  N   UNL     1      -9.139  15.229  66.731  1.00  0.00    -0.237 NA 
ENDROOT
BRANCH   5   7
HETATM    7  C   UNL     1      -8.214  13.093  67.641  1.00  0.00    -0.175 A  
HETATM    8  C   UNL     1      -7.846  12.773  68.944  1.00  0.00     0.139 A  
HETATM    9  C   UNL     1      -7.888  11.436  69.353  1.00  0.00     0.198 A  
HETATM   10  C   UNL     1      -8.281  10.423  68.466  1.00  0.00    -0.119 A  
HETATM   11  N   UNL     1      -8.650  12.151  66.772  1.00  0.00    -0.186 NA 
HETATM   12  C   UNL     1      -8.673  10.864  67.199  1.00  0.00    -0.132 A  
BRANCH  10  13
HETATM   13  C   UNL     1      -8.195   8.984  68.804  1.00  0.00    -0.117 A  
HETATM   14  C   UNL     1      -6.952   8.345  68.929  1.00  0.00    -0.062 A  
HETATM   15  C   UNL     1      -6.849   6.959  69.121  1.00  0.00    -0.068 A  
HETATM   16  C   UNL     1      -7.985   6.151  69.204  1.00  0.00    -0.108 A  
HETATM   17  F   UNL     1     -10.558   8.687  68.867  1.00  0.00    -0.221 F  
HETATM   18  C   UNL     1      -9.230   6.779  69.125  1.00  0.00    -0.137 A  
HETATM   19  C   UNL     1      -9.324   8.162  68.934  1.00  0.00    -0.147 A  
BRANCH  16  20
HETATM   20  N   UNL     1      -7.882   4.754  69.391  1.00  0.00    -0.063 N  
HETATM   21  C   UNL     1      -8.665   2.654  69.777  1.00  0.00    -0.071 C  
HETATM   22  C   UNL     1      -8.769   3.797  68.796  1.00  0.00    -0.100 C  
HETATM   23  O   UNL     1      -7.305   2.735  70.220  1.00  0.00    -0.040 OA 
HETATM   24  O   UNL     1      -5.946   4.487  70.710  1.00  0.00    -0.016 OA 
HETATM   25  C   UNL     1      -6.941   4.063  70.152  1.00  0.00    -0.041 C  
BRANCH  21  26
HETATM   26  C   UNL     1      -9.586   2.816  70.988  1.00  0.00    -0.145 C  
BRANCH  26  27
HETATM   27  O   UNL     1      -9.210   3.937  71.775  1.00  0.00    -0.113 OA 
HETATM   28  P   UNL     1     -10.565   4.930  72.187  1.00  0.00    -0.058 P  
HETATM   29  O   UNL     1     -10.705   3.955  73.494  1.00  0.00    -0.177 OA 
HETATM   30  O   UNL     1     -11.778   5.820  72.556  1.00  0.00    -0.309 OA 
HETATM   31  O   UNL     1      -9.461   5.962  72.811  1.00  0.00    -0.149 OA 
ENDBRANCH  26  27
ENDBRANCH  21  26
ENDBRANCH  16  20
ENDBRANCH  10  13
ENDBRANCH   5   7
TORSDOF 5
ENDMDL
MODEL      117
REMARK 921   NORMALIZED FREE ENERGY PREDICTED BY IDOCK:   -2.01 KCAL/MOL
REMARK 922        TOTAL FREE ENERGY PREDICTED BY IDOCK:   -3.36 KCAL/MOL
REMARK 923 INTER-LIGAND FREE ENERGY PREDICTED BY IDOCK:   -2.51 KCAL/MOL
REMARK 924 INTRA-LIGAND FREE ENERGY PREDICTED BY IDOCK:   -0.85 KCAL/MOL
REMARK 927      BINDING AFFINITY PREDICTED BY RF-SCORE:    0.00 PKD
ROOT
HETATM    1  C   UNL     1     -11.138   2.220  63.422  1.00  0.00    -0.127 C  
HETATM    2  N   UNL     1     -10.389   2.960  64.401  1.00  0.00     0.020 NA 
HETATM    3  N   UNL     1      -9.867   2.372  65.482  1.00  0.00     0.362 NA 
HETATM    4  N   UNL     1      -9.281   3.356  66.148  1.00  0.00    -0.163 NA 
HETATM    5  C   UNL     1      -9.486   4.513  65.424  1.00  0.00    -0.172 A  
HETATM    6  N   UNL     1     -10.193   4.288  64.295  1.00  0.00    -0.087 NA 
ENDROOT
BRANCH   5   7
HETATM    7  C   UNL     1      -8.952   5.811  65.839  1.00  0.00    -0.151 A  
HETATM    8  C   UNL     1      -7.668   5.931  66.358  1.00  0.00    -0.099 A  
HETATM    9  C   UNL     1      -7.236   7.179  66.822  1.00  0.00    -0.083 A  
HETATM   10  C   UNL     1      -8.083   8.295  66.781  1.00  0.00    -0.103 A  
HETATM   11  N   UNL     1      -9.781   6.876  65.733  1.00  0.00     0.374 NA 
HETATM   12  C   UNL     1      -9.333   8.069  66.197  1.00  0.00    -0.147 A  
BRANCH  10  13
HETATM   13  C   UNL     1      -7.728   9.594  67.397  1.00  0.00    -0.095 A  
HETATM   14  C   UNL     1      -8.463  10.105  68.479  1.00  0.00    -0.121 A  
HETATM   15  C   UNL     1      -8.225  11.388  68.993  1.00  0.00     0.015 A  
HETATM   16  C   UNL     1      -7.238  12.215  68.454  1.00  0.00    -0.097 A  
HETATM   17  F   UNL     1      -5.931  10.007  65.889  1.00  0.00    -0.060 F  
HETATM   18  C   UNL     1      -6.470  11.704  67.406  1.00  0.00    -0.103 A  
HETATM   19  C   UNL     1      -6.713  10.423  66.898  1.00  0.00    -0.083 A  
BRANCH  16  20
HETATM   20  N   UNL     1      -7.003  13.511  68.969  1.00  0.00    -0.109 N  
HETATM   21  C   UNL     1      -6.847  15.778  68.875  1.00  0.00    -0.130 C  
HETATM   22  C   UNL     1      -7.831  14.648  68.687  1.00  0.00    -0.138 C  
HETATM   23  O   UNL     1      -5.999  15.293  69.923  1.00  0.00    -0.126 OA 
HETATM   24  O   UNL     1      -5.137  13.243  70.384  1.00  0.00    -0.093 OA 
HETATM   25  C   UNL     1      -5.973  13.919  69.813  1.00  0.00    -0.124 C  
BRANCH  21  26
HETATM   26  C   UNL     1      -5.991  16.042  67.635  1.00  0.00    -0.152 C  
BRANCH  26  27
HETATM   27  O   UNL     1      -5.754  17.431  67.457  1.00  0.00    -0.125 OA 
HETATM   28  P   UNL     1      -6.361  18.010  65.944  1.00  0.00    -0.228 P  
HETATM   29  O   UNL     1      -7.755  18.268  66.761  1.00  0.00    -0.210 OA 
HETATM   30  O   UNL     1      -6.903  18.529  64.589  1.00  0.00     0.001 OA 
HETATM   31  O   UNL     1      -5.626  19.419  66.329  1.00  0.00    -0.157 OA 
ENDBRANCH  26  27
ENDBRANCH  21  26
ENDBRANCH  16  20
ENDBRANCH  10  13
ENDBRANCH   5   7
TORSDOF 5
ENDMDL
MODEL      118
REMARK 921   NORMALIZED FREE ENERGY PREDICTED BY IDOCK:   -1.87 KCAL/MOL
REMARK 922        TOTAL FREE ENERGY PREDICTED BY IDOCK:   -3.17 KCAL/MOL
REMARK 923 INTER-LIGAND FREE ENERGY PREDICTED BY IDOCK:   -3.53 KCAL/MOL
REMARK 924 INTRA-LIGAND FREE ENERGY PREDICTED BY IDOCK:    0.36 KCAL/MOL
REMARK 927      BINDING AFFINITY PREDICTED BY RF-SCORE:    0.00 PKD
ROOT
HETATM    1  C   UNL     1      -8.429   3.520  70.175  1.00  0.00    -0.059 C  
HETATM    2  N   UNL     1      -7.576   4.657  69.958  1.00  0.00    -0.054 NA 
HETATM    3  N   UNL     1      -6.259   4.602  70.180  1.00  0.00    -0.025 NA 
HETATM    4  N   UNL     1      -5.822   5.822  69.899  1.00  0.00    -0.023 NA 
HETATM    5  C   UNL     1      -6.919   6.567  69.518  1.00  0.00    -0.067 A  
HETATM    6  N   UNL     1      -8.059   5.843  69.545  1.00  0.00    -0.104 NA 
ENDROOT
BRANCH   5   7
HETATM    7  C   UNL     1      -6.819   7.966  69.101  1.00  0.00    -0.052 A  
HETATM    8  C   UNL     1      -5.656   8.700  69.308  1.00  0.00    -0.035 A  
HETATM    9  C   UNL     1      -5.640  10.058  68.972  1.00  0.00    -0.034 A  
HETATM   10  C   UNL     1      -6.780  10.683  68.446  1.00  0.00    -0.060 A  
HETATM   11  N   UNL     1      -7.922   8.520  68.546  1.00  0.00    -0.115 NA 
HETATM   12  C   UNL     1      -7.875   9.840  68.238  1.00  0.00    -0.089 A  
BRANCH  10  13
HETATM   13  C   UNL     1      -6.860  12.144  68.220  1.00  0.00    -0.069 A  
HETATM   14  C   UNL     1      -6.173  13.042  69.052  1.00  0.00    -0.094 A  
HETATM   15  C   UNL     1      -6.337  14.431  68.935  1.00  0.00    -0.091 A  
HETATM   16  C   UNL     1      -7.189  14.984  67.977  1.00  0.00    -0.131 A  
HETATM   17  F   UNL     1      -8.345  11.944  66.368  1.00  0.00    -0.173 F  
HETATM   18  C   UNL     1      -7.845  14.104  67.114  1.00  0.00    -0.063 A  
HETATM   19  C   UNL     1      -7.677  12.720  67.236  1.00  0.00    -0.127 A  
BRANCH  16  20
HETATM   20  N   UNL     1      -7.359  16.382  67.864  1.00  0.00    -0.130 N  
HETATM   21  C   UNL     1      -8.064  18.442  68.523  1.00  0.00    -0.319 C  
HETATM   22  C   UNL     1      -7.165  17.305  68.945  1.00  0.00    -0.243 C  
HETATM   23  O   UNL     1      -7.962  18.417  67.094  1.00  0.00    -0.225 OA 
HETATM   24  O   UNL     1      -7.861  16.722  65.585  1.00  0.00    -0.081 OA 
HETATM   25  C   UNL     1      -7.728  17.107  66.733  1.00  0.00    -0.244 C  
BRANCH  21  26
HETATM   26  C   UNL     1      -9.527  18.228  68.914  1.00  0.00    -0.218 C  
BRANCH  26  27
HETATM   27  O   UNL     1     -10.074  17.090  68.263  1.00  0.00    -0.274 OA 
HETATM   28  P   UNL     1     -10.656  15.911  69.388  1.00  0.00    -0.316 P  
HETATM   29  O   UNL     1     -12.067  16.736  69.308  1.00  0.00     0.485 OA 
HETATM   30  O   UNL     1     -11.178  14.856  70.394  1.00  0.00    -0.250 OA 
HETATM   31  O   UNL     1     -10.893  14.960  68.079  1.00  0.00    -0.251 OA 
ENDBRANCH  26  27
ENDBRANCH  21  26
ENDBRANCH  16  20
ENDBRANCH  10  13
ENDBRANCH   5   7
TORSDOF 5
ENDMDL
MODEL      119
REMARK 921   NORMALIZED FREE ENERGY PREDICTED BY IDOCK:   -1.77 KCAL/MOL
REMARK 922        TOTAL FREE ENERGY PREDICTED BY IDOCK:   -3.04 KCAL/MOL
REMARK 923 INTER-LIGAND FREE ENERGY PREDICTED BY IDOCK:   -3.27 KCAL/MOL
REMARK 924 INTRA-LIGAND FREE ENERGY PREDICTED BY IDOCK:    0.23 KCAL/MOL
REMARK 927      BINDING AFFINITY PREDICTED BY RF-SCORE:    0.00 PKD
ROOT
HETATM    1  C   UNL     1     -11.342   1.533  63.646  1.00  0.00     0.168 C  
HETATM    2  N   UNL     1     -10.458   2.485  64.262  1.00  0.00     0.119 NA 
HETATM    3  N   UNL     1      -9.349   2.104  64.904  1.00  0.00    -0.124 NA 
HETATM    4  N   UNL     1      -8.817   3.233  65.351  1.00  0.00    -0.128 NA 
HETATM    5  C   UNL     1      -9.651   4.258  64.953  1.00  0.00    -0.173 A  
HETATM    6  N   UNL     1     -10.712   3.806  64.250  1.00  0.00    -0.252 NA 
ENDROOT
BRANCH   5   7
HETATM    7  C   UNL     1      -9.368   5.664  65.242  1.00  0.00     0.191 A  
HETATM    8  C   UNL     1      -8.196   6.271  64.804  1.00  0.00    -0.100 A  
HETATM    9  C   UNL     1      -7.931   7.592  65.180  1.00  0.00    -0.130 A  
HETATM   10  C   UNL     1      -8.822   8.299  66.001  1.00  0.00    -0.203 A  
HETATM   11  N   UNL     1     -10.278   6.331  65.991  1.00  0.00     0.233 NA 
HETATM   12  C   UNL     1      -9.988   7.608  66.343  1.00  0.00    -0.072 A  
BRANCH  10  13
HETATM   13  C   UNL     1      -8.515   9.639  66.550  1.00  0.00    -0.127 A  
HETATM   14  C   UNL     1      -9.316  10.211  67.551  1.00  0.00    -0.168 A  
HETATM   15  C   UNL     1      -9.120  11.527  67.993  1.00  0.00    -0.174 A  
HETATM   16  C   UNL     1      -8.109  12.330  67.460  1.00  0.00    -0.170 A  
HETATM   17  F   UNL     1      -6.634   9.974  65.127  1.00  0.00    -0.088 F  
HETATM   18  C   UNL     1      -7.276  11.760  66.494  1.00  0.00     0.109 A  
HETATM   19  C   UNL     1      -7.478  10.446  66.058  1.00  0.00    -0.134 A  
BRANCH  16  20
HETATM   20  N   UNL     1      -7.915  13.659  67.900  1.00  0.00    -0.145 N  
HETATM   21  C   UNL     1      -7.861  15.347  69.423  1.00  0.00    -0.232 C  
HETATM   22  C   UNL     1      -7.231  14.011  69.111  1.00  0.00    -0.059 C  
HETATM   23  O   UNL     1      -8.106  15.896  68.123  1.00  0.00    -0.141 OA 
HETATM   24  O   UNL     1      -8.822  14.981  66.172  1.00  0.00    -0.217 OA 
HETATM   25  C   UNL     1      -8.326  14.833  67.274  1.00  0.00    -0.212 C  
BRANCH  21  26
HETATM   26  C   UNL     1      -9.194  15.225  70.163  1.00  0.00     0.424 C  
BRANCH  26  27
HETATM   27  O   UNL     1     -10.154  14.523  69.385  1.00  0.00    -0.131 OA 
HETATM   28  P   UNL     1     -11.743  14.623  70.060  1.00  0.00    -0.320 P  
HETATM   29  O   UNL     1     -11.888  15.982  69.160  1.00  0.00    -0.356 OA 
HETATM   30  O   UNL     1     -13.166  14.713  70.664  1.00  0.00    -0.343 OA 
HETATM   31  O   UNL     1     -12.170  13.555  68.899  1.00  0.00    -0.315 OA 
ENDBRANCH  26  27
ENDBRANCH  21  26
ENDBRANCH  16  20
ENDBRANCH  10  13
ENDBRANCH   5   7
TORSDOF 5
ENDMDL
MODEL      120
REMARK 921   NORMALIZED FREE ENERGY PREDICTED BY IDOCK:   -1.45 KCAL/MOL
REMARK 922        TOTAL FREE ENERGY PREDICTED BY IDOCK:   -2.63 KCAL/MOL
REMARK 923 INTER-LIGAND FREE ENERGY PREDICTED BY IDOCK:   -1.84 KCAL/MOL
REMARK 924 INTRA-LIGAND FREE ENERGY PREDICTED BY IDOCK:   -0.79 KCAL/MOL
REMARK 927      BINDING AFFINITY PREDICTED BY RF-SCORE:    0.00 PKD
ROOT
HETATM    1  C   UNL     1     -11.606  17.770  67.188  1.00  0.00     1.440 C  
HETATM    2  N   UNL     1     -10.719  16.692  67.531  1.00  0.00    -0.310 NA 
HETATM    3  N   UNL     1      -9.713  16.855  68.397  1.00  0.00    -0.253 NA 
HETATM    4  N   UNL     1      -9.114  15.673  68.440  1.00  0.00    -0.186 NA 
HETATM    5  C   UNL     1      -9.799  14.841  67.577  1.00  0.00    -0.218 A  
HETATM    6  N   UNL     1     -10.836  15.470  66.981  1.00  0.00    -0.323 NA 
ENDROOT
BRANCH   5   7
HETATM    7  C   UNL     1      -9.441  13.436  67.383  1.00  0.00    -0.222 A  
HETATM    8  C   UNL     1      -9.154  12.608  68.463  1.00  0.00    -0.052 A  
HETATM    9  C   UNL     1      -8.732  11.296  68.220  1.00  0.00    -0.158 A  
HETATM   10  C   UNL     1      -8.582  10.818  66.910  1.00  0.00    -0.132 A  
HETATM   11  N   UNL     1      -9.361  12.995  66.106  1.00  0.00    -0.147 NA 
HETATM   12  C   UNL     1      -8.942  11.721  65.906  1.00  0.00    -0.059 A  
BRANCH  10  13
HETATM   13  C   UNL     1      -7.994   9.495  66.602  1.00  0.00    -0.108 A  
HETATM   14  C   UNL     1      -8.802   8.425  66.184  1.00  0.00    -0.198 A  
HETATM   15  C   UNL     1      -8.286   7.132  66.011  1.00  0.00    -0.129 A  
HETATM   16  C   UNL     1      -6.938   6.852  66.242  1.00  0.00    -0.069 A  
HETATM   17  F   UNL     1      -5.776  10.167  67.149  1.00  0.00    -0.044 F  
HETATM   18  C   UNL     1      -6.113   7.915  66.616  1.00  0.00    -0.049 A  
HETATM   19  C   UNL     1      -6.635   9.202  66.786  1.00  0.00    -0.068 A  
BRANCH  16  20
HETATM   20  N   UNL     1      -6.419   5.548  66.074  1.00  0.00    -0.039 N  
HETATM   21  C   UNL     1      -5.737   3.727  64.893  1.00  0.00    -0.014 C  
HETATM   22  C   UNL     1      -5.440   5.195  65.086  1.00  0.00    -0.013 C  
HETATM   23  O   UNL     1      -6.153   3.310  66.199  1.00  0.00    -0.023 OA 
HETATM   24  O   UNL     1      -7.423   4.297  67.802  1.00  0.00    -0.068 OA 
HETATM   25  C   UNL     1      -6.737   4.403  66.801  1.00  0.00    -0.051 C  
BRANCH  21  26
HETATM   26  C   UNL     1      -6.882   3.471  63.910  1.00  0.00    -0.044 C  
BRANCH  26  27
HETATM   27  O   UNL     1      -7.865   2.616  64.474  1.00  0.00    -0.075 OA 
HETATM   28  P   UNL     1      -9.405   3.392  64.611  1.00  0.00    -0.158 P  
HETATM   29  O   UNL     1      -9.667   2.829  63.097  1.00  0.00    -0.093 OA 
HETATM   30  O   UNL     1     -10.784   4.086  64.734  1.00  0.00    -0.241 OA 
HETATM   31  O   UNL     1      -9.871   2.049  65.419  1.00  0.00     0.263 OA 
ENDBRANCH  26  27
ENDBRANCH  21  26
ENDBRANCH  16  20
ENDBRANCH  10  13
ENDBRANCH   5   7
TORSDOF 5
ENDMDL
MODEL      121
REMARK 921   NORMALIZED FREE ENERGY PREDICTED BY IDOCK:    4.17 KCAL/MOL
REMARK 922        TOTAL FREE ENERGY PREDICTED BY IDOCK:    4.62 KCAL/MOL
REMARK 923 INTER-LIGAND FREE ENERGY PREDICTED BY IDOCK:    4.29 KCAL/MOL
REMARK 924 INTRA-LIGAND FREE ENERGY PREDICTED BY IDOCK:    0.33 KCAL/MOL
REMARK 927      BINDING AFFINITY PREDICTED BY RF-SCORE:    0.00 PKD
ROOT
HETATM    1  C   UNL     1     -12.607   2.160  63.528  1.00  0.00     6.115 C  
HETATM    2  N   UNL     1     -11.399   2.742  64.048  1.00  0.00     0.189 NA 
HETATM    3  N   UNL     1     -10.301   2.011  64.267  1.00  0.00     0.147 NA 
HETATM    4  N   UNL     1      -9.421   2.870  64.759  1.00  0.00    -0.153 NA 
HETATM    5  C   UNL     1     -10.044   4.100  64.818  1.00  0.00    -0.192 A  
HETATM    6  N   UNL     1     -11.316   4.047  64.365  1.00  0.00    -0.135 NA 
ENDROOT
BRANCH   5   7
HETATM    7  C   UNL     1      -9.365   5.308  65.286  1.00  0.00     0.012 A  
HETATM    8  C   UNL     1      -8.000   5.492  65.091  1.00  0.00    -0.110 A  
HETATM    9  C   UNL     1      -7.382   6.624  65.634  1.00  0.00    -0.075 A  
HETATM   10  C   UNL     1      -8.117   7.559  66.378  1.00  0.00    -0.114 A  
HETATM   11  N   UNL     1     -10.118   6.216  65.952  1.00  0.00     0.260 NA 
HETATM   12  C   UNL     1      -9.487   7.298  66.471  1.00  0.00    -0.163 A  
BRANCH  10  13
HETATM   13  C   UNL     1      -7.483   8.686  67.099  1.00  0.00    -0.088 A  
HETATM   14  C   UNL     1      -8.050   9.202  68.275  1.00  0.00    -0.104 A  
HETATM   15  C   UNL     1      -7.539  10.349  68.901  1.00  0.00    -0.103 A  
HETATM   16  C   UNL     1      -6.433  11.027  68.384  1.00  0.00    -0.057 A  
HETATM   17  F   UNL     1      -5.711   8.915  65.523  1.00  0.00    -0.044 F  
HETATM   18  C   UNL     1      -5.831  10.500  67.239  1.00  0.00    -0.049 A  
HETATM   19  C   UNL     1      -6.347   9.356  66.620  1.00  0.00    -0.066 A  
BRANCH  16  20
HETATM   20  N   UNL     1      -5.921  12.185  69.011  1.00  0.00    -0.064 N  
HETATM   21  C   UNL     1      -5.895  13.874  70.534  1.00  0.00    -0.178 C  
HETATM   22  C   UNL     1      -5.861  12.368  70.433  1.00  0.00    -0.149 C  
HETATM   23  O   UNL     1      -5.186  14.290  69.361  1.00  0.00    -0.086 OA 
HETATM   24  O   UNL     1      -5.150  13.518  67.226  1.00  0.00    -0.327 OA 
HETATM   25  C   UNL     1      -5.396  13.323  68.402  1.00  0.00    -0.083 C  
BRANCH  21  26
HETATM   26  C   UNL     1      -7.313  14.448  70.479  1.00  0.00     0.906 C  
BRANCH  26  27
HETATM   27  O   UNL     1      -7.843  14.387  69.162  1.00  0.00    -0.113 OA 
HETATM   28  P   UNL     1      -9.355  15.217  69.027  1.00  0.00    -0.240 P  
HETATM   29  O   UNL     1      -8.443  16.533  68.687  1.00  0.00    -0.220 OA 
HETATM   30  O   UNL     1     -10.708  15.960  68.905  1.00  0.00    -0.227 OA 
HETATM   31  O   UNL     1      -9.414  14.605  67.513  1.00  0.00    -0.194 OA 
ENDBRANCH  26  27
ENDBRANCH  21  26
ENDBRANCH  16  20
ENDBRANCH  10  13
ENDBRANCH   5   7
TORSDOF 5
ENDMDL
MODEL      122
REMARK 921   NORMALIZED FREE ENERGY PREDICTED BY IDOCK:    4.92 KCAL/MOL
REMARK 922        TOTAL FREE ENERGY PREDICTED BY IDOCK:    5.60 KCAL/MOL
REMARK 923 INTER-LIGAND FREE ENERGY PREDICTED BY IDOCK:    4.28 KCAL/MOL
REMARK 924 INTRA-LIGAND FREE ENERGY PREDICTED BY IDOCK:    1.32 KCAL/MOL
REMARK 927      BINDING AFFINITY PREDICTED BY RF-SCORE:    0.00 PKD
ROOT
HETATM    1  C   UNL     1     -11.872  20.285  69.175  1.00  0.00     4.478 C  
HETATM    2  N   UNL     1     -10.933  19.197  69.165  1.00  0.00     1.244 NA 
HETATM    3  N   UNL     1      -9.776  19.257  69.834  1.00  0.00     0.308 NA 
HETATM    4  N   UNL     1      -9.178  18.104  69.572  1.00  0.00     0.430 NA 
HETATM    5  C   UNL     1     -10.018  17.393  68.739  1.00  0.00    -0.329 A  
HETATM    6  N   UNL     1     -11.154  18.071  68.462  1.00  0.00     0.323 NA 
ENDROOT
BRANCH   5   7
HETATM    7  C   UNL     1      -9.702  16.047  68.260  1.00  0.00    -0.214 A  
HETATM    8  C   UNL     1     -10.506  14.958  68.581  1.00  0.00    -0.242 A  
HETATM    9  C   UNL     1     -10.114  13.679  68.172  1.00  0.00    -0.245 A  
HETATM   10  C   UNL     1      -8.921  13.484  67.461  1.00  0.00    -0.210 A  
HETATM   11  N   UNL     1      -8.571  15.906  67.529  1.00  0.00    -0.164 NA 
HETATM   12  C   UNL     1      -8.217  14.652  67.154  1.00  0.00    -0.201 A  
BRANCH  10  13
HETATM   13  C   UNL     1      -8.389  12.140  67.142  1.00  0.00    -0.183 A  
HETATM   14  C   UNL     1      -8.055  11.790  65.824  1.00  0.00     0.541 A  
HETATM   15  C   UNL     1      -7.672  10.485  65.480  1.00  0.00    -0.127 A  
HETATM   16  C   UNL     1      -7.598   9.473  66.440  1.00  0.00    -0.097 A  
HETATM   17  F   UNL     1      -8.525  11.368  69.391  1.00  0.00    -0.000 F  
HETATM   18  C   UNL     1      -7.884   9.817  67.762  1.00  0.00    -0.094 A  
HETATM   19  C   UNL     1      -8.266  11.121  68.098  1.00  0.00    -0.131 A  
BRANCH  16  20
HETATM   20  N   UNL     1      -7.217   8.157  66.093  1.00  0.00    -0.066 N  
HETATM   21  C   UNL     1      -7.370   6.187  64.965  1.00  0.00    -0.073 C  
HETATM   22  C   UNL     1      -7.161   7.666  64.745  1.00  0.00    -0.064 C  
HETATM   23  O   UNL     1      -6.729   5.957  66.225  1.00  0.00    -0.056 OA 
HETATM   24  O   UNL     1      -6.631   7.162  68.148  1.00  0.00    -0.046 OA 
HETATM   25  C   UNL     1      -6.837   7.126  66.949  1.00  0.00    -0.072 C  
BRANCH  21  26
HETATM   26  C   UNL     1      -8.846   5.801  65.087  1.00  0.00    -0.011 C  
BRANCH  26  27
HETATM   27  O   UNL     1      -9.002   4.396  65.221  1.00  0.00    -0.129 OA 
HETATM   28  P   UNL     1      -7.621   3.651  65.951  1.00  0.00    -0.082 P  
HETATM   29  O   UNL     1      -8.382   3.953  67.368  1.00  0.00    -0.097 OA 
HETATM   30  O   UNL     1      -6.385   2.984  66.604  1.00  0.00    -0.027 OA 
HETATM   31  O   UNL     1      -8.361   2.233  65.613  1.00  0.00    -0.085 OA 
ENDBRANCH  26  27
ENDBRANCH  21  26
ENDBRANCH  16  20
ENDBRANCH  10  13
ENDBRANCH   5   7
TORSDOF 5
ENDMDL
MODEL      123
REMARK 921   NORMALIZED FREE ENERGY PREDICTED BY IDOCK:   15.84 KCAL/MOL
REMARK 922        TOTAL FREE ENERGY PREDICTED BY IDOCK:   19.70 KCAL/MOL
REMARK 923 INTER-LIGAND FREE ENERGY PREDICTED BY IDOCK:   13.85 KCAL/MOL
REMARK 924 INTRA-LIGAND FREE ENERGY PREDICTED BY IDOCK:    5.85 KCAL/MOL
REMARK 927      BINDING AFFINITY PREDICTED BY RF-SCORE:    0.00 PKD
ROOT
HETATM    1  C   UNL     1      -8.617   1.485  69.670  1.00  0.00    -0.050 C  
HETATM    2  N   UNL     1      -8.385   2.901  69.757  1.00  0.00    -0.050 NA 
HETATM    3  N   UNL     1      -7.166   3.427  69.599  1.00  0.00    -0.041 NA 
HETATM    4  N   UNL     1      -7.340   4.730  69.770  1.00  0.00    -0.054 NA 
HETATM    5  C   UNL     1      -8.680   4.929  70.032  1.00  0.00    -0.094 A  
HETATM    6  N   UNL     1      -9.376   3.770  70.028  1.00  0.00    -0.162 NA 
ENDROOT
BRANCH   5   7
HETATM    7  C   UNL     1      -9.256   6.257  70.246  1.00  0.00    -0.157 A  
HETATM    8  C   UNL     1     -10.631   6.442  70.344  1.00  0.00    -0.294 A  
HETATM    9  C   UNL     1     -11.136   7.741  70.461  1.00  0.00    -0.265 A  
HETATM   10  C   UNL     1     -10.277   8.850  70.466  1.00  0.00    -0.247 A  
HETATM   11  N   UNL     1      -8.391   7.297  70.302  1.00  0.00    -0.133 NA 
HETATM   12  C   UNL     1      -8.914   8.544  70.409  1.00  0.00    -0.152 A  
BRANCH  10  13
HETATM   13  C   UNL     1     -10.769  10.246  70.433  1.00  0.00    -0.270 A  
HETATM   14  C   UNL     1     -11.011  10.898  69.214  1.00  0.00    -0.295 A  
HETATM   15  C   UNL     1     -11.354  12.257  69.157  1.00  0.00    -0.330 A  
HETATM   16  C   UNL     1     -11.478  13.024  70.317  1.00  0.00     0.184 A  
HETATM   17  F   UNL     1     -10.770  10.478  72.804  1.00  0.00     3.998 F  
HETATM   18  C   UNL     1     -11.283  12.378  71.540  1.00  0.00     4.087 A  
HETATM   19  C   UNL     1     -10.941  11.022  71.589  1.00  0.00     3.462 A  
BRANCH  16  20
HETATM   20  N   UNL     1     -11.817  14.394  70.260  1.00  0.00    -0.297 N  
HETATM   21  C   UNL     1     -12.817  16.311  70.969  1.00  0.00     0.997 C  
HETATM   22  C   UNL     1     -11.808  15.271  71.396  1.00  0.00    -0.372 C  
HETATM   23  O   UNL     1     -12.626  16.379  69.551  1.00  0.00     0.308 OA 
HETATM   24  O   UNL     1     -12.218  14.798  67.972  1.00  0.00    -0.200 OA 
HETATM   25  C   UNL     1     -12.205  15.131  69.143  1.00  0.00    -0.150 C  
BRANCH  21  26
HETATM   26  C   UNL     1     -14.263  15.895  71.249  1.00  0.00     0.752 C  
BRANCH  26  27
HETATM   27  O   UNL     1     -14.344  14.525  71.614  1.00  0.00    -0.454 OA 
HETATM   28  P   UNL     1     -13.191  14.103  72.833  1.00  0.00    -0.045 P  
HETATM   29  O   UNL     1     -14.361  14.539  73.892  1.00  0.00     3.559 OA 
HETATM   30  O   UNL     1     -12.160  13.726  73.925  1.00  0.00     0.941 OA 
HETATM   31  O   UNL     1     -13.686  12.564  72.595  1.00  0.00    -0.322 OA 
ENDBRANCH  26  27
ENDBRANCH  21  26
ENDBRANCH  16  20
ENDBRANCH  10  13
ENDBRANCH   5   7
TORSDOF 5
ENDMDL
MODEL      124
REMARK 921   NORMALIZED FREE ENERGY PREDICTED BY IDOCK:   24.50 KCAL/MOL
REMARK 922        TOTAL FREE ENERGY PREDICTED BY IDOCK:   30.90 KCAL/MOL
REMARK 923 INTER-LIGAND FREE ENERGY PREDICTED BY IDOCK:   27.70 KCAL/MOL
REMARK 924 INTRA-LIGAND FREE ENERGY PREDICTED BY IDOCK:    3.20 KCAL/MOL
REMARK 927      BINDING AFFINITY PREDICTED BY RF-SCORE:    0.00 PKD
ROOT
HETATM    1  C   UNL     1     -13.277  21.202  70.450  1.00  0.00    11.298 C  
HETATM    2  N   UNL     1     -12.115  20.437  70.084  1.00  0.00     6.445 NA 
HETATM    3  N   UNL     1     -10.877  20.918  70.240  1.00  0.00     1.542 NA 
HETATM    4  N   UNL     1     -10.087  19.959  69.779  1.00  0.00    -0.022 NA 
HETATM    5  C   UNL     1     -10.903  18.929  69.357  1.00  0.00     1.474 A  
HETATM    6  N   UNL     1     -12.212  19.209  69.543  1.00  0.00     8.525 NA 
ENDROOT
BRANCH   5   7
HETATM    7  C   UNL     1     -10.378  17.677  68.811  1.00  0.00    -0.348 A  
HETATM    8  C   UNL     1     -11.212  16.592  68.561  1.00  0.00    -0.239 A  
HETATM    9  C   UNL     1     -10.648  15.389  68.122  1.00  0.00    -0.263 A  
HETATM   10  C   UNL     1      -9.263  15.264  67.948  1.00  0.00    -0.184 A  
HETATM   11  N   UNL     1      -9.042  17.612  68.603  1.00  0.00    -0.281 NA 
HETATM   12  C   UNL     1      -8.528  16.429  68.184  1.00  0.00    -0.188 A  
BRANCH  10  13
HETATM   13  C   UNL     1      -8.608  13.973  67.634  1.00  0.00    -0.188 A  
HETATM   14  C   UNL     1      -7.255  13.922  67.262  1.00  0.00     0.019 A  
HETATM   15  C   UNL     1      -6.650  12.729  66.838  1.00  0.00     0.475 A  
HETATM   16  C   UNL     1      -7.368  11.533  66.774  1.00  0.00    -0.111 A  
HETATM   17  F   UNL     1     -10.587  12.694  67.980  1.00  0.00    -0.201 F  
HETATM   18  C   UNL     1      -8.703  11.560  67.183  1.00  0.00    -0.160 A  
HETATM   19  C   UNL     1      -9.299  12.754  67.605  1.00  0.00    -0.191 A  
BRANCH  16  20
HETATM   20  N   UNL     1      -6.760  10.333  66.341  1.00  0.00    -0.094 N  
HETATM   21  C   UNL     1      -5.401   9.052  65.042  1.00  0.00    -0.038 C  
HETATM   22  C   UNL     1      -5.369  10.212  66.009  1.00  0.00    -0.050 C  
HETATM   23  O   UNL     1      -6.464   8.239  65.553  1.00  0.00    -0.048 OA 
HETATM   24  O   UNL     1      -8.489   8.734  66.453  1.00  0.00    -0.115 OA 
HETATM   25  C   UNL     1      -7.361   9.089  66.163  1.00  0.00    -0.091 C  
BRANCH  21  26
HETATM   26  C   UNL     1      -5.748   9.471  63.613  1.00  0.00    -0.090 C  
BRANCH  26  27
HETATM   27  O   UNL     1      -6.316   8.394  62.882  1.00  0.00    -0.085 OA 
HETATM   28  P   UNL     1      -7.818   7.865  63.559  1.00  0.00    -0.084 P  
HETATM   29  O   UNL     1      -8.494   8.990  62.583  1.00  0.00    -0.191 OA 
HETATM   30  O   UNL     1      -9.162   7.391  64.165  1.00  0.00     1.266 OA 
HETATM   31  O   UNL     1      -7.743   6.653  62.464  1.00  0.00    -0.084 OA 
ENDBRANCH  26  27
ENDBRANCH  21  26
ENDBRANCH  16  20
ENDBRANCH  10  13
ENDBRANCH   5   7
TORSDOF 5
ENDMDL
