MODEL        1
REMARK 921   NORMALIZED FREE ENERGY PREDICTED BY IDOCK:   -6.87 KCAL/MOL
REMARK 922        TOTAL FREE ENERGY PREDICTED BY IDOCK:   -7.61 KCAL/MOL
REMARK 923 INTER-LIGAND FREE ENERGY PREDICTED BY IDOCK:   -7.27 KCAL/MOL
REMARK 924 INTRA-LIGAND FREE ENERGY PREDICTED BY IDOCK:   -0.34 KCAL/MOL
REMARK 927      BINDING AFFINITY PREDICTED BY RF-SCORE:    0.00 PKD
ROOT
HETATM    1  O   UNL     1      -9.536  11.199  64.058  1.00  0.00    -0.221 OA 
HETATM    2  F   UNL     2     -11.436  14.203  63.583  1.00  0.00    -0.141 F  
HETATM    3  C   UNL     1      -9.670  11.452  65.250  1.00  0.00    -0.241 C  
HETATM    4  C   UNL     2     -11.482  14.595  64.868  1.00  0.00    -0.401 C  
HETATM    5  N   UNL     1      -8.954  12.457  65.851  1.00  0.00    -0.420 N  
HETATM    6  H   UNL     1      -8.298  12.990  65.280  1.00  0.00     0.000 HD 
HETATM    7  C   UNL     1      -9.073  12.781  67.172  1.00  0.00    -0.219 C  
HETATM    8  C   UNL     2     -10.716  15.574  65.342  1.00  0.00    -0.405 C  
HETATM    9  C   UNL     1      -9.931  12.136  67.960  1.00  0.00    -0.203 C  
HETATM   10  N   UNL     2     -10.705  15.914  66.685  1.00  0.00    -0.303 N  
HETATM   11  O   UNL     2     -12.957  12.834  65.451  1.00  0.00    -0.587 OA 
HETATM   12  C   UNL     1     -10.757  11.059  67.385  1.00  0.00    -0.257 C  
HETATM   13  C   UNL     2     -11.519  15.257  67.603  1.00  0.00    -0.280 C  
HETATM   14  O   UNL     1     -11.596  10.482  68.068  1.00  0.00    -0.442 OA 
HETATM   15  N   UNL     1     -10.529  10.774  66.065  1.00  0.00    -0.236 N  
HETATM   16  H   UNL     1     -11.042   9.991  65.659  1.00  0.00     0.000 HD 
HETATM   17  O   UNL     2     -11.458  15.420  68.819  1.00  0.00    -0.301 OA 
HETATM   18  N   UNL     2     -12.388  14.332  67.071  1.00  0.00    -0.580 N  
HETATM   19  C   UNL     2     -12.354  13.846  65.788  1.00  0.00    -0.486 C  
HETATM   20  H   UNL     2     -13.122  13.976  67.684  1.00  0.00     0.000 HD 
ENDROOT
BRANCH  10  21
HETATM   21  C   UNL     2      -9.796  16.952  67.169  1.00  0.00    -0.270 C  
HETATM   22  C   UNL     2      -8.376  18.633  66.250  1.00  0.00    -0.249 C  
HETATM   23  C   UNL     2      -8.551  17.135  66.298  1.00  0.00    -0.276 C  
HETATM   24  C   UNL     2      -9.799  19.130  66.339  1.00  0.00    -0.381 C  
HETATM   25  O   UNL     2     -10.492  18.210  67.186  1.00  0.00    -0.371 OA 
ENDBRANCH  10  21
TORSDOF 1
ENDMDL
MODEL        2
REMARK 921   NORMALIZED FREE ENERGY PREDICTED BY IDOCK:   -6.80 KCAL/MOL
REMARK 922        TOTAL FREE ENERGY PREDICTED BY IDOCK:   -7.54 KCAL/MOL
REMARK 923 INTER-LIGAND FREE ENERGY PREDICTED BY IDOCK:   -7.20 KCAL/MOL
REMARK 924 INTRA-LIGAND FREE ENERGY PREDICTED BY IDOCK:   -0.34 KCAL/MOL
REMARK 927      BINDING AFFINITY PREDICTED BY RF-SCORE:    0.00 PKD
ROOT
HETATM    1  O   UNL     1      -6.628  20.179  69.428  1.00  0.00    -0.315 OA 
HETATM    2  F   UNL     2     -10.138  19.491  69.691  1.00  0.00    -0.432 F  
HETATM    3  C   UNL     1      -6.737  19.658  68.323  1.00  0.00    -0.278 C  
HETATM    4  C   UNL     2     -10.270  18.785  68.555  1.00  0.00    -0.344 C  
HETATM    5  N   UNL     1      -6.871  18.300  68.185  1.00  0.00    -0.212 N  
HETATM    6  H   UNL     1      -6.874  17.727  69.029  1.00  0.00     0.000 HD 
HETATM    7  C   UNL     1      -7.002  17.673  66.979  1.00  0.00    -0.178 C  
HETATM    8  C   UNL     2     -10.370  17.458  68.548  1.00  0.00    -0.378 C  
HETATM    9  C   UNL     1      -7.030  18.372  65.845  1.00  0.00    -0.306 C  
HETATM   10  N   UNL     2     -10.419  16.731  67.369  1.00  0.00    -0.314 N  
HETATM   11  O   UNL     2      -9.962  20.712  67.210  1.00  0.00    -0.448 OA 
HETATM   12  C   UNL     1      -6.916  19.840  65.909  1.00  0.00    -0.285 C  
HETATM   13  C   UNL     2     -10.390  17.363  66.129  1.00  0.00    -0.327 C  
HETATM   14  O   UNL     1      -6.994  20.517  64.890  1.00  0.00    -0.255 OA 
HETATM   15  N   UNL     1      -6.738  20.370  67.159  1.00  0.00    -0.231 N  
HETATM   16  H   UNL     1      -6.594  21.378  67.225  1.00  0.00     0.000 HD 
HETATM   17  O   UNL     2     -10.297  16.772  65.056  1.00  0.00    -0.631 OA 
HETATM   18  N   UNL     2     -10.409  18.739  66.163  1.00  0.00    -0.440 N  
HETATM   19  C   UNL     2     -10.217  19.515  67.277  1.00  0.00    -0.429 C  
HETATM   20  H   UNL     2     -10.580  19.224  65.281  1.00  0.00     0.000 HD 
ENDROOT
BRANCH  10  21
HETATM   21  C   UNL     2     -10.460  15.270  67.412  1.00  0.00    -0.270 C  
HETATM   22  C   UNL     2     -10.828  13.555  69.027  1.00  0.00    -0.227 C  
HETATM   23  C   UNL     2      -9.874  14.676  68.695  1.00  0.00    -0.224 C  
HETATM   24  C   UNL     2     -12.142  14.079  68.500  1.00  0.00    -0.294 C  
HETATM   25  O   UNL     2     -11.829  14.840  67.330  1.00  0.00    -0.377 OA 
ENDBRANCH  10  21
TORSDOF 1
ENDMDL
MODEL        3
REMARK 921   NORMALIZED FREE ENERGY PREDICTED BY IDOCK:   -6.54 KCAL/MOL
REMARK 922        TOTAL FREE ENERGY PREDICTED BY IDOCK:   -7.27 KCAL/MOL
REMARK 923 INTER-LIGAND FREE ENERGY PREDICTED BY IDOCK:   -7.01 KCAL/MOL
REMARK 924 INTRA-LIGAND FREE ENERGY PREDICTED BY IDOCK:   -0.26 KCAL/MOL
REMARK 927      BINDING AFFINITY PREDICTED BY RF-SCORE:    0.00 PKD
ROOT
HETATM    1  O   UNL     1      -6.209  17.452  69.469  1.00  0.00    -0.237 OA 
HETATM    2  F   UNL     2      -9.594  16.279  69.656  1.00  0.00    -0.238 F  
HETATM    3  C   UNL     1      -6.588  17.996  68.438  1.00  0.00    -0.210 C  
HETATM    4  C   UNL     2     -10.010  16.735  68.462  1.00  0.00    -0.271 C  
HETATM    5  N   UNL     1      -6.808  17.277  67.290  1.00  0.00    -0.158 N  
HETATM    6  H   UNL     1      -6.643  16.271  67.313  1.00  0.00     0.000 HD 
HETATM    7  C   UNL     1      -7.235  17.836  66.120  1.00  0.00    -0.311 C  
HETATM    8  C   UNL     2     -10.165  15.936  67.409  1.00  0.00    -0.270 C  
HETATM    9  C   UNL     1      -7.490  19.140  66.038  1.00  0.00    -0.287 C  
HETATM   10  N   UNL     2     -10.510  16.427  66.160  1.00  0.00    -0.328 N  
HETATM   11  O   UNL     2      -9.935  18.989  69.191  1.00  0.00    -0.385 OA 
HETATM   12  C   UNL     1      -7.304  19.980  67.235  1.00  0.00    -0.257 C  
HETATM   13  C   UNL     2     -10.737  17.785  65.954  1.00  0.00    -0.116 C  
HETATM   14  O   UNL     1      -7.583  21.174  67.210  1.00  0.00    -0.383 OA 
HETATM   15  N   UNL     1      -6.824  19.337  68.345  1.00  0.00    -0.264 N  
HETATM   16  H   UNL     1      -6.627  19.907  69.168  1.00  0.00     0.000 HD 
HETATM   17  O   UNL     2     -10.915  18.295  64.851  1.00  0.00    -0.660 OA 
HETATM   18  N   UNL     2     -10.690  18.572  67.082  1.00  0.00    -0.393 N  
HETATM   19  C   UNL     2     -10.218  18.185  68.310  1.00  0.00    -0.389 C  
HETATM   20  H   UNL     2     -11.037  19.528  66.997  1.00  0.00     0.000 HD 
ENDROOT
BRANCH  10  21
HETATM   21  C   UNL     2     -10.602  15.518  65.018  1.00  0.00    -0.409 C  
HETATM   22  C   UNL     2     -11.058  13.212  64.620  1.00  0.00    -0.366 C  
HETATM   23  C   UNL     2     -10.060  14.116  65.302  1.00  0.00    -0.364 C  
HETATM   24  C   UNL     2     -12.343  13.994  64.744  1.00  0.00    -0.413 C  
HETATM   25  O   UNL     2     -11.983  15.374  64.646  1.00  0.00    -0.298 OA 
ENDBRANCH  10  21
TORSDOF 1
ENDMDL
MODEL        4
REMARK 921   NORMALIZED FREE ENERGY PREDICTED BY IDOCK:   -6.52 KCAL/MOL
REMARK 922        TOTAL FREE ENERGY PREDICTED BY IDOCK:   -7.25 KCAL/MOL
REMARK 923 INTER-LIGAND FREE ENERGY PREDICTED BY IDOCK:   -6.93 KCAL/MOL
REMARK 924 INTRA-LIGAND FREE ENERGY PREDICTED BY IDOCK:   -0.32 KCAL/MOL
REMARK 927      BINDING AFFINITY PREDICTED BY RF-SCORE:    0.00 PKD
ROOT
HETATM    1  O   UNL     1     -11.079  19.779  65.228  1.00  0.00    -0.395 OA 
HETATM    2  F   UNL     2     -10.187  16.312  65.013  1.00  0.00    -0.310 F  
HETATM    3  C   UNL     1     -10.404  19.759  66.252  1.00  0.00    -0.519 C  
HETATM    4  C   UNL     2      -9.563  16.210  66.199  1.00  0.00    -0.327 C  
HETATM    5  N   UNL     1     -10.868  19.173  67.402  1.00  0.00    -0.481 N  
HETATM    6  H   UNL     1     -11.798  18.754  67.388  1.00  0.00     0.000 HD 
HETATM    7  C   UNL     1     -10.153  19.120  68.564  1.00  0.00    -0.422 C  
HETATM    8  C   UNL     2     -10.130  15.635  67.256  1.00  0.00    -0.255 C  
HETATM    9  C   UNL     1      -8.924  19.628  68.633  1.00  0.00    -0.335 C  
HETATM   10  N   UNL     2      -9.516  15.612  68.498  1.00  0.00    -0.195 N  
HETATM   11  O   UNL     2      -7.735  17.524  65.456  1.00  0.00    -0.383 OA 
HETATM   12  C   UNL     1      -8.341  20.254  67.433  1.00  0.00    -0.340 C  
HETATM   13  C   UNL     2      -8.257  16.173  68.692  1.00  0.00    -0.202 C  
HETATM   14  O   UNL     1      -7.193  20.682  67.446  1.00  0.00    -0.306 OA 
HETATM   15  N   UNL     1      -9.156  20.304  66.333  1.00  0.00    -0.573 N  
HETATM   16  H   UNL     1      -8.800  20.787  65.508  1.00  0.00     0.000 HD 
HETATM   17  O   UNL     2      -7.720  16.301  69.789  1.00  0.00     0.053 OA 
HETATM   18  N   UNL     2      -7.640  16.653  67.559  1.00  0.00    -0.149 N  
HETATM   19  C   UNL     2      -8.239  16.839  66.339  1.00  0.00    -0.314 C  
HETATM   20  H   UNL     2      -6.651  16.893  67.634  1.00  0.00     0.000 HD 
ENDROOT
BRANCH  10  21
HETATM   21  C   UNL     2     -10.209  15.027  69.645  1.00  0.00    -0.157 C  
HETATM   22  C   UNL     2     -12.417  14.973  70.543  1.00  0.00    -0.425 C  
HETATM   23  C   UNL     2     -11.292  15.932  70.235  1.00  0.00    -0.381 C  
HETATM   24  C   UNL     2     -12.255  13.927  69.468  1.00  0.00    -0.306 C  
HETATM   25  O   UNL     2     -10.850  13.809  69.232  1.00  0.00    -0.203 OA 
ENDBRANCH  10  21
TORSDOF 1
ENDMDL
MODEL        5
REMARK 921   NORMALIZED FREE ENERGY PREDICTED BY IDOCK:   -6.44 KCAL/MOL
REMARK 922        TOTAL FREE ENERGY PREDICTED BY IDOCK:   -7.16 KCAL/MOL
REMARK 923 INTER-LIGAND FREE ENERGY PREDICTED BY IDOCK:   -6.83 KCAL/MOL
REMARK 924 INTRA-LIGAND FREE ENERGY PREDICTED BY IDOCK:   -0.32 KCAL/MOL
REMARK 927      BINDING AFFINITY PREDICTED BY RF-SCORE:    0.00 PKD
ROOT
HETATM    1  O   UNL     1     -11.919  13.378  70.665  1.00  0.00    -0.316 OA 
HETATM    2  F   UNL     2      -8.841  15.154  70.178  1.00  0.00    -0.100 F  
HETATM    3  C   UNL     1     -11.985  13.411  69.441  1.00  0.00    -0.315 C  
HETATM    4  C   UNL     2      -8.945  15.340  68.851  1.00  0.00    -0.209 C  
HETATM    5  N   UNL     1     -12.310  14.565  68.774  1.00  0.00    -0.586 N  
HETATM    6  H   UNL     1     -12.502  15.402  69.324  1.00  0.00     0.000 HD 
HETATM    7  C   UNL     1     -12.390  14.653  67.414  1.00  0.00     0.130 C  
HETATM    8  C   UNL     2      -9.294  16.509  68.321  1.00  0.00    -0.217 C  
HETATM    9  C   UNL     1     -12.125  13.600  66.643  1.00  0.00    -0.459 C  
HETATM   10  N   UNL     2      -9.485  16.670  66.958  1.00  0.00    -0.225 N  
HETATM   11  O   UNL     2      -8.587  13.040  68.405  1.00  0.00    -0.168 OA 
HETATM   12  C   UNL     1     -11.743  12.327  67.282  1.00  0.00    -0.324 C  
HETATM   13  C   UNL     2      -9.296  15.613  66.072  1.00  0.00    -0.349 C  
HETATM   14  O   UNL     1     -11.439  11.354  66.601  1.00  0.00    -0.408 OA 
HETATM   15  N   UNL     1     -11.741  12.325  68.651  1.00  0.00    -0.313 N  
HETATM   16  H   UNL     1     -11.541  11.441  69.118  1.00  0.00     0.000 HD 
HETATM   17  O   UNL     2      -9.575  15.657  64.877  1.00  0.00    -0.077 OA 
HETATM   18  N   UNL     2      -8.819  14.448  66.630  1.00  0.00    -0.423 N  
HETATM   19  C   UNL     2      -8.747  14.175  67.972  1.00  0.00    -0.177 C  
HETATM   20  H   UNL     2      -8.492  13.725  65.989  1.00  0.00     0.000 HD 
ENDROOT
BRANCH  10  21
HETATM   21  C   UNL     2      -9.933  17.958  66.430  1.00  0.00    -0.358 C  
HETATM   22  C   UNL     2     -10.029  20.230  67.145  1.00  0.00    -0.593 C  
HETATM   23  C   UNL     2     -10.575  18.864  67.482  1.00  0.00    -0.524 C  
HETATM   24  C   UNL     2      -8.664  19.906  66.587  1.00  0.00    -0.349 C  
HETATM   25  O   UNL     2      -8.800  18.663  65.895  1.00  0.00    -0.475 OA 
ENDBRANCH  10  21
TORSDOF 1
ENDMDL
MODEL        6
REMARK 921   NORMALIZED FREE ENERGY PREDICTED BY IDOCK:   -6.38 KCAL/MOL
REMARK 922        TOTAL FREE ENERGY PREDICTED BY IDOCK:   -7.09 KCAL/MOL
REMARK 923 INTER-LIGAND FREE ENERGY PREDICTED BY IDOCK:   -6.96 KCAL/MOL
REMARK 924 INTRA-LIGAND FREE ENERGY PREDICTED BY IDOCK:   -0.14 KCAL/MOL
REMARK 927      BINDING AFFINITY PREDICTED BY RF-SCORE:    0.00 PKD
ROOT
HETATM    1  O   UNL     1      -9.189  10.683  64.744  1.00  0.00    -0.196 OA 
HETATM    2  F   UNL     2     -10.989  13.567  63.601  1.00  0.00    -0.251 F  
HETATM    3  C   UNL     1      -9.491  11.093  65.859  1.00  0.00    -0.215 C  
HETATM    4  C   UNL     2     -11.216  14.127  64.801  1.00  0.00    -0.378 C  
HETATM    5  N   UNL     1      -8.865  12.180  66.414  1.00  0.00    -0.359 N  
HETATM    6  H   UNL     1      -8.132  12.641  65.876  1.00  0.00     0.000 HD 
HETATM    7  C   UNL     1      -9.169  12.677  67.649  1.00  0.00    -0.191 C  
HETATM    8  C   UNL     2     -10.521  15.173  65.242  1.00  0.00    -0.409 C  
HETATM    9  C   UNL     1     -10.134  12.131  68.387  1.00  0.00    -0.210 C  
HETATM   10  N   UNL     2     -10.701  15.690  66.514  1.00  0.00    -0.307 N  
HETATM   11  O   UNL     2     -12.767  12.439  65.402  1.00  0.00    -0.582 OA 
HETATM   12  C   UNL     1     -10.874  10.974  67.851  1.00  0.00    -0.237 C  
HETATM   13  C   UNL     2     -11.641  15.151  67.388  1.00  0.00    -0.240 C  
HETATM   14  O   UNL     1     -11.804  10.482  68.480  1.00  0.00    -0.349 OA 
HETATM   15  N   UNL     1     -10.461  10.518  66.628  1.00  0.00    -0.242 N  
HETATM   16  H   UNL     1     -10.914   9.680  66.263  1.00  0.00     0.000 HD 
HETATM   17  O   UNL     2     -11.754  15.477  68.567  1.00  0.00    -0.363 OA 
HETATM   18  N   UNL     2     -12.430  14.150  66.868  1.00  0.00    -0.549 N  
HETATM   19  C   UNL     2     -12.214  13.496  65.681  1.00  0.00    -0.458 C  
HETATM   20  H   UNL     2     -13.245  13.869  67.413  1.00  0.00     0.000 HD 
ENDROOT
BRANCH  10  21
HETATM   21  C   UNL     2      -9.866  16.798  66.978  1.00  0.00    -0.262 C  
HETATM   22  C   UNL     2      -7.592  17.166  67.593  1.00  0.00    -0.180 C  
HETATM   23  C   UNL     2      -8.815  16.386  68.010  1.00  0.00    -0.184 C  
HETATM   24  C   UNL     2      -7.758  17.255  66.095  1.00  0.00    -0.282 C  
HETATM   25  O   UNL     2      -9.164  17.355  65.853  1.00  0.00    -0.513 OA 
ENDBRANCH  10  21
TORSDOF 1
ENDMDL
MODEL        7
REMARK 921   NORMALIZED FREE ENERGY PREDICTED BY IDOCK:   -6.36 KCAL/MOL
REMARK 922        TOTAL FREE ENERGY PREDICTED BY IDOCK:   -7.08 KCAL/MOL
REMARK 923 INTER-LIGAND FREE ENERGY PREDICTED BY IDOCK:   -6.99 KCAL/MOL
REMARK 924 INTRA-LIGAND FREE ENERGY PREDICTED BY IDOCK:   -0.09 KCAL/MOL
REMARK 927      BINDING AFFINITY PREDICTED BY RF-SCORE:    0.00 PKD
ROOT
HETATM    1  O   UNL     1      -7.973  14.900  69.350  1.00  0.00    -0.178 OA 
HETATM    2  F   UNL     2     -10.569  12.426  69.390  1.00  0.00    -0.135 F  
HETATM    3  C   UNL     1      -8.599  15.359  68.400  1.00  0.00    -0.162 C  
HETATM    4  C   UNL     2     -11.203  12.808  68.267  1.00  0.00    -0.271 C  
HETATM    5  N   UNL     1      -8.571  14.756  67.169  1.00  0.00    -0.214 N  
HETATM    6  H   UNL     1      -8.010  13.912  67.057  1.00  0.00     0.000 HD 
HETATM    7  C   UNL     1      -9.255  15.225  66.084  1.00  0.00    -0.310 C  
HETATM    8  C   UNL     2     -11.078  12.149  67.118  1.00  0.00    -0.291 C  
HETATM    9  C   UNL     1     -10.024  16.308  66.176  1.00  0.00    -0.355 C  
HETATM   10  N   UNL     2     -11.664  12.599  65.946  1.00  0.00    -0.398 N  
HETATM   11  O   UNL     2     -12.011  14.790  69.287  1.00  0.00    -0.303 OA 
HETATM   12  C   UNL     1     -10.128  17.001  67.473  1.00  0.00    -0.294 C  
HETATM   13  C   UNL     2     -12.436  13.758  65.922  1.00  0.00    -0.468 C  
HETATM   14  O   UNL     1     -10.870  17.968  67.607  1.00  0.00    -0.390 OA 
HETATM   15  N   UNL     1      -9.365  16.485  68.486  1.00  0.00    -0.221 N  
HETATM   16  H   UNL     1      -9.371  16.982  69.377  1.00  0.00     0.000 HD 
HETATM   17  O   UNL     2     -12.869  14.277  64.897  1.00  0.00    -0.680 OA 
HETATM   18  N   UNL     2     -12.650  14.354  67.145  1.00  0.00    -0.422 N  
HETATM   19  C   UNL     2     -11.991  14.051  68.309  1.00  0.00    -0.349 C  
HETATM   20  H   UNL     2     -13.360  15.085  67.188  1.00  0.00     0.000 HD 
ENDROOT
BRANCH  10  21
HETATM   21  C   UNL     2     -11.442  11.877  64.694  1.00  0.00    -0.279 C  
HETATM   22  C   UNL     2      -9.684  11.569  63.114  1.00  0.00    -0.412 C  
HETATM   23  C   UNL     2     -10.577  12.640  63.689  1.00  0.00    -0.378 C  
HETATM   24  C   UNL     2      -9.526  10.619  64.276  1.00  0.00    -0.274 C  
HETATM   25  O   UNL     2     -10.769  10.640  64.982  1.00  0.00    -0.203 OA 
ENDBRANCH  10  21
TORSDOF 1
ENDMDL
MODEL        8
REMARK 921   NORMALIZED FREE ENERGY PREDICTED BY IDOCK:   -6.23 KCAL/MOL
REMARK 922        TOTAL FREE ENERGY PREDICTED BY IDOCK:   -6.94 KCAL/MOL
REMARK 923 INTER-LIGAND FREE ENERGY PREDICTED BY IDOCK:   -6.62 KCAL/MOL
REMARK 924 INTRA-LIGAND FREE ENERGY PREDICTED BY IDOCK:   -0.32 KCAL/MOL
REMARK 927      BINDING AFFINITY PREDICTED BY RF-SCORE:    0.00 PKD
ROOT
HETATM    1  O   UNL     1      -7.191  17.874  65.703  1.00  0.00    -0.514 OA 
HETATM    2  F   UNL     2      -6.966  14.644  67.247  1.00  0.00    -0.204 F  
HETATM    3  C   UNL     1      -8.234  17.966  66.340  1.00  0.00    -0.255 C  
HETATM    4  C   UNL     2      -8.170  14.644  67.845  1.00  0.00    -0.150 C  
HETATM    5  N   UNL     1      -9.363  17.283  65.964  1.00  0.00    -0.159 N  
HETATM    6  H   UNL     1      -9.316  16.694  65.132  1.00  0.00     0.000 HD 
HETATM    7  C   UNL     1     -10.546  17.348  66.643  1.00  0.00    -0.182 C  
HETATM    8  C   UNL     2      -9.202  13.953  67.368  1.00  0.00    -0.224 C  
HETATM    9  C   UNL     1     -10.660  18.079  67.750  1.00  0.00    -0.409 C  
HETATM   10  N   UNL     2     -10.462  14.027  67.939  1.00  0.00    -0.238 N  
HETATM   11  O   UNL     2      -7.498  16.294  69.409  1.00  0.00    -0.233 OA 
HETATM   12  C   UNL     1      -9.485  18.825  68.236  1.00  0.00    -0.349 C  
HETATM   13  C   UNL     2     -10.702  14.814  69.062  1.00  0.00    -0.250 C  
HETATM   14  O   UNL     1      -9.539  19.464  69.281  1.00  0.00    -0.346 OA 
HETATM   15  N   UNL     1      -8.361  18.737  67.459  1.00  0.00    -0.264 N  
HETATM   16  H   UNL     1      -7.552  19.293  67.739  1.00  0.00     0.000 HD 
HETATM   17  O   UNL     2     -11.816  15.024  69.533  1.00  0.00    -0.298 OA 
HETATM   18  N   UNL     2      -9.594  15.422  69.608  1.00  0.00    -0.366 N  
HETATM   19  C   UNL     2      -8.357  15.511  69.020  1.00  0.00    -0.227 C  
HETATM   20  H   UNL     2      -9.702  15.845  70.531  1.00  0.00     0.000 HD 
ENDROOT
BRANCH  10  21
HETATM   21  C   UNL     2     -11.581  13.302  67.338  1.00  0.00    -0.353 C  
HETATM   22  C   UNL     2     -12.469  12.903  65.162  1.00  0.00    -0.561 C  
HETATM   23  C   UNL     2     -12.207  14.021  66.142  1.00  0.00    -0.494 C  
HETATM   24  C   UNL     2     -11.349  11.937  65.464  1.00  0.00    -0.277 C  
HETATM   25  O   UNL     2     -11.112  12.026  66.871  1.00  0.00    -0.268 OA 
ENDBRANCH  10  21
TORSDOF 1
ENDMDL
MODEL        9
REMARK 921   NORMALIZED FREE ENERGY PREDICTED BY IDOCK:   -6.02 KCAL/MOL
REMARK 922        TOTAL FREE ENERGY PREDICTED BY IDOCK:   -6.71 KCAL/MOL
REMARK 923 INTER-LIGAND FREE ENERGY PREDICTED BY IDOCK:   -6.36 KCAL/MOL
REMARK 924 INTRA-LIGAND FREE ENERGY PREDICTED BY IDOCK:   -0.34 KCAL/MOL
REMARK 927      BINDING AFFINITY PREDICTED BY RF-SCORE:    0.00 PKD
ROOT
HETATM    1  O   UNL     1     -13.660  14.053  65.539  1.00  0.00    -0.596 OA 
HETATM    2  F   UNL     2     -12.656  15.629  68.601  1.00  0.00    -0.052 F  
HETATM    3  C   UNL     1     -12.495  13.672  65.501  1.00  0.00    -0.503 C  
HETATM    4  C   UNL     2     -11.342  15.356  68.524  1.00  0.00    -0.335 C  
HETATM    5  N   UNL     1     -11.474  14.528  65.174  1.00  0.00    -0.354 N  
HETATM    6  H   UNL     1     -11.707  15.497  64.957  1.00  0.00     0.000 HD 
HETATM    7  C   UNL     1     -10.162  14.152  65.124  1.00  0.00    -0.384 C  
HETATM    8  C   UNL     2     -10.444  16.272  68.170  1.00  0.00    -0.289 C  
HETATM    9  C   UNL     1      -9.795  12.907  65.422  1.00  0.00    -0.133 C  
HETATM   10  N   UNL     2      -9.104  15.961  68.009  1.00  0.00    -0.183 N  
HETATM   11  O   UNL     2     -11.701  13.048  68.927  1.00  0.00    -0.289 OA 
HETATM   12  C   UNL     1     -10.830  11.931  65.808  1.00  0.00    -0.295 C  
HETATM   13  C   UNL     2      -8.627  14.673  68.234  1.00  0.00    -0.167 C  
HETATM   14  O   UNL     1     -10.522  10.793  66.142  1.00  0.00    -0.249 OA 
HETATM   15  N   UNL     1     -12.120  12.389  65.779  1.00  0.00    -0.388 N  
HETATM   16  H   UNL     1     -12.861  11.717  65.982  1.00  0.00     0.000 HD 
HETATM   17  O   UNL     2      -7.483  14.306  67.981  1.00  0.00    -0.113 OA 
HETATM   18  N   UNL     2      -9.552  13.774  68.715  1.00  0.00    -0.401 N  
HETATM   19  C   UNL     2     -10.910  13.969  68.760  1.00  0.00    -0.263 C  
HETATM   20  H   UNL     2      -9.197  12.884  69.067  1.00  0.00     0.000 HD 
ENDROOT
BRANCH  10  21
HETATM   21  C   UNL     2      -8.166  16.987  67.553  1.00  0.00    -0.180 C  
HETATM   22  C   UNL     2      -8.216  19.294  66.954  1.00  0.00    -0.296 C  
HETATM   23  C   UNL     2      -8.761  17.953  66.527  1.00  0.00    -0.278 C  
HETATM   24  C   UNL     2      -8.100  19.136  68.451  1.00  0.00    -0.343 C  
HETATM   25  O   UNL     2      -7.747  17.771  68.684  1.00  0.00    -0.275 OA 
ENDBRANCH  10  21
TORSDOF 1
ENDMDL
MODEL       10
REMARK 921   NORMALIZED FREE ENERGY PREDICTED BY IDOCK:   -5.97 KCAL/MOL
REMARK 922        TOTAL FREE ENERGY PREDICTED BY IDOCK:   -6.66 KCAL/MOL
REMARK 923 INTER-LIGAND FREE ENERGY PREDICTED BY IDOCK:   -6.40 KCAL/MOL
REMARK 924 INTRA-LIGAND FREE ENERGY PREDICTED BY IDOCK:   -0.25 KCAL/MOL
REMARK 927      BINDING AFFINITY PREDICTED BY RF-SCORE:    0.00 PKD
ROOT
HETATM    1  O   UNL     1     -11.046  15.496  64.988  1.00  0.00    -0.388 OA 
HETATM    2  F   UNL     2     -10.024  14.024  68.096  1.00  0.00    -0.214 F  
HETATM    3  C   UNL     1     -11.167  14.331  64.622  1.00  0.00    -0.366 C  
HETATM    4  C   UNL     2     -10.002  12.742  67.691  1.00  0.00    -0.217 C  
HETATM    5  N   UNL     1     -10.072  13.556  64.336  1.00  0.00    -0.665 N  
HETATM    6  H   UNL     1      -9.146  13.974  64.431  1.00  0.00     0.000 HD 
HETATM    7  C   UNL     1     -10.154  12.254  63.930  1.00  0.00    -0.347 C  
HETATM    8  C   UNL     2      -8.869  12.099  67.420  1.00  0.00    -0.181 C  
HETATM    9  C   UNL     1     -11.334  11.649  63.812  1.00  0.00    -0.482 C  
HETATM   10  N   UNL     2      -8.859  10.807  66.921  1.00  0.00    -0.138 N  
HETATM   11  O   UNL     2     -12.366  12.651  67.536  1.00  0.00    -0.304 OA 
HETATM   12  C   UNL     1     -12.560  12.406  64.126  1.00  0.00    -0.403 C  
HETATM   13  C   UNL     2     -10.042  10.107  66.701  1.00  0.00    -0.223 C  
HETATM   14  O   UNL     1     -13.658  11.863  64.081  1.00  0.00    -0.481 OA 
HETATM   15  N   UNL     1     -12.376  13.717  64.474  1.00  0.00    -0.579 N  
HETATM   16  H   UNL     1     -13.212  14.281  64.635  1.00  0.00     0.000 HD 
HETATM   17  O   UNL     2     -10.105   9.017  66.140  1.00  0.00    -0.290 OA 
HETATM   18  N   UNL     2     -11.193  10.747  67.102  1.00  0.00    -0.231 N  
HETATM   19  C   UNL     2     -11.291  12.067  67.464  1.00  0.00    -0.319 C  
HETATM   20  H   UNL     2     -12.048  10.191  67.131  1.00  0.00     0.000 HD 
ENDROOT
BRANCH  10  21
HETATM   21  C   UNL     2      -7.590  10.167  66.575  1.00  0.00    -0.109 C  
HETATM   22  C   UNL     2      -5.722  10.591  65.155  1.00  0.00    -0.137 C  
HETATM   23  C   UNL     2      -7.206  10.321  65.102  1.00  0.00    -0.125 C  
HETATM   24  C   UNL     2      -5.572  11.327  66.464  1.00  0.00    -0.137 C  
HETATM   25  O   UNL     2      -6.539  10.764  67.354  1.00  0.00    -0.067 OA 
ENDBRANCH  10  21
TORSDOF 1
ENDMDL
MODEL       11
REMARK 921   NORMALIZED FREE ENERGY PREDICTED BY IDOCK:   -5.95 KCAL/MOL
REMARK 922        TOTAL FREE ENERGY PREDICTED BY IDOCK:   -6.64 KCAL/MOL
REMARK 923 INTER-LIGAND FREE ENERGY PREDICTED BY IDOCK:   -6.33 KCAL/MOL
REMARK 924 INTRA-LIGAND FREE ENERGY PREDICTED BY IDOCK:   -0.31 KCAL/MOL
REMARK 927      BINDING AFFINITY PREDICTED BY RF-SCORE:    0.00 PKD
ROOT
HETATM    1  O   UNL     1     -10.410  10.786  65.041  1.00  0.00    -0.302 OA 
HETATM    2  F   UNL     2     -12.723  13.328  66.065  1.00  0.00    -0.447 F  
HETATM    3  C   UNL     1      -9.754  11.174  66.001  1.00  0.00    -0.226 C  
HETATM    4  C   UNL     2     -11.971  13.879  67.034  1.00  0.00    -0.424 C  
HETATM    5  N   UNL     1      -9.062  12.358  65.961  1.00  0.00    -0.429 N  
HETATM    6  H   UNL     1      -9.103  12.912  65.105  1.00  0.00     0.000 HD 
HETATM    7  C   UNL     1      -8.322  12.835  67.005  1.00  0.00    -0.120 C  
HETATM    8  C   UNL     2     -11.325  15.030  66.867  1.00  0.00    -0.302 C  
HETATM    9  C   UNL     1      -8.253  12.167  68.155  1.00  0.00    -0.164 C  
HETATM   10  N   UNL     2     -10.483  15.547  67.837  1.00  0.00    -0.260 N  
HETATM   11  O   UNL     2     -12.231  11.989  68.441  1.00  0.00    -0.373 OA 
HETATM   12  C   UNL     1      -8.988  10.897  68.288  1.00  0.00    -0.150 C  
HETATM   13  C   UNL     2     -10.291  14.893  69.051  1.00  0.00    -0.245 C  
HETATM   14  O   UNL     1      -8.991  10.285  69.351  1.00  0.00    -0.185 OA 
HETATM   15  N   UNL     1      -9.658  10.477  67.171  1.00  0.00    -0.166 N  
HETATM   16  H   UNL     1     -10.124   9.570  67.216  1.00  0.00     0.000 HD 
HETATM   17  O   UNL     2      -9.462  15.229  69.892  1.00  0.00    -0.195 OA 
HETATM   18  N   UNL     2     -11.062  13.770  69.248  1.00  0.00    -0.358 N  
HETATM   19  C   UNL     2     -11.799  13.126  68.287  1.00  0.00    -0.349 C  
HETATM   20  H   UNL     2     -11.086  13.381  70.192  1.00  0.00     0.000 HD 
ENDROOT
BRANCH  10  21
HETATM   21  C   UNL     2      -9.742  16.782  67.580  1.00  0.00    -0.251 C  
HETATM   22  C   UNL     2      -9.881  18.660  66.118  1.00  0.00    -0.308 C  
HETATM   23  C   UNL     2      -9.679  17.164  66.100  1.00  0.00    -0.263 C  
HETATM   24  C   UNL     2     -10.778  18.852  67.317  1.00  0.00    -0.449 C  
HETATM   25  O   UNL     2     -10.386  17.865  68.273  1.00  0.00    -0.362 OA 
ENDBRANCH  10  21
TORSDOF 1
ENDMDL
MODEL       12
REMARK 921   NORMALIZED FREE ENERGY PREDICTED BY IDOCK:   -5.91 KCAL/MOL
REMARK 922        TOTAL FREE ENERGY PREDICTED BY IDOCK:   -6.60 KCAL/MOL
REMARK 923 INTER-LIGAND FREE ENERGY PREDICTED BY IDOCK:   -6.26 KCAL/MOL
REMARK 924 INTRA-LIGAND FREE ENERGY PREDICTED BY IDOCK:   -0.34 KCAL/MOL
REMARK 927      BINDING AFFINITY PREDICTED BY RF-SCORE:    0.00 PKD
ROOT
HETATM    1  O   UNL     1     -10.650  17.854  68.093  1.00  0.00    -0.387 OA 
HETATM    2  F   UNL     2      -8.275  15.619  66.601  1.00  0.00    -0.243 F  
HETATM    3  C   UNL     1     -11.102  16.833  68.600  1.00  0.00    -0.247 C  
HETATM    4  C   UNL     2      -8.825  14.465  67.016  1.00  0.00    -0.237 C  
HETATM    5  N   UNL     1     -11.833  15.934  67.865  1.00  0.00    -0.142 N  
HETATM    6  H   UNL     1     -11.997  16.137  66.879  1.00  0.00     0.000 HD 
HETATM    7  C   UNL     1     -12.351  14.781  68.382  1.00  0.00     0.082 C  
HETATM    8  C   UNL     2      -9.537  13.683  66.208  1.00  0.00    -0.239 C  
HETATM    9  C   UNL     1     -12.148  14.451  69.656  1.00  0.00    -0.381 C  
HETATM   10  N   UNL     2     -10.173  12.541  66.665  1.00  0.00    -0.227 N  
HETATM   11  O   UNL     2      -8.197  14.866  69.267  1.00  0.00    -0.172 OA 
HETATM   12  C   UNL     1     -11.352  15.352  70.508  1.00  0.00    -0.326 C  
HETATM   13  C   UNL     2     -10.076  12.141  67.995  1.00  0.00    -0.204 C  
HETATM   14  O   UNL     1     -11.099  15.052  71.669  1.00  0.00    -0.281 OA 
HETATM   15  N   UNL     1     -10.919  16.507  69.912  1.00  0.00    -0.377 N  
HETATM   16  H   UNL     1     -10.418  17.177  70.497  1.00  0.00     0.000 HD 
HETATM   17  O   UNL     2     -10.719  11.219  68.488  1.00  0.00    -0.180 OA 
HETATM   18  N   UNL     2      -9.237  12.898  68.782  1.00  0.00    -0.398 N  
HETATM   19  C   UNL     2      -8.696  14.111  68.440  1.00  0.00    -0.178 C  
HETATM   20  H   UNL     2      -8.997  12.524  69.701  1.00  0.00     0.000 HD 
ENDROOT
BRANCH  10  21
HETATM   21  C   UNL     2     -10.999  11.750  65.754  1.00  0.00    -0.301 C  
HETATM   22  C   UNL     2     -12.077  12.030  63.645  1.00  0.00    -0.627 C  
HETATM   23  C   UNL     2     -12.095  12.561  65.058  1.00  0.00    -0.504 C  
HETATM   24  C   UNL     2     -10.626  11.661  63.455  1.00  0.00    -0.435 C  
HETATM   25  O   UNL     2     -10.161  11.197  64.725  1.00  0.00    -0.253 OA 
ENDBRANCH  10  21
TORSDOF 1
ENDMDL
MODEL       13
REMARK 921   NORMALIZED FREE ENERGY PREDICTED BY IDOCK:   -5.90 KCAL/MOL
REMARK 922        TOTAL FREE ENERGY PREDICTED BY IDOCK:   -6.59 KCAL/MOL
REMARK 923 INTER-LIGAND FREE ENERGY PREDICTED BY IDOCK:   -6.35 KCAL/MOL
REMARK 924 INTRA-LIGAND FREE ENERGY PREDICTED BY IDOCK:   -0.24 KCAL/MOL
REMARK 927      BINDING AFFINITY PREDICTED BY RF-SCORE:    0.00 PKD
ROOT
HETATM    1  O   UNL     1     -13.654  14.182  65.410  1.00  0.00    -0.568 OA 
HETATM    2  F   UNL     2     -12.514  13.849  68.795  1.00  0.00    -0.374 F  
HETATM    3  C   UNL     1     -12.539  13.759  65.126  1.00  0.00    -0.433 C  
HETATM    4  C   UNL     2     -11.238  13.524  68.526  1.00  0.00    -0.278 C  
HETATM    5  N   UNL     1     -11.425  14.553  65.235  1.00  0.00    -0.344 N  
HETATM    6  H   UNL     1     -11.547  15.514  65.555  1.00  0.00     0.000 HD 
HETATM    7  C   UNL     1     -10.163  14.127  64.936  1.00  0.00    -0.341 C  
HETATM    8  C   UNL     2     -10.239  14.395  68.648  1.00  0.00    -0.245 C  
HETATM    9  C   UNL     1      -9.940  12.876  64.537  1.00  0.00    -0.160 C  
HETATM   10  N   UNL     2      -8.940  14.079  68.286  1.00  0.00    -0.186 N  
HETATM   11  O   UNL     2     -11.856  11.387  67.707  1.00  0.00    -0.595 OA 
HETATM   12  C   UNL     1     -11.081  11.951  64.419  1.00  0.00    -0.336 C  
HETATM   13  C   UNL     2      -8.613  12.817  67.796  1.00  0.00    -0.184 C  
HETATM   14  O   UNL     1     -10.905  10.778  64.108  1.00  0.00    -0.207 OA 
HETATM   15  N   UNL     1     -12.312  12.486  64.690  1.00  0.00    -0.471 N  
HETATM   16  H   UNL     1     -13.125  11.884  64.556  1.00  0.00     0.000 HD 
HETATM   17  O   UNL     2      -7.514  12.519  67.337  1.00  0.00    -0.142 OA 
HETATM   18  N   UNL     2      -9.637  11.897  67.793  1.00  0.00    -0.185 N  
HETATM   19  C   UNL     2     -10.965  12.177  67.997  1.00  0.00    -0.229 C  
HETATM   20  H   UNL     2      -9.387  10.923  67.623  1.00  0.00     0.000 HD 
ENDROOT
BRANCH  10  21
HETATM   21  C   UNL     2      -7.890  15.091  68.375  1.00  0.00    -0.125 C  
HETATM   22  C   UNL     2      -7.437  17.258  67.488  1.00  0.00    -0.186 C  
HETATM   23  C   UNL     2      -7.629  15.824  67.058  1.00  0.00    -0.257 C  
HETATM   24  C   UNL     2      -8.333  17.356  68.699  1.00  0.00    -0.264 C  
HETATM   25  O   UNL     2      -8.277  16.081  69.343  1.00  0.00    -0.235 OA 
ENDBRANCH  10  21
TORSDOF 1
ENDMDL
MODEL       14
REMARK 921   NORMALIZED FREE ENERGY PREDICTED BY IDOCK:   -5.71 KCAL/MOL
REMARK 922        TOTAL FREE ENERGY PREDICTED BY IDOCK:   -6.39 KCAL/MOL
REMARK 923 INTER-LIGAND FREE ENERGY PREDICTED BY IDOCK:   -6.19 KCAL/MOL
REMARK 924 INTRA-LIGAND FREE ENERGY PREDICTED BY IDOCK:   -0.20 KCAL/MOL
REMARK 927      BINDING AFFINITY PREDICTED BY RF-SCORE:    0.00 PKD
ROOT
HETATM    1  O   UNL     1     -11.366  16.548  64.435  1.00  0.00    -0.921 OA 
HETATM    2  F   UNL     2     -10.611  16.292  67.932  1.00  0.00    -0.276 F  
HETATM    3  C   UNL     1     -11.288  15.324  64.458  1.00  0.00    -0.300 C  
HETATM    4  C   UNL     2     -10.372  14.969  67.970  1.00  0.00    -0.236 C  
HETATM    5  N   UNL     1     -10.075  14.688  64.541  1.00  0.00    -0.387 N  
HETATM    6  H   UNL     1      -9.232  15.261  64.580  1.00  0.00     0.000 HD 
HETATM    7  C   UNL     1      -9.937  13.330  64.575  1.00  0.00    -0.088 C  
HETATM    8  C   UNL     2      -9.141  14.469  68.028  1.00  0.00    -0.185 C  
HETATM    9  C   UNL     1     -11.003  12.533  64.553  1.00  0.00    -0.359 C  
HETATM   10  N   UNL     2      -8.899  13.106  67.979  1.00  0.00    -0.184 N  
HETATM   11  O   UNL     2     -12.661  14.451  67.637  1.00  0.00     0.038 OA 
HETATM   12  C   UNL     1     -12.346  13.139  64.489  1.00  0.00    -0.385 C  
HETATM   13  C   UNL     2      -9.943  12.189  67.891  1.00  0.00    -0.200 C  
HETATM   14  O   UNL     1     -13.350  12.437  64.523  1.00  0.00    -0.800 OA 
HETATM   15  N   UNL     1     -12.378  14.506  64.407  1.00  0.00    -0.635 N  
HETATM   16  H   UNL     1     -13.292  14.947  64.298  1.00  0.00     0.000 HD 
HETATM   17  O   UNL     2      -9.790  10.984  67.712  1.00  0.00    -0.169 OA 
HETATM   18  N   UNL     2     -11.210  12.724  67.955  1.00  0.00    -0.257 N  
HETATM   19  C   UNL     2     -11.522  14.056  67.858  1.00  0.00    -0.316 C  
HETATM   20  H   UNL     2     -11.984  12.073  68.084  1.00  0.00     0.000 HD 
ENDROOT
BRANCH  10  21
HETATM   21  C   UNL     2      -7.525  12.607  67.978  1.00  0.00    -0.120 C  
HETATM   22  C   UNL     2      -5.415  13.224  68.901  1.00  0.00    -0.073 C  
HETATM   23  C   UNL     2      -6.469  13.713  67.938  1.00  0.00    -0.159 C  
HETATM   24  C   UNL     2      -6.229  12.450  69.909  1.00  0.00    -0.102 C  
HETATM   25  O   UNL     2      -7.302  11.849  69.180  1.00  0.00    -0.077 OA 
ENDBRANCH  10  21
TORSDOF 1
ENDMDL
MODEL       15
REMARK 921   NORMALIZED FREE ENERGY PREDICTED BY IDOCK:   -5.68 KCAL/MOL
REMARK 922        TOTAL FREE ENERGY PREDICTED BY IDOCK:   -6.35 KCAL/MOL
REMARK 923 INTER-LIGAND FREE ENERGY PREDICTED BY IDOCK:   -6.01 KCAL/MOL
REMARK 924 INTRA-LIGAND FREE ENERGY PREDICTED BY IDOCK:   -0.34 KCAL/MOL
REMARK 927      BINDING AFFINITY PREDICTED BY RF-SCORE:    0.00 PKD
ROOT
HETATM    1  O   UNL     1     -11.114  15.577  68.869  1.00  0.00    -0.248 OA 
HETATM    2  F   UNL     2     -12.492  12.403  67.925  1.00  0.00    -0.164 F  
HETATM    3  C   UNL     1     -10.655  15.574  67.732  1.00  0.00    -0.281 C  
HETATM    4  C   UNL     2     -11.889  12.292  66.728  1.00  0.00    -0.277 C  
HETATM    5  N   UNL     1      -9.588  14.779  67.395  1.00  0.00    -0.208 N  
HETATM    6  H   UNL     1      -9.179  14.189  68.119  1.00  0.00     0.000 HD 
HETATM    7  C   UNL     1      -9.046  14.736  66.143  1.00  0.00    -0.126 C  
HETATM    8  C   UNL     2     -10.840  11.498  66.529  1.00  0.00    -0.288 C  
HETATM    9  C   UNL     1      -9.554  15.466  65.152  1.00  0.00     0.149 C  
HETATM   10  N   UNL     2     -10.171  11.455  65.317  1.00  0.00    -0.257 N  
HETATM   11  O   UNL     2     -13.218  14.018  65.793  1.00  0.00    -0.528 OA 
HETATM   12  C   UNL     1     -10.717  16.329  65.425  1.00  0.00    -0.327 C  
HETATM   13  C   UNL     2     -10.584  12.228  64.235  1.00  0.00    -0.354 C  
HETATM   14  O   UNL     1     -11.244  16.971  64.524  1.00  0.00    -1.091 OA 
HETATM   15  N   UNL     1     -11.157  16.342  66.722  1.00  0.00     0.025 N  
HETATM   16  H   UNL     1     -11.921  16.978  66.951  1.00  0.00     0.000 HD 
HETATM   17  O   UNL     2      -9.959  12.333  63.183  1.00  0.00    -0.389 OA 
HETATM   18  N   UNL     2     -11.742  12.948  64.428  1.00  0.00    -0.349 N  
HETATM   19  C   UNL     2     -12.368  13.150  65.631  1.00  0.00    -0.461 C  
HETATM   20  H   UNL     2     -12.171  13.369  63.603  1.00  0.00     0.000 HD 
ENDROOT
BRANCH  10  21
HETATM   21  C   UNL     2      -8.982  10.617  65.168  1.00  0.00    -0.198 C  
HETATM   22  C   UNL     2      -7.503   9.376  66.566  1.00  0.00    -0.093 C  
HETATM   23  C   UNL     2      -7.964  10.787  66.297  1.00  0.00    -0.160 C  
HETATM   24  C   UNL     2      -8.733   8.564  66.241  1.00  0.00    -0.142 C  
HETATM   25  O   UNL     2      -9.383   9.236  65.160  1.00  0.00    -0.240 OA 
ENDBRANCH  10  21
TORSDOF 1
ENDMDL
MODEL       16
REMARK 921   NORMALIZED FREE ENERGY PREDICTED BY IDOCK:   -5.64 KCAL/MOL
REMARK 922        TOTAL FREE ENERGY PREDICTED BY IDOCK:   -6.31 KCAL/MOL
REMARK 923 INTER-LIGAND FREE ENERGY PREDICTED BY IDOCK:   -5.97 KCAL/MOL
REMARK 924 INTRA-LIGAND FREE ENERGY PREDICTED BY IDOCK:   -0.35 KCAL/MOL
REMARK 927      BINDING AFFINITY PREDICTED BY RF-SCORE:    0.00 PKD
ROOT
HETATM    1  O   UNL     1     -13.641   7.711  71.710  1.00  0.00    -0.346 OA 
HETATM    2  F   UNL     2     -11.334  10.408  71.193  1.00  0.00    -0.398 F  
HETATM    3  C   UNL     1     -12.690   7.005  71.393  1.00  0.00    -0.374 C  
HETATM    4  C   UNL     2     -10.315   9.684  70.701  1.00  0.00    -0.297 C  
HETATM    5  N   UNL     1     -12.276   6.908  70.089  1.00  0.00    -0.623 N  
HETATM    6  H   UNL     1     -12.784   7.439  69.381  1.00  0.00     0.000 HD 
HETATM    7  C   UNL     1     -11.221   6.141  69.687  1.00  0.00    -0.418 C  
HETATM    8  C   UNL     2     -10.023   9.653  69.403  1.00  0.00    -0.197 C  
HETATM    9  C   UNL     1     -10.506   5.446  70.570  1.00  0.00    -0.335 C  
HETATM   10  N   UNL     2      -9.026   8.837  68.893  1.00  0.00    -0.134 N  
HETATM   11  O   UNL     2      -9.879   8.691  72.809  1.00  0.00    -0.213 OA 
HETATM   12  C   UNL     1     -10.871   5.515  71.997  1.00  0.00    -0.226 C  
HETATM   13  C   UNL     2      -8.262   8.023  69.725  1.00  0.00    -0.120 C  
HETATM   14  O   UNL     1     -10.200   4.933  72.842  1.00  0.00    -0.160 OA 
HETATM   15  N   UNL     1     -11.974   6.270  72.293  1.00  0.00    -0.468 N  
HETATM   16  H   UNL     1     -12.285   6.285  73.264  1.00  0.00     0.000 HD 
HETATM   17  O   UNL     2      -7.460   7.185  69.323  1.00  0.00    -0.089 OA 
HETATM   18  N   UNL     2      -8.501   8.162  71.074  1.00  0.00    -0.125 N  
HETATM   19  C   UNL     2      -9.557   8.834  71.635  1.00  0.00    -0.293 C  
HETATM   20  H   UNL     2      -7.834   7.727  71.712  1.00  0.00     0.000 HD 
ENDROOT
BRANCH  10  21
HETATM   21  C   UNL     2      -8.788   8.787  67.451  1.00  0.00    -0.133 C  
HETATM   22  C   UNL     2      -9.717   9.731  65.469  1.00  0.00    -0.382 C  
HETATM   23  C   UNL     2     -10.069   8.815  66.615  1.00  0.00    -0.358 C  
HETATM   24  C   UNL     2      -8.741  10.690  66.106  1.00  0.00    -0.170 C  
HETATM   25  O   UNL     2      -8.005   9.931  67.069  1.00  0.00    -0.108 OA 
ENDBRANCH  10  21
TORSDOF 1
ENDMDL
MODEL       17
REMARK 921   NORMALIZED FREE ENERGY PREDICTED BY IDOCK:   -5.63 KCAL/MOL
REMARK 922        TOTAL FREE ENERGY PREDICTED BY IDOCK:   -6.30 KCAL/MOL
REMARK 923 INTER-LIGAND FREE ENERGY PREDICTED BY IDOCK:   -5.98 KCAL/MOL
REMARK 924 INTRA-LIGAND FREE ENERGY PREDICTED BY IDOCK:   -0.33 KCAL/MOL
REMARK 927      BINDING AFFINITY PREDICTED BY RF-SCORE:    0.00 PKD
ROOT
HETATM    1  O   UNL     1      -8.090  16.564  69.284  1.00  0.00    -0.216 OA 
HETATM    2  F   UNL     2     -10.810  14.550  70.471  1.00  0.00    -0.147 F  
HETATM    3  C   UNL     1      -8.575  16.344  68.179  1.00  0.00    -0.193 C  
HETATM    4  C   UNL     2     -11.288  14.166  69.274  1.00  0.00    -0.281 C  
HETATM    5  N   UNL     1      -8.441  15.122  67.570  1.00  0.00    -0.160 N  
HETATM    6  H   UNL     1      -7.919  14.394  68.059  1.00  0.00     0.000 HD 
HETATM    7  C   UNL     1      -8.967  14.828  66.345  1.00  0.00    -0.188 C  
HETATM    8  C   UNL     2     -11.069  12.951  68.776  1.00  0.00    -0.263 C  
HETATM    9  C   UNL     1      -9.679  15.730  65.672  1.00  0.00    -0.332 C  
HETATM   10  N   UNL     2     -11.490  12.591  67.507  1.00  0.00    -0.315 N  
HETATM   11  O   UNL     2     -12.093  16.342  68.791  1.00  0.00    -0.098 OA 
HETATM   12  C   UNL     1      -9.891  17.061  66.269  1.00  0.00    -0.294 C  
HETATM   13  C   UNL     2     -12.187  13.483  66.696  1.00  0.00    -0.358 C  
HETATM   14  O   UNL     1     -10.587  17.895  65.702  1.00  0.00    -0.587 OA 
HETATM   15  N   UNL     1      -9.281  17.276  67.475  1.00  0.00    -0.226 N  
HETATM   16  H   UNL     1      -9.360  18.209  67.881  1.00  0.00     0.000 HD 
HETATM   17  O   UNL     2     -12.469  13.271  65.520  1.00  0.00    -0.458 OA 
HETATM   18  N   UNL     2     -12.505  14.690  67.278  1.00  0.00    -0.431 N  
HETATM   19  C   UNL     2     -12.003  15.164  68.463  1.00  0.00    -0.214 C  
HETATM   20  H   UNL     2     -13.173  15.283  66.784  1.00  0.00     0.000 HD 
ENDROOT
BRANCH  10  21
HETATM   21  C   UNL     2     -11.168  11.267  66.978  1.00  0.00    -0.255 C  
HETATM   22  C   UNL     2      -9.454   9.628  67.228  1.00  0.00    -0.175 C  
HETATM   23  C   UNL     2      -9.672  11.043  66.750  1.00  0.00    -0.222 C  
HETATM   24  C   UNL     2     -10.482   9.494  68.325  1.00  0.00    -0.223 C  
HETATM   25  O   UNL     2     -11.610  10.270  67.915  1.00  0.00    -0.338 OA 
ENDBRANCH  10  21
TORSDOF 1
ENDMDL
MODEL       18
REMARK 921   NORMALIZED FREE ENERGY PREDICTED BY IDOCK:   -5.61 KCAL/MOL
REMARK 922        TOTAL FREE ENERGY PREDICTED BY IDOCK:   -6.27 KCAL/MOL
REMARK 923 INTER-LIGAND FREE ENERGY PREDICTED BY IDOCK:   -6.74 KCAL/MOL
REMARK 924 INTRA-LIGAND FREE ENERGY PREDICTED BY IDOCK:    0.46 KCAL/MOL
REMARK 927      BINDING AFFINITY PREDICTED BY RF-SCORE:    0.00 PKD
ROOT
HETATM    1  O   UNL     1      -9.681  11.790  63.875  1.00  0.00    -0.254 OA 
HETATM    2  F   UNL     2      -8.461  11.387  67.224  1.00  0.00    -0.132 F  
HETATM    3  C   UNL     1     -10.447  12.601  64.387  1.00  0.00    -0.373 C  
HETATM    4  C   UNL     2      -9.375  12.153  67.844  1.00  0.00    -0.192 C  
HETATM    5  N   UNL     1     -11.520  12.193  65.138  1.00  0.00    -0.332 N  
HETATM    6  H   UNL     1     -11.671  11.191  65.260  1.00  0.00     0.000 HD 
HETATM    7  C   UNL     1     -12.396  13.056  65.732  1.00  0.00    -0.416 C  
HETATM    8  C   UNL     2     -10.392  11.636  68.529  1.00  0.00    -0.212 C  
HETATM    9  C   UNL     1     -12.234  14.373  65.629  1.00  0.00    -0.352 C  
HETATM   10  N   UNL     2     -11.377  12.431  69.092  1.00  0.00    -0.264 N  
HETATM   11  O   UNL     2      -8.466  14.142  66.928  1.00  0.00    -0.185 OA 
HETATM   12  C   UNL     1     -11.090  14.894  64.859  1.00  0.00    -0.414 C  
HETATM   13  C   UNL     2     -11.335  13.819  68.987  1.00  0.00    -0.289 C  
HETATM   14  O   UNL     1     -10.880  16.099  64.790  1.00  0.00    -0.634 OA 
HETATM   15  N   UNL     1     -10.299  13.951  64.259  1.00  0.00    -0.572 N  
HETATM   16  H   UNL     1      -9.536  14.286  63.669  1.00  0.00     0.000 HD 
HETATM   17  O   UNL     2     -12.241  14.566  69.347  1.00  0.00    -0.306 OA 
HETATM   18  N   UNL     2     -10.212  14.334  68.379  1.00  0.00    -0.239 N  
HETATM   19  C   UNL     2      -9.279  13.613  67.679  1.00  0.00    -0.213 C  
HETATM   20  H   UNL     2     -10.062  15.340  68.456  1.00  0.00     0.000 HD 
ENDROOT
BRANCH  10  21
HETATM   21  C   UNL     2     -12.511  11.813  69.778  1.00  0.00     0.012 C  
HETATM   22  C   UNL     2     -12.927  10.643  71.813  1.00  0.00    -0.577 C  
HETATM   23  C   UNL     2     -12.152  10.526  70.523  1.00  0.00    -0.437 C  
HETATM   24  C   UNL     2     -12.953  12.134  72.043  1.00  0.00    -0.272 C  
HETATM   25  O   UNL     2     -13.029  12.738  70.750  1.00  0.00    -0.086 OA 
ENDBRANCH  10  21
TORSDOF 1
ENDMDL
MODEL       19
REMARK 921   NORMALIZED FREE ENERGY PREDICTED BY IDOCK:   -5.60 KCAL/MOL
REMARK 922        TOTAL FREE ENERGY PREDICTED BY IDOCK:   -6.26 KCAL/MOL
REMARK 923 INTER-LIGAND FREE ENERGY PREDICTED BY IDOCK:   -5.93 KCAL/MOL
REMARK 924 INTRA-LIGAND FREE ENERGY PREDICTED BY IDOCK:   -0.33 KCAL/MOL
REMARK 927      BINDING AFFINITY PREDICTED BY RF-SCORE:    0.00 PKD
ROOT
HETATM    1  O   UNL     1     -13.113  13.762  66.183  1.00  0.00    -0.186 OA 
HETATM    2  F   UNL     2     -12.739  16.132  68.850  1.00  0.00     0.098 F  
HETATM    3  C   UNL     1     -11.913  13.573  66.353  1.00  0.00    -0.414 C  
HETATM    4  C   UNL     2     -11.402  16.062  68.969  1.00  0.00    -0.363 C  
HETATM    5  N   UNL     1     -10.980  14.484  65.927  1.00  0.00    -0.313 N  
HETATM    6  H   UNL     1     -11.309  15.328  65.457  1.00  0.00     0.000 HD 
HETATM    7  C   UNL     1      -9.635  14.321  66.097  1.00  0.00    -0.275 C  
HETATM    8  C   UNL     2     -10.594  17.005  68.491  1.00  0.00    -0.370 C  
HETATM    9  C   UNL     1      -9.149  13.252  66.724  1.00  0.00    -0.216 C  
HETATM   10  N   UNL     2      -9.215  16.884  68.540  1.00  0.00    -0.252 N  
HETATM   11  O   UNL     2     -11.503  13.879  69.887  1.00  0.00    -0.248 OA 
HETATM   12  C   UNL     1     -10.088  12.237  67.235  1.00  0.00    -0.204 C  
HETATM   13  C   UNL     2      -8.606  15.774  69.118  1.00  0.00    -0.256 C  
HETATM   14  O   UNL     1      -9.679  11.268  67.865  1.00  0.00    -0.170 OA 
HETATM   15  N   UNL     1     -11.412  12.464  66.970  1.00  0.00    -0.337 N  
HETATM   16  H   UNL     1     -12.078  11.746  67.259  1.00  0.00     0.000 HD 
HETATM   17  O   UNL     2      -7.400  15.547  69.075  1.00  0.00    -0.135 OA 
HETATM   18  N   UNL     2      -9.460  14.871  69.713  1.00  0.00    -0.442 N  
HETATM   19  C   UNL     2     -10.825  14.852  69.578  1.00  0.00    -0.259 C  
HETATM   20  H   UNL     2      -9.040  14.154  70.304  1.00  0.00     0.000 HD 
ENDROOT
BRANCH  10  21
HETATM   21  C   UNL     2      -8.369  17.916  67.941  1.00  0.00    -0.247 C  
HETATM   22  C   UNL     2      -8.545  19.593  66.255  1.00  0.00    -0.393 C  
HETATM   23  C   UNL     2      -8.590  18.095  66.438  1.00  0.00    -0.251 C  
HETATM   24  C   UNL     2      -9.099  20.097  67.565  1.00  0.00    -0.356 C  
HETATM   25  O   UNL     2      -8.657  19.177  68.567  1.00  0.00    -0.341 OA 
ENDBRANCH  10  21
TORSDOF 1
ENDMDL
MODEL       20
REMARK 921   NORMALIZED FREE ENERGY PREDICTED BY IDOCK:   -5.54 KCAL/MOL
REMARK 922        TOTAL FREE ENERGY PREDICTED BY IDOCK:   -6.21 KCAL/MOL
REMARK 923 INTER-LIGAND FREE ENERGY PREDICTED BY IDOCK:   -6.68 KCAL/MOL
REMARK 924 INTRA-LIGAND FREE ENERGY PREDICTED BY IDOCK:    0.47 KCAL/MOL
REMARK 927      BINDING AFFINITY PREDICTED BY RF-SCORE:    0.00 PKD
ROOT
HETATM    1  O   UNL     1     -12.255  12.083  67.579  1.00  0.00    -0.490 OA 
HETATM    2  F   UNL     2      -9.487  13.442  69.413  1.00  0.00     0.287 F  
HETATM    3  C   UNL     1     -11.880  12.846  66.695  1.00  0.00    -0.395 C  
HETATM    4  C   UNL     2      -9.134  14.392  68.530  1.00  0.00    -0.193 C  
HETATM    5  N   UNL     1     -12.102  14.197  66.777  1.00  0.00    -0.446 N  
HETATM    6  H   UNL     1     -12.594  14.557  67.595  1.00  0.00     0.000 HD 
HETATM    7  C   UNL     1     -11.700  15.087  65.822  1.00  0.00    -0.104 C  
HETATM    8  C   UNL     2      -9.428  15.677  68.711  1.00  0.00    -0.214 C  
HETATM    9  C   UNL     1     -11.032  14.678  64.745  1.00  0.00    -0.399 C  
HETATM   10  N   UNL     2      -9.137  16.638  67.756  1.00  0.00    -0.211 N  
HETATM   11  O   UNL     2      -8.321  12.788  66.985  1.00  0.00    -0.178 OA 
HETATM   12  C   UNL     1     -10.731  13.243  64.594  1.00  0.00    -0.400 C  
HETATM   13  C   UNL     2      -8.497  16.305  66.566  1.00  0.00    -0.303 C  
HETATM   14  O   UNL     1     -10.070  12.841  63.643  1.00  0.00    -0.378 OA 
HETATM   15  N   UNL     1     -11.220  12.426  65.577  1.00  0.00    -0.313 N  
HETATM   16  H   UNL     1     -11.079  11.421  65.465  1.00  0.00     0.000 HD 
HETATM   17  O   UNL     2      -8.331  17.082  65.630  1.00  0.00    -0.417 OA 
HETATM   18  N   UNL     2      -8.095  14.992  66.456  1.00  0.00    -0.297 N  
HETATM   19  C   UNL     2      -8.472  13.967  67.285  1.00  0.00    -0.207 C  
HETATM   20  H   UNL     2      -7.461  14.763  65.689  1.00  0.00     0.000 HD 
ENDROOT
BRANCH  10  21
HETATM   21  C   UNL     2      -9.541  18.027  67.971  1.00  0.00    -0.295 C  
HETATM   22  C   UNL     2      -9.309  20.130  66.871  1.00  0.00    -0.522 C  
HETATM   23  C   UNL     2      -8.490  19.048  67.532  1.00  0.00    -0.307 C  
HETATM   24  C   UNL     2     -10.467  19.353  66.293  1.00  0.00    -0.493 C  
HETATM   25  O   UNL     2     -10.733  18.289  67.210  1.00  0.00    -0.404 OA 
ENDBRANCH  10  21
TORSDOF 1
ENDMDL
MODEL       21
REMARK 921   NORMALIZED FREE ENERGY PREDICTED BY IDOCK:   -5.52 KCAL/MOL
REMARK 922        TOTAL FREE ENERGY PREDICTED BY IDOCK:   -6.18 KCAL/MOL
REMARK 923 INTER-LIGAND FREE ENERGY PREDICTED BY IDOCK:   -5.87 KCAL/MOL
REMARK 924 INTRA-LIGAND FREE ENERGY PREDICTED BY IDOCK:   -0.32 KCAL/MOL
REMARK 927      BINDING AFFINITY PREDICTED BY RF-SCORE:    0.00 PKD
ROOT
HETATM    1  O   UNL     1      -7.633  16.353  67.024  1.00  0.00    -0.161 OA 
HETATM    2  F   UNL     2     -11.113  17.061  67.526  1.00  0.00    -0.291 F  
HETATM    3  C   UNL     1      -7.932  15.234  67.429  1.00  0.00    -0.186 C  
HETATM    4  C   UNL     2     -11.453  15.899  68.110  1.00  0.00    -0.281 C  
HETATM    5  N   UNL     1      -8.183  14.999  68.757  1.00  0.00    -0.159 N  
HETATM    6  H   UNL     1      -8.110  15.782  69.408  1.00  0.00     0.000 HD 
HETATM    7  C   UNL     1      -8.525  13.775  69.255  1.00  0.00     0.549 C  
HETATM    8  C   UNL     2     -11.649  15.791  69.422  1.00  0.00    -0.365 C  
HETATM    9  C   UNL     1      -8.659  12.723  68.450  1.00  0.00    -0.123 C  
HETATM   10  N   UNL     2     -11.913  14.573  70.027  1.00  0.00    -0.310 N  
HETATM   11  O   UNL     2     -11.196  14.697  66.083  1.00  0.00    -0.333 OA 
HETATM   12  C   UNL     1      -8.432  12.897  67.004  1.00  0.00    -0.142 C  
HETATM   13  C   UNL     2     -12.011  13.402  69.281  1.00  0.00    -0.317 C  
HETATM   14  O   UNL     1      -8.602  11.963  66.228  1.00  0.00    -0.133 OA 
HETATM   15  N   UNL     1      -8.044  14.149  66.609  1.00  0.00    -0.271 N  
HETATM   16  H   UNL     1      -7.820  14.281  65.622  1.00  0.00     0.000 HD 
HETATM   17  O   UNL     2     -12.111  12.279  69.770  1.00  0.00    -0.287 OA 
HETATM   18  N   UNL     2     -11.926  13.558  67.916  1.00  0.00    -0.357 N  
HETATM   19  C   UNL     2     -11.525  14.696  67.264  1.00  0.00    -0.372 C  
HETATM   20  H   UNL     2     -12.182  12.756  67.339  1.00  0.00     0.000 HD 
ENDROOT
BRANCH  10  21
HETATM   21  C   UNL     2     -12.054  14.494  71.480  1.00  0.00    -0.331 C  
HETATM   22  C   UNL     2     -12.504  15.968  73.299  1.00  0.00    -0.645 C  
HETATM   23  C   UNL     2     -11.483  15.706  72.220  1.00  0.00    -0.459 C  
HETATM   24  C   UNL     2     -13.790  15.522  72.646  1.00  0.00    -0.564 C  
HETATM   25  O   UNL     2     -13.451  14.413  71.810  1.00  0.00    -0.329 OA 
ENDBRANCH  10  21
TORSDOF 1
ENDMDL
MODEL       22
REMARK 921   NORMALIZED FREE ENERGY PREDICTED BY IDOCK:   -5.51 KCAL/MOL
REMARK 922        TOTAL FREE ENERGY PREDICTED BY IDOCK:   -6.17 KCAL/MOL
REMARK 923 INTER-LIGAND FREE ENERGY PREDICTED BY IDOCK:   -5.82 KCAL/MOL
REMARK 924 INTRA-LIGAND FREE ENERGY PREDICTED BY IDOCK:   -0.35 KCAL/MOL
REMARK 927      BINDING AFFINITY PREDICTED BY RF-SCORE:    0.00 PKD
ROOT
HETATM    1  O   UNL     1      -8.779  13.933  68.589  1.00  0.00    -0.158 OA 
HETATM    2  F   UNL     2     -11.664  12.327  69.990  1.00  0.00    -0.359 F  
HETATM    3  C   UNL     1      -8.552  12.827  68.110  1.00  0.00    -0.185 C  
HETATM    4  C   UNL     2     -11.376  11.071  69.607  1.00  0.00    -0.292 C  
HETATM    5  N   UNL     1      -8.079  11.797  68.883  1.00  0.00    -0.348 N  
HETATM    6  H   UNL     1      -7.914  11.975  69.874  1.00  0.00     0.000 HD 
HETATM    7  C   UNL     1      -7.817  10.548  68.398  1.00  0.00    -0.110 C  
HETATM    8  C   UNL     2     -10.897  10.161  70.452  1.00  0.00    -0.301 C  
HETATM    9  C   UNL     1      -8.038  10.252  67.118  1.00  0.00    -0.121 C  
HETATM   10  N   UNL     2     -10.522   8.895  70.032  1.00  0.00    -0.206 N  
HETATM   11  O   UNL     2     -11.801  11.567  67.329  1.00  0.00    -0.609 OA 
HETATM   12  C   UNL     1      -8.570  11.296  66.225  1.00  0.00    -0.172 C  
HETATM   13  C   UNL     2     -10.652   8.506  68.701  1.00  0.00    -0.118 C  
HETATM   14  O   UNL     1      -8.837  11.042  65.056  1.00  0.00    -0.173 OA 
HETATM   15  N   UNL     1      -8.751  12.529  66.793  1.00  0.00    -0.325 N  
HETATM   16  H   UNL     1      -9.060  13.286  66.182  1.00  0.00     0.000 HD 
HETATM   17  O   UNL     2     -10.218   7.452  68.245  1.00  0.00    -0.172 OA 
HETATM   18  N   UNL     2     -11.262   9.421  67.872  1.00  0.00    -0.467 N  
HETATM   19  C   UNL     2     -11.524  10.732  68.182  1.00  0.00    -0.271 C  
HETATM   20  H   UNL     2     -11.542   9.096  66.947  1.00  0.00     0.000 HD 
ENDROOT
BRANCH  10  21
HETATM   21  C   UNL     2      -9.937   7.952  70.984  1.00  0.00    -0.181 C  
HETATM   22  C   UNL     2      -9.305   7.919  73.283  1.00  0.00    -0.351 C  
HETATM   23  C   UNL     2      -8.972   8.602  71.979  1.00  0.00    -0.286 C  
HETATM   24  C   UNL     2     -10.779   7.633  73.134  1.00  0.00    -0.387 C  
HETATM   25  O   UNL     2     -10.993   7.347  71.749  1.00  0.00    -0.230 OA 
ENDBRANCH  10  21
TORSDOF 1
ENDMDL
MODEL       23
REMARK 921   NORMALIZED FREE ENERGY PREDICTED BY IDOCK:   -5.50 KCAL/MOL
REMARK 922        TOTAL FREE ENERGY PREDICTED BY IDOCK:   -6.16 KCAL/MOL
REMARK 923 INTER-LIGAND FREE ENERGY PREDICTED BY IDOCK:   -5.84 KCAL/MOL
REMARK 924 INTRA-LIGAND FREE ENERGY PREDICTED BY IDOCK:   -0.32 KCAL/MOL
REMARK 927      BINDING AFFINITY PREDICTED BY RF-SCORE:    0.00 PKD
ROOT
HETATM    1  O   UNL     1     -13.243  12.192  63.541  1.00  0.00    -0.744 OA 
HETATM    2  F   UNL     2     -10.491  10.121  64.543  1.00  0.00    -0.363 F  
HETATM    3  C   UNL     1     -12.751  13.003  64.319  1.00  0.00    -0.162 C  
HETATM    4  C   UNL     2     -10.005  10.919  65.510  1.00  0.00    -0.260 C  
HETATM    5  N   UNL     1     -12.864  12.848  65.677  1.00  0.00    -0.038 N  
HETATM    6  H   UNL     1     -13.375  12.038  66.030  1.00  0.00     0.000 HD 
HETATM    7  C   UNL     1     -12.330  13.720  66.583  1.00  0.00    -0.357 C  
HETATM    8  C   UNL     2     -10.202  10.674  66.803  1.00  0.00    -0.233 C  
HETATM    9  C   UNL     1     -11.633  14.780  66.182  1.00  0.00    -0.292 C  
HETATM   10  N   UNL     2      -9.773  11.547  67.789  1.00  0.00    -0.171 N  
HETATM   11  O   UNL     2      -9.235  12.514  63.935  1.00  0.00     0.315 OA 
HETATM   12  C   UNL     1     -11.444  15.006  64.737  1.00  0.00    -0.403 C  
HETATM   13  C   UNL     2      -9.089  12.718  67.471  1.00  0.00    -0.193 C  
HETATM   14  O   UNL     1     -10.760  15.940  64.335  1.00  0.00    -0.412 OA 
HETATM   15  N   UNL     1     -12.060  14.106  63.909  1.00  0.00    -0.813 N  
HETATM   16  H   UNL     1     -11.997  14.274  62.904  1.00  0.00     0.000 HD 
HETATM   17  O   UNL     2      -8.802  13.591  68.285  1.00  0.00    -0.180 OA 
HETATM   18  N   UNL     2      -8.792  12.888  66.138  1.00  0.00    -0.409 N  
HETATM   19  C   UNL     2      -9.305  12.148  65.102  1.00  0.00     0.176 C  
HETATM   20  H   UNL     2      -8.134  13.630  65.899  1.00  0.00     0.000 HD 
ENDROOT
BRANCH  10  21
HETATM   21  C   UNL     2     -10.072  11.268  69.193  1.00  0.00    -0.069 C  
HETATM   22  C   UNL     2     -11.851  10.328  70.472  1.00  0.00    -0.419 C  
HETATM   23  C   UNL     2     -11.539  11.493  69.565  1.00  0.00    -0.400 C  
HETATM   24  C   UNL     2     -10.959   9.241  69.923  1.00  0.00    -0.213 C  
HETATM   25  O   UNL     2      -9.769   9.890  69.469  1.00  0.00    -0.195 OA 
ENDBRANCH  10  21
TORSDOF 1
ENDMDL
MODEL       24
REMARK 921   NORMALIZED FREE ENERGY PREDICTED BY IDOCK:   -5.41 KCAL/MOL
REMARK 922        TOTAL FREE ENERGY PREDICTED BY IDOCK:   -6.06 KCAL/MOL
REMARK 923 INTER-LIGAND FREE ENERGY PREDICTED BY IDOCK:   -5.74 KCAL/MOL
REMARK 924 INTRA-LIGAND FREE ENERGY PREDICTED BY IDOCK:   -0.32 KCAL/MOL
REMARK 927      BINDING AFFINITY PREDICTED BY RF-SCORE:    0.00 PKD
ROOT
HETATM    1  O   UNL     1      -7.443   9.900  69.500  1.00  0.00    -0.085 OA 
HETATM    2  F   UNL     2      -7.243  12.632  67.185  1.00  0.00    -0.144 F  
HETATM    3  C   UNL     1      -8.604   9.822  69.114  1.00  0.00    -0.153 C  
HETATM    4  C   UNL     2      -8.542  12.676  66.843  1.00  0.00    -0.151 C  
HETATM    5  N   UNL     1      -9.551  10.732  69.513  1.00  0.00    -0.429 N  
HETATM    6  H   UNL     1      -9.266  11.478  70.147  1.00  0.00     0.000 HD 
HETATM    7  C   UNL     1     -10.854  10.691  69.106  1.00  0.00    -0.237 C  
HETATM    8  C   UNL     2      -9.373  13.601  67.318  1.00  0.00    -0.233 C  
HETATM    9  C   UNL     1     -11.277   9.755  68.259  1.00  0.00    -0.074 C  
HETATM   10  N   UNL     2     -10.728  13.588  67.029  1.00  0.00    -0.275 N  
HETATM   11  O   UNL     2      -8.392  10.637  65.643  1.00  0.00    -0.161 OA 
HETATM   12  C   UNL     1     -10.315   8.755  67.762  1.00  0.00    -0.237 C  
HETATM   13  C   UNL     2     -11.282  12.613  66.204  1.00  0.00    -0.309 C  
HETATM   14  O   UNL     1     -10.658   7.914  66.939  1.00  0.00    -0.341 OA 
HETATM   15  N   UNL     1      -9.046   8.848  68.267  1.00  0.00    -0.140 N  
HETATM   16  H   UNL     1      -8.376   8.130  67.988  1.00  0.00     0.000 HD 
HETATM   17  O   UNL     2     -12.488  12.470  66.018  1.00  0.00    -0.565 OA 
HETATM   18  N   UNL     2     -10.385  11.741  65.629  1.00  0.00    -0.243 N  
HETATM   19  C   UNL     2      -9.065  11.605  65.978  1.00  0.00    -0.182 C  
HETATM   20  H   UNL     2     -10.732  11.144  64.879  1.00  0.00     0.000 HD 
ENDROOT
BRANCH  10  21
HETATM   21  C   UNL     2     -11.613  14.586  67.629  1.00  0.00    -0.378 C  
HETATM   22  C   UNL     2     -11.876  15.687  69.727  1.00  0.00    -0.376 C  
HETATM   23  C   UNL     2     -11.936  14.316  69.100  1.00  0.00    -0.372 C  
HETATM   24  C   UNL     2     -10.830  16.382  68.890  1.00  0.00    -0.334 C  
HETATM   25  O   UNL     2     -10.976  15.873  67.562  1.00  0.00    -0.323 OA 
ENDBRANCH  10  21
TORSDOF 1
ENDMDL
MODEL       25
REMARK 921   NORMALIZED FREE ENERGY PREDICTED BY IDOCK:   -5.36 KCAL/MOL
REMARK 922        TOTAL FREE ENERGY PREDICTED BY IDOCK:   -6.02 KCAL/MOL
REMARK 923 INTER-LIGAND FREE ENERGY PREDICTED BY IDOCK:   -5.69 KCAL/MOL
REMARK 924 INTRA-LIGAND FREE ENERGY PREDICTED BY IDOCK:   -0.33 KCAL/MOL
REMARK 927      BINDING AFFINITY PREDICTED BY RF-SCORE:    0.00 PKD
ROOT
HETATM    1  O   UNL     1      -6.169  10.093  65.750  1.00  0.00    -0.083 OA 
HETATM    2  F   UNL     2      -9.417   9.668  64.290  1.00  0.00    -0.308 F  
HETATM    3  C   UNL     1      -6.800  10.447  66.740  1.00  0.00    -0.091 C  
HETATM    4  C   UNL     2     -10.139  10.186  65.298  1.00  0.00    -0.274 C  
HETATM    5  N   UNL     1      -7.408  11.675  66.797  1.00  0.00    -0.280 N  
HETATM    6  H   UNL     1      -7.321  12.295  65.992  1.00  0.00     0.000 HD 
HETATM    7  C   UNL     1      -8.126  12.112  67.874  1.00  0.00    -0.153 C  
HETATM    8  C   UNL     2     -10.664  11.408  65.245  1.00  0.00    -0.265 C  
HETATM    9  C   UNL     1      -8.295  11.336  68.943  1.00  0.00    -0.074 C  
HETATM   10  N   UNL     2     -11.332  11.967  66.321  1.00  0.00    -0.347 N  
HETATM   11  O   UNL     2      -9.679   8.334  66.705  1.00  0.00    -0.210 OA 
HETATM   12  C   UNL     1      -7.693   9.991  68.951  1.00  0.00    -0.089 C  
HETATM   13  C   UNL     2     -11.508  11.263  67.509  1.00  0.00    -0.246 C  
HETATM   14  O   UNL     1      -7.876   9.230  69.895  1.00  0.00    -0.084 OA 
HETATM   15  N   UNL     1      -6.951   9.664  67.848  1.00  0.00    -0.078 N  
HETATM   16  H   UNL     1      -6.472   8.763  67.855  1.00  0.00     0.000 HD 
HETATM   17  O   UNL     2     -11.972  11.748  68.537  1.00  0.00    -0.406 OA 
HETATM   18  N   UNL     2     -11.064   9.960  67.498  1.00  0.00    -0.401 N  
HETATM   19  C   UNL     2     -10.273   9.392  66.531  1.00  0.00    -0.238 C  
HETATM   20  H   UNL     2     -11.347   9.365  68.277  1.00  0.00     0.000 HD 
ENDROOT
BRANCH  10  21
HETATM   21  C   UNL     2     -11.832  13.339  66.238  1.00  0.00    -0.395 C  
HETATM   22  C   UNL     2     -11.311  15.347  65.063  1.00  0.00    -0.334 C  
HETATM   23  C   UNL     2     -10.730  14.386  66.071  1.00  0.00    -0.302 C  
HETATM   24  C   UNL     2     -12.175  14.445  64.216  1.00  0.00    -0.423 C  
HETATM   25  O   UNL     2     -12.701  13.450  65.098  1.00  0.00    -0.605 OA 
ENDBRANCH  10  21
TORSDOF 1
ENDMDL
MODEL       26
REMARK 921   NORMALIZED FREE ENERGY PREDICTED BY IDOCK:   -5.29 KCAL/MOL
REMARK 922        TOTAL FREE ENERGY PREDICTED BY IDOCK:   -5.94 KCAL/MOL
REMARK 923 INTER-LIGAND FREE ENERGY PREDICTED BY IDOCK:   -5.62 KCAL/MOL
REMARK 924 INTRA-LIGAND FREE ENERGY PREDICTED BY IDOCK:   -0.32 KCAL/MOL
REMARK 927      BINDING AFFINITY PREDICTED BY RF-SCORE:    0.00 PKD
ROOT
HETATM    1  O   UNL     1     -10.716  16.315  70.126  1.00  0.00    -0.308 OA 
HETATM    2  F   UNL     2     -12.532  13.306  69.410  1.00  0.00    -0.282 F  
HETATM    3  C   UNL     1      -9.982  15.937  69.219  1.00  0.00    -0.254 C  
HETATM    4  C   UNL     2     -11.676  12.785  68.515  1.00  0.00    -0.333 C  
HETATM    5  N   UNL     1      -9.097  14.904  69.399  1.00  0.00    -0.415 N  
HETATM    6  H   UNL     1      -9.060  14.456  70.315  1.00  0.00     0.000 HD 
HETATM    7  C   UNL     1      -8.264  14.445  68.420  1.00  0.00    -0.145 C  
HETATM    8  C   UNL     2     -10.844  11.791  68.818  1.00  0.00    -0.227 C  
HETATM    9  C   UNL     1      -8.287  14.975  67.199  1.00  0.00    -0.244 C  
HETATM   10  N   UNL     2      -9.905  11.319  67.916  1.00  0.00    -0.172 N  
HETATM   11  O   UNL     2     -12.229  14.423  66.893  1.00  0.00    -0.415 OA 
HETATM   12  C   UNL     1      -9.228  16.074  66.915  1.00  0.00    -0.224 C  
HETATM   13  C   UNL     2      -9.803  11.850  66.633  1.00  0.00    -0.201 C  
HETATM   14  O   UNL     1      -9.314  16.547  65.787  1.00  0.00    -0.487 OA 
HETATM   15  N   UNL     1      -9.984  16.498  67.974  1.00  0.00    -0.239 N  
HETATM   16  H   UNL     1     -10.599  17.298  67.821  1.00  0.00     0.000 HD 
HETATM   17  O   UNL     2      -8.911  11.567  65.838  1.00  0.00    -0.204 OA 
HETATM   18  N   UNL     2     -10.753  12.791  66.303  1.00  0.00    -0.267 N  
HETATM   19  C   UNL     2     -11.610  13.404  67.180  1.00  0.00    -0.358 C  
HETATM   20  H   UNL     2     -10.824  13.056  65.320  1.00  0.00     0.000 HD 
ENDROOT
BRANCH  10  21
HETATM   21  C   UNL     2      -8.967  10.271  68.318  1.00  0.00    -0.132 C  
HETATM   22  C   UNL     2      -7.599   9.745  70.199  1.00  0.00    -0.180 C  
HETATM   23  C   UNL     2      -7.774  10.790  69.124  1.00  0.00    -0.138 C  
HETATM   24  C   UNL     2      -9.013   9.265  70.420  1.00  0.00    -0.239 C  
HETATM   25  O   UNL     2      -9.658   9.320  69.145  1.00  0.00    -0.156 OA 
ENDBRANCH  10  21
TORSDOF 1
ENDMDL
MODEL       27
REMARK 921   NORMALIZED FREE ENERGY PREDICTED BY IDOCK:   -5.26 KCAL/MOL
REMARK 922        TOTAL FREE ENERGY PREDICTED BY IDOCK:   -5.91 KCAL/MOL
REMARK 923 INTER-LIGAND FREE ENERGY PREDICTED BY IDOCK:   -5.69 KCAL/MOL
REMARK 924 INTRA-LIGAND FREE ENERGY PREDICTED BY IDOCK:   -0.23 KCAL/MOL
REMARK 927      BINDING AFFINITY PREDICTED BY RF-SCORE:    0.00 PKD
ROOT
HETATM    1  O   UNL     1     -11.010   5.423  66.371  1.00  0.00    -0.243 OA 
HETATM    2  F   UNL     2     -10.286   4.658  69.799  1.00  0.00    -0.296 F  
HETATM    3  C   UNL     1     -10.460   6.490  66.624  1.00  0.00    -0.159 C  
HETATM    4  C   UNL     2      -9.810   5.863  70.158  1.00  0.00    -0.176 C  
HETATM    5  N   UNL     1     -11.086   7.455  67.372  1.00  0.00    -0.561 N  
HETATM    6  H   UNL     1     -12.030   7.266  67.712  1.00  0.00     0.000 HD 
HETATM    7  C   UNL     1     -10.515   8.655  67.685  1.00  0.00    -0.244 C  
HETATM    8  C   UNL     2     -10.527   6.729  70.871  1.00  0.00    -0.213 C  
HETATM    9  C   UNL     1      -9.277   8.946  67.291  1.00  0.00    -0.164 C  
HETATM   10  N   UNL     2     -10.064   8.002  71.162  1.00  0.00    -0.187 N  
HETATM   11  O   UNL     2      -7.840   5.574  68.872  1.00  0.00    -0.092 OA 
HETATM   12  C   UNL     1      -8.526   7.952  66.504  1.00  0.00    -0.134 C  
HETATM   13  C   UNL     2      -8.808   8.428  70.740  1.00  0.00    -0.151 C  
HETATM   14  O   UNL     1      -7.365   8.165  66.172  1.00  0.00    -0.069 OA 
HETATM   15  N   UNL     1      -9.202   6.802  66.197  1.00  0.00    -0.304 N  
HETATM   16  H   UNL     1      -8.728   6.123  65.601  1.00  0.00     0.000 HD 
HETATM   17  O   UNL     2      -8.397   9.580  70.851  1.00  0.00    -0.280 OA 
HETATM   18  N   UNL     2      -8.038   7.476  70.111  1.00  0.00    -0.117 N  
HETATM   19  C   UNL     2      -8.480   6.256  69.665  1.00  0.00    -0.129 C  
HETATM   20  H   UNL     2      -7.053   7.697  69.963  1.00  0.00     0.000 HD 
ENDROOT
BRANCH  10  21
HETATM   21  C   UNL     2     -10.916   8.941  71.890  1.00  0.00    -0.369 C  
HETATM   22  C   UNL     2     -13.035   9.997  71.607  1.00  0.00    -0.554 C  
HETATM   23  C   UNL     2     -11.662   9.924  70.985  1.00  0.00    -0.466 C  
HETATM   24  C   UNL     2     -13.204   8.613  72.185  1.00  0.00    -0.383 C  
HETATM   25  O   UNL     2     -11.908   8.200  72.622  1.00  0.00    -0.395 OA 
ENDBRANCH  10  21
TORSDOF 1
ENDMDL
MODEL       28
REMARK 921   NORMALIZED FREE ENERGY PREDICTED BY IDOCK:   -5.22 KCAL/MOL
REMARK 922        TOTAL FREE ENERGY PREDICTED BY IDOCK:   -5.87 KCAL/MOL
REMARK 923 INTER-LIGAND FREE ENERGY PREDICTED BY IDOCK:   -6.34 KCAL/MOL
REMARK 924 INTRA-LIGAND FREE ENERGY PREDICTED BY IDOCK:    0.47 KCAL/MOL
REMARK 927      BINDING AFFINITY PREDICTED BY RF-SCORE:    0.00 PKD
ROOT
HETATM    1  O   UNL     1     -11.183  11.616  69.651  1.00  0.00    -0.242 OA 
HETATM    2  F   UNL     2      -7.853  12.794  69.031  1.00  0.00    -0.053 F  
HETATM    3  C   UNL     1     -11.494  12.416  68.775  1.00  0.00    -0.304 C  
HETATM    4  C   UNL     2      -8.166  13.782  68.174  1.00  0.00    -0.160 C  
HETATM    5  N   UNL     1     -11.515  13.766  69.016  1.00  0.00    -0.284 N  
HETATM    6  H   UNL     1     -11.269  14.094  69.950  1.00  0.00     0.000 HD 
HETATM    7  C   UNL     1     -11.848  14.696  68.072  1.00  0.00    -0.311 C  
HETATM    8  C   UNL     2      -8.173  15.063  68.535  1.00  0.00    -0.151 C  
HETATM    9  C   UNL     1     -12.154  14.329  66.829  1.00  0.00    -0.446 C  
HETATM   10  N   UNL     2      -8.580  16.067  67.672  1.00  0.00    -0.164 N  
HETATM   11  O   UNL     2      -8.768  12.244  66.474  1.00  0.00    -0.176 OA 
HETATM   12  C   UNL     1     -12.130  12.897  66.481  1.00  0.00    -0.305 C  
HETATM   13  C   UNL     2      -8.981  15.782  66.369  1.00  0.00    -0.331 C  
HETATM   14  O   UNL     1     -12.352  12.529  65.333  1.00  0.00    -0.579 OA 
HETATM   15  N   UNL     1     -11.835  12.040  67.508  1.00  0.00    -0.277 N  
HETATM   16  H   UNL     1     -11.873  11.040  67.309  1.00  0.00     0.000 HD 
HETATM   17  O   UNL     2      -9.475  16.605  65.604  1.00  0.00    -0.511 OA 
HETATM   18  N   UNL     2      -8.850  14.467  65.982  1.00  0.00    -0.388 N  
HETATM   19  C   UNL     2      -8.595  13.408  66.816  1.00  0.00    -0.026 C  
HETATM   20  H   UNL     2      -8.952  14.263  64.988  1.00  0.00     0.000 HD 
ENDROOT
BRANCH  10  21
HETATM   21  C   UNL     2      -8.635  17.452  68.136  1.00  0.00    -0.248 C  
HETATM   22  C   UNL     2      -9.091  19.609  67.227  1.00  0.00    -0.396 C  
HETATM   23  C   UNL     2      -8.113  18.464  67.114  1.00  0.00    -0.244 C  
HETATM   24  C   UNL     2     -10.375  18.905  67.594  1.00  0.00    -0.426 C  
HETATM   25  O   UNL     2     -10.003  17.797  68.416  1.00  0.00    -0.320 OA 
ENDBRANCH  10  21
TORSDOF 1
ENDMDL
MODEL       29
REMARK 921   NORMALIZED FREE ENERGY PREDICTED BY IDOCK:   -5.22 KCAL/MOL
REMARK 922        TOTAL FREE ENERGY PREDICTED BY IDOCK:   -5.86 KCAL/MOL
REMARK 923 INTER-LIGAND FREE ENERGY PREDICTED BY IDOCK:   -5.52 KCAL/MOL
REMARK 924 INTRA-LIGAND FREE ENERGY PREDICTED BY IDOCK:   -0.35 KCAL/MOL
REMARK 927      BINDING AFFINITY PREDICTED BY RF-SCORE:    0.00 PKD
ROOT
HETATM    1  O   UNL     1     -11.687   6.440  69.344  1.00  0.00    -0.327 OA 
HETATM    2  F   UNL     2     -11.822   9.751  70.717  1.00  0.00    -0.306 F  
HETATM    3  C   UNL     1     -10.693   6.859  68.761  1.00  0.00    -0.219 C  
HETATM    4  C   UNL     2     -10.829  10.290  69.989  1.00  0.00    -0.307 C  
HETATM    5  N   UNL     1     -10.799   7.712  67.692  1.00  0.00    -0.502 N  
HETATM    6  H   UNL     1     -11.732   7.990  67.387  1.00  0.00     0.000 HD 
HETATM    7  C   UNL     1      -9.722   8.209  67.014  1.00  0.00    -0.212 C  
HETATM    8  C   UNL     2     -11.060  11.092  68.953  1.00  0.00    -0.239 C  
HETATM    9  C   UNL     1      -8.481   7.901  67.383  1.00  0.00    -0.122 C  
HETATM   10  N   UNL     2     -10.035  11.574  68.154  1.00  0.00    -0.186 N  
HETATM   11  O   UNL     2      -9.177   9.043  71.144  1.00  0.00    -0.231 OA 
HETATM   12  C   UNL     1      -8.280   7.009  68.539  1.00  0.00    -0.124 C  
HETATM   13  C   UNL     2      -8.705  11.258  68.416  1.00  0.00    -0.159 C  
HETATM   14  O   UNL     1      -7.151   6.750  68.939  1.00  0.00    -0.082 OA 
HETATM   15  N   UNL     1      -9.420   6.522  69.120  1.00  0.00    -0.136 N  
HETATM   16  H   UNL     1      -9.309   5.853  69.883  1.00  0.00     0.000 HD 
HETATM   17  O   UNL     2      -7.769  11.543  67.674  1.00  0.00    -0.112 OA 
HETATM   18  N   UNL     2      -8.482  10.528  69.562  1.00  0.00    -0.351 N  
HETATM   19  C   UNL     2      -9.446   9.902  70.312  1.00  0.00    -0.105 C  
HETATM   20  H   UNL     2      -7.517  10.446  69.882  1.00  0.00     0.000 HD 
ENDROOT
BRANCH  10  21
HETATM   21  C   UNL     2     -10.344  12.397  66.986  1.00  0.00    -0.220 C  
HETATM   22  C   UNL     2     -12.276  13.123  65.791  1.00  0.00    -0.514 C  
HETATM   23  C   UNL     2     -11.517  11.871  66.156  1.00  0.00    -0.352 C  
HETATM   24  C   UNL     2     -12.020  14.016  66.981  1.00  0.00    -0.438 C  
HETATM   25  O   UNL     2     -10.694  13.720  67.427  1.00  0.00    -0.270 OA 
ENDBRANCH  10  21
TORSDOF 1
ENDMDL
MODEL       30
REMARK 921   NORMALIZED FREE ENERGY PREDICTED BY IDOCK:   -5.21 KCAL/MOL
REMARK 922        TOTAL FREE ENERGY PREDICTED BY IDOCK:   -5.86 KCAL/MOL
REMARK 923 INTER-LIGAND FREE ENERGY PREDICTED BY IDOCK:   -5.54 KCAL/MOL
REMARK 924 INTRA-LIGAND FREE ENERGY PREDICTED BY IDOCK:   -0.32 KCAL/MOL
REMARK 927      BINDING AFFINITY PREDICTED BY RF-SCORE:    0.00 PKD
ROOT
HETATM    1  O   UNL     1     -13.026  12.526  64.994  1.00  0.00    -0.779 OA 
HETATM    2  F   UNL     2     -11.871  10.925  67.988  1.00  0.00    -0.361 F  
HETATM    3  C   UNL     1     -12.415  13.497  65.428  1.00  0.00    -0.497 C  
HETATM    4  C   UNL     2     -11.315  12.003  68.568  1.00  0.00    -0.272 C  
HETATM    5  N   UNL     1     -12.905  14.240  66.472  1.00  0.00    -0.321 N  
HETATM    6  H   UNL     1     -13.799  13.967  66.880  1.00  0.00     0.000 HD 
HETATM    7  C   UNL     1     -12.260  15.325  66.994  1.00  0.00     0.602 C  
HETATM    8  C   UNL     2     -11.903  12.658  69.566  1.00  0.00    -0.312 C  
HETATM    9  C   UNL     1     -11.078  15.712  66.519  1.00  0.00    -0.135 C  
HETATM   10  N   UNL     2     -11.366  13.818  70.100  1.00  0.00    -0.050 N  
HETATM   11  O   UNL     2      -9.546  12.056  66.992  1.00  0.00    -0.189 OA 
HETATM   12  C   UNL     1     -10.470  14.951  65.412  1.00  0.00    -0.384 C  
HETATM   13  C   UNL     2     -10.165  14.342  69.630  1.00  0.00     0.197 C  
HETATM   14  O   UNL     1      -9.359  15.246  64.988  1.00  0.00     0.225 OA 
HETATM   15  N   UNL     1     -11.217  13.912  64.923  1.00  0.00    -0.340 N  
HETATM   16  H   UNL     1     -10.847  13.408  64.117  1.00  0.00     0.000 HD 
HETATM   17  O   UNL     2      -9.708  15.431  69.968  1.00  0.00    -0.241 OA 
HETATM   18  N   UNL     2      -9.517  13.583  68.682  1.00  0.00    -0.386 N  
HETATM   19  C   UNL     2     -10.051  12.513  68.010  1.00  0.00    -0.220 C  
HETATM   20  H   UNL     2      -8.554  13.839  68.460  1.00  0.00     0.000 HD 
ENDROOT
BRANCH  10  21
HETATM   21  C   UNL     2     -12.083  14.539  71.151  1.00  0.00    -0.344 C  
HETATM   22  C   UNL     2     -14.321  15.212  71.627  1.00  0.00    -0.685 C  
HETATM   23  C   UNL     2     -13.213  15.428  70.625  1.00  0.00    -0.356 C  
HETATM   24  C   UNL     2     -14.090  13.786  72.065  1.00  0.00    -0.433 C  
HETATM   25  O   UNL     2     -12.675  13.586  72.050  1.00  0.00    -0.256 OA 
ENDBRANCH  10  21
TORSDOF 1
ENDMDL
MODEL       31
REMARK 921   NORMALIZED FREE ENERGY PREDICTED BY IDOCK:   -5.18 KCAL/MOL
REMARK 922        TOTAL FREE ENERGY PREDICTED BY IDOCK:   -5.82 KCAL/MOL
REMARK 923 INTER-LIGAND FREE ENERGY PREDICTED BY IDOCK:   -5.48 KCAL/MOL
REMARK 924 INTRA-LIGAND FREE ENERGY PREDICTED BY IDOCK:   -0.34 KCAL/MOL
REMARK 927      BINDING AFFINITY PREDICTED BY RF-SCORE:    0.00 PKD
ROOT
HETATM    1  O   UNL     1     -11.812  15.466  64.500  1.00  0.00    -0.382 OA 
HETATM    2  F   UNL     2     -11.139  18.080  66.862  1.00  0.00    -0.226 F  
HETATM    3  C   UNL     1     -11.172  14.769  65.280  1.00  0.00    -0.366 C  
HETATM    4  C   UNL     2     -10.312  17.390  67.667  1.00  0.00    -0.355 C  
HETATM    5  N   UNL     1      -9.806  14.864  65.367  1.00  0.00    -0.429 N  
HETATM    6  H   UNL     1      -9.329  15.530  64.759  1.00  0.00     0.000 HD 
HETATM    7  C   UNL     1      -9.051  14.114  66.223  1.00  0.00    -0.040 C  
HETATM    8  C   UNL     2      -8.992  17.554  67.642  1.00  0.00    -0.231 C  
HETATM    9  C   UNL     1      -9.621  13.247  67.057  1.00  0.00    -0.243 C  
HETATM   10  N   UNL     2      -8.140  16.778  68.411  1.00  0.00    -0.209 N  
HETATM   11  O   UNL     2     -12.082  16.045  68.490  1.00  0.00    -0.162 OA 
HETATM   12  C   UNL     1     -11.088  13.103  67.044  1.00  0.00    -0.279 C  
HETATM   13  C   UNL     2      -8.632  15.799  69.270  1.00  0.00    -0.259 C  
HETATM   14  O   UNL     1     -11.649  12.355  67.837  1.00  0.00    -0.314 OA 
HETATM   15  N   UNL     1     -11.752  13.859  66.116  1.00  0.00    -0.359 N  
HETATM   16  H   UNL     1     -12.762  13.733  66.044  1.00  0.00     0.000 HD 
HETATM   17  O   UNL     2      -7.928  14.994  69.874  1.00  0.00    -0.094 OA 
HETATM   18  N   UNL     2     -10.004  15.730  69.368  1.00  0.00    -0.258 N  
HETATM   19  C   UNL     2     -10.898  16.359  68.539  1.00  0.00    -0.339 C  
HETATM   20  H   UNL     2     -10.388  15.161  70.122  1.00  0.00     0.000 HD 
ENDROOT
BRANCH  10  21
HETATM   21  C   UNL     2      -6.693  16.951  68.299  1.00  0.00    -0.159 C  
HETATM   22  C   UNL     2      -5.161  18.365  67.142  1.00  0.00    -0.139 C  
HETATM   23  C   UNL     2      -6.225  17.324  66.891  1.00  0.00    -0.220 C  
HETATM   24  C   UNL     2      -5.650  19.033  68.404  1.00  0.00    -0.195 C  
HETATM   25  O   UNL     2      -6.280  18.010  69.180  1.00  0.00    -0.218 OA 
ENDBRANCH  10  21
TORSDOF 1
ENDMDL
MODEL       32
REMARK 921   NORMALIZED FREE ENERGY PREDICTED BY IDOCK:   -5.17 KCAL/MOL
REMARK 922        TOTAL FREE ENERGY PREDICTED BY IDOCK:   -5.81 KCAL/MOL
REMARK 923 INTER-LIGAND FREE ENERGY PREDICTED BY IDOCK:   -5.83 KCAL/MOL
REMARK 924 INTRA-LIGAND FREE ENERGY PREDICTED BY IDOCK:    0.01 KCAL/MOL
REMARK 927      BINDING AFFINITY PREDICTED BY RF-SCORE:    0.00 PKD
ROOT
HETATM    1  O   UNL     1     -11.592  16.944  68.304  1.00  0.00     0.007 OA 
HETATM    2  F   UNL     2     -13.003  14.388  66.220  1.00  0.00    -0.386 F  
HETATM    3  C   UNL     1     -10.544  16.333  68.127  1.00  0.00    -0.307 C  
HETATM    4  C   UNL     2     -11.910  13.611  66.121  1.00  0.00    -0.392 C  
HETATM    5  N   UNL     1     -10.296  15.142  68.761  1.00  0.00    -0.229 N  
HETATM    6  H   UNL     1     -11.007  14.775  69.393  1.00  0.00     0.000 HD 
HETATM    7  C   UNL     1      -9.147  14.423  68.593  1.00  0.00    -0.178 C  
HETATM    8  C   UNL     2     -11.775  12.480  66.810  1.00  0.00    -0.384 C  
HETATM    9  C   UNL     1      -8.194  14.840  67.762  1.00  0.00    -0.167 C  
HETATM   10  N   UNL     2     -10.611  11.730  66.769  1.00  0.00    -0.229 N  
HETATM   11  O   UNL     2     -10.794  15.191  64.752  1.00  0.00    -0.403 OA 
HETATM   12  C   UNL     1      -8.394  16.099  67.022  1.00  0.00    -0.215 C  
HETATM   13  C   UNL     2      -9.530  12.115  65.980  1.00  0.00    -0.207 C  
HETATM   14  O   UNL     1      -7.563  16.484  66.207  1.00  0.00    -0.268 OA 
HETATM   15  N   UNL     1      -9.554  16.774  67.297  1.00  0.00    -0.231 N  
HETATM   16  H   UNL     1      -9.689  17.679  66.845  1.00  0.00     0.000 HD 
HETATM   17  O   UNL     2      -8.431  11.568  66.003  1.00  0.00    -0.124 OA 
HETATM   18  N   UNL     2      -9.739  13.219  65.185  1.00  0.00    -0.531 N  
HETATM   19  C   UNL     2     -10.799  14.085  65.280  1.00  0.00    -0.347 C  
HETATM   20  H   UNL     2      -9.044  13.410  64.463  1.00  0.00     0.000 HD 
ENDROOT
BRANCH  10  21
HETATM   21  C   UNL     2     -10.485  10.531  67.597  1.00  0.00    -0.234 C  
HETATM   22  C   UNL     2      -9.977   9.988  69.862  1.00  0.00    -0.280 C  
HETATM   23  C   UNL     2      -9.364  10.616  68.635  1.00  0.00    -0.177 C  
HETATM   24  C   UNL     2     -11.436  10.345  69.716  1.00  0.00    -0.280 C  
HETATM   25  O   UNL     2     -11.714  10.328  68.314  1.00  0.00    -0.265 OA 
ENDBRANCH  10  21
TORSDOF 1
ENDMDL
MODEL       33
REMARK 921   NORMALIZED FREE ENERGY PREDICTED BY IDOCK:   -5.14 KCAL/MOL
REMARK 922        TOTAL FREE ENERGY PREDICTED BY IDOCK:   -5.79 KCAL/MOL
REMARK 923 INTER-LIGAND FREE ENERGY PREDICTED BY IDOCK:   -5.44 KCAL/MOL
REMARK 924 INTRA-LIGAND FREE ENERGY PREDICTED BY IDOCK:   -0.35 KCAL/MOL
REMARK 927      BINDING AFFINITY PREDICTED BY RF-SCORE:    0.00 PKD
ROOT
HETATM    1  O   UNL     1     -10.384  10.551  64.697  1.00  0.00    -0.344 OA 
HETATM    2  F   UNL     2     -10.943   7.697  66.795  1.00  0.00    -0.421 F  
HETATM    3  C   UNL     1      -9.629  10.906  65.596  1.00  0.00    -0.224 C  
HETATM    4  C   UNL     2     -10.243   8.116  67.863  1.00  0.00    -0.218 C  
HETATM    5  N   UNL     1     -10.114  11.393  66.784  1.00  0.00    -0.211 N  
HETATM    6  H   UNL     1     -11.125  11.459  66.902  1.00  0.00     0.000 HD 
HETATM    7  C   UNL     1      -9.315  11.796  67.816  1.00  0.00    -0.181 C  
HETATM    8  C   UNL     2     -10.831   8.594  68.958  1.00  0.00    -0.019 C  
HETATM    9  C   UNL     1      -7.989  11.710  67.728  1.00  0.00    -0.131 C  
HETATM   10  N   UNL     2     -10.102   9.104  70.019  1.00  0.00    -0.194 N  
HETATM   11  O   UNL     2      -8.177   7.848  66.733  1.00  0.00    -0.111 OA 
HETATM   12  C   UNL     1      -7.389  11.173  66.493  1.00  0.00    -0.129 C  
HETATM   13  C   UNL     2      -8.710   9.119  69.999  1.00  0.00    -0.177 C  
HETATM   14  O   UNL     1      -6.175  11.028  66.401  1.00  0.00    -0.116 OA 
HETATM   15  N   UNL     1      -8.270  10.845  65.497  1.00  0.00    -0.319 N  
HETATM   16  H   UNL     1      -7.877  10.530  64.610  1.00  0.00     0.000 HD 
HETATM   17  O   UNL     2      -8.014   9.675  70.845  1.00  0.00    -0.307 OA 
HETATM   18  N   UNL     2      -8.125   8.511  68.912  1.00  0.00    -0.117 N  
HETATM   19  C   UNL     2      -8.774   8.118  67.769  1.00  0.00    -0.130 C  
HETATM   20  H   UNL     2      -7.120   8.337  68.960  1.00  0.00     0.000 HD 
ENDROOT
BRANCH  10  21
HETATM   21  C   UNL     2     -10.794   9.680  71.171  1.00  0.00    -0.334 C  
HETATM   22  C   UNL     2     -13.023  10.251  71.796  1.00  0.00    -0.574 C  
HETATM   23  C   UNL     2     -11.951  10.606  70.794  1.00  0.00    -0.477 C  
HETATM   24  C   UNL     2     -12.759   8.786  72.049  1.00  0.00    -0.387 C  
HETATM   25  O   UNL     2     -11.342   8.615  71.966  1.00  0.00    -0.318 OA 
ENDBRANCH  10  21
TORSDOF 1
ENDMDL
MODEL       34
REMARK 921   NORMALIZED FREE ENERGY PREDICTED BY IDOCK:   -5.14 KCAL/MOL
REMARK 922        TOTAL FREE ENERGY PREDICTED BY IDOCK:   -5.78 KCAL/MOL
REMARK 923 INTER-LIGAND FREE ENERGY PREDICTED BY IDOCK:   -5.47 KCAL/MOL
REMARK 924 INTRA-LIGAND FREE ENERGY PREDICTED BY IDOCK:   -0.31 KCAL/MOL
REMARK 927      BINDING AFFINITY PREDICTED BY RF-SCORE:    0.00 PKD
ROOT
HETATM    1  O   UNL     1     -10.485   7.336  66.863  1.00  0.00    -0.291 OA 
HETATM    2  F   UNL     2     -11.769   9.993  68.901  1.00  0.00    -0.181 F  
HETATM    3  C   UNL     1      -9.589   8.134  66.609  1.00  0.00    -0.229 C  
HETATM    4  C   UNL     2     -10.891  10.943  68.537  1.00  0.00    -0.220 C  
HETATM    5  N   UNL     1      -9.797   9.196  65.766  1.00  0.00    -0.444 N  
HETATM    6  H   UNL     1     -10.721   9.307  65.348  1.00  0.00     0.000 HD 
HETATM    7  C   UNL     1      -8.834  10.114  65.457  1.00  0.00    -0.169 C  
HETATM    8  C   UNL     2     -11.206  11.917  67.687  1.00  0.00    -0.276 C  
HETATM    9  C   UNL     1      -7.618  10.035  65.992  1.00  0.00    -0.111 C  
HETATM   10  N   UNL     2     -10.271  12.841  67.249  1.00  0.00    -0.231 N  
HETATM   11  O   UNL     2      -9.115   9.876  69.689  1.00  0.00    -0.201 OA 
HETATM   12  C   UNL     1      -7.320   8.936  66.928  1.00  0.00    -0.083 C  
HETATM   13  C   UNL     2      -8.955  12.807  67.700  1.00  0.00    -0.191 C  
HETATM   14  O   UNL     1      -6.228   8.865  67.482  1.00  0.00    -0.051 OA 
HETATM   15  N   UNL     1      -8.333   8.039  67.135  1.00  0.00    -0.119 N  
HETATM   16  H   UNL     1      -8.134   7.234  67.729  1.00  0.00     0.000 HD 
HETATM   17  O   UNL     2      -8.053  13.510  67.252  1.00  0.00    -0.168 OA 
HETATM   18  N   UNL     2      -8.683  11.866  68.668  1.00  0.00    -0.337 N  
HETATM   19  C   UNL     2      -9.511  10.837  69.040  1.00  0.00    -0.166 C  
HETATM   20  H   UNL     2      -7.788  11.942  69.152  1.00  0.00     0.000 HD 
ENDROOT
BRANCH  10  21
HETATM   21  C   UNL     2     -10.650  13.852  66.263  1.00  0.00    -0.289 C  
HETATM   22  C   UNL     2     -11.805  13.951  64.180  1.00  0.00    -0.417 C  
HETATM   23  C   UNL     2     -10.571  13.360  64.817  1.00  0.00    -0.420 C  
HETATM   24  C   UNL     2     -12.781  13.982  65.331  1.00  0.00    -0.471 C  
HETATM   25  O   UNL     2     -12.010  14.252  66.503  1.00  0.00    -0.408 OA 
ENDBRANCH  10  21
TORSDOF 1
ENDMDL
MODEL       35
REMARK 921   NORMALIZED FREE ENERGY PREDICTED BY IDOCK:   -5.11 KCAL/MOL
REMARK 922        TOTAL FREE ENERGY PREDICTED BY IDOCK:   -5.75 KCAL/MOL
REMARK 923 INTER-LIGAND FREE ENERGY PREDICTED BY IDOCK:   -5.41 KCAL/MOL
REMARK 924 INTRA-LIGAND FREE ENERGY PREDICTED BY IDOCK:   -0.34 KCAL/MOL
REMARK 927      BINDING AFFINITY PREDICTED BY RF-SCORE:    0.00 PKD
ROOT
HETATM    1  O   UNL     1      -8.859  15.519  65.985  1.00  0.00    -0.308 OA 
HETATM    2  F   UNL     2     -12.351  14.964  66.589  1.00  0.00    -0.251 F  
HETATM    3  C   UNL     1      -8.705  14.587  66.767  1.00  0.00    -0.185 C  
HETATM    4  C   UNL     2     -12.224  14.040  67.557  1.00  0.00    -0.223 C  
HETATM    5  N   UNL     1      -8.890  14.749  68.117  1.00  0.00    -0.164 N  
HETATM    6  H   UNL     1      -9.157  15.672  68.460  1.00  0.00     0.000 HD 
HETATM    7  C   UNL     1      -8.737  13.741  69.026  1.00  0.00     0.274 C  
HETATM    8  C   UNL     2     -12.408  14.326  68.844  1.00  0.00    -0.080 C  
HETATM    9  C   UNL     1      -8.414  12.510  68.634  1.00  0.00     0.031 C  
HETATM   10  N   UNL     2     -12.190  13.392  69.842  1.00  0.00    -0.301 N  
HETATM   11  O   UNL     2     -11.437  12.409  66.028  1.00  0.00    -0.343 OA 
HETATM   12  C   UNL     1      -8.221  12.246  67.196  1.00  0.00    -0.179 C  
HETATM   13  C   UNL     2     -11.789  12.093  69.542  1.00  0.00    -0.321 C  
HETATM   14  O   UNL     1      -7.978  11.113  66.796  1.00  0.00    -0.144 OA 
HETATM   15  N   UNL     1      -8.347  13.331  66.370  1.00  0.00    -0.170 N  
HETATM   16  H   UNL     1      -8.158  13.189  65.377  1.00  0.00     0.000 HD 
HETATM   17  O   UNL     2     -11.453  11.263  70.383  1.00  0.00    -0.271 OA 
HETATM   18  N   UNL     2     -11.722  11.787  68.201  1.00  0.00    -0.320 N  
HETATM   19  C   UNL     2     -11.781  12.690  67.171  1.00  0.00    -0.371 C  
HETATM   20  H   UNL     2     -11.618  10.803  67.953  1.00  0.00     0.000 HD 
ENDROOT
BRANCH  10  21
HETATM   21  C   UNL     2     -12.341  13.773  71.246  1.00  0.00    -0.308 C  
HETATM   22  C   UNL     2     -12.464  15.775  72.535  1.00  0.00    -0.542 C  
HETATM   23  C   UNL     2     -11.524  15.005  71.640  1.00  0.00    -0.377 C  
HETATM   24  C   UNL     2     -13.816  15.430  71.960  1.00  0.00    -0.522 C  
HETATM   25  O   UNL     2     -13.723  14.079  71.500  1.00  0.00    -0.337 OA 
ENDBRANCH  10  21
TORSDOF 1
ENDMDL
MODEL       36
REMARK 921   NORMALIZED FREE ENERGY PREDICTED BY IDOCK:   -5.04 KCAL/MOL
REMARK 922        TOTAL FREE ENERGY PREDICTED BY IDOCK:   -5.67 KCAL/MOL
REMARK 923 INTER-LIGAND FREE ENERGY PREDICTED BY IDOCK:   -5.34 KCAL/MOL
REMARK 924 INTRA-LIGAND FREE ENERGY PREDICTED BY IDOCK:   -0.33 KCAL/MOL
REMARK 927      BINDING AFFINITY PREDICTED BY RF-SCORE:    0.00 PKD
ROOT
HETATM    1  O   UNL     1     -12.428  12.281  65.474  1.00  0.00    -0.597 OA 
HETATM    2  F   UNL     2     -10.485   9.282  65.775  1.00  0.00    -0.281 F  
HETATM    3  C   UNL     1     -11.622  12.734  66.280  1.00  0.00    -0.379 C  
HETATM    4  C   UNL     2      -9.672   9.690  66.764  1.00  0.00    -0.197 C  
HETATM    5  N   UNL     1     -11.664  12.382  67.605  1.00  0.00    -0.355 N  
HETATM    6  H   UNL     1     -12.390  11.734  67.910  1.00  0.00     0.000 HD 
HETATM    7  C   UNL     1     -10.786  12.854  68.539  1.00  0.00    -0.257 C  
HETATM    8  C   UNL     2      -9.829   9.294  68.025  1.00  0.00    -0.163 C  
HETATM    9  C   UNL     1      -9.803  13.683  68.196  1.00  0.00    -0.236 C  
HETATM   10  N   UNL     2      -9.042   9.787  69.053  1.00  0.00    -0.149 N  
HETATM   11  O   UNL     2      -8.537  11.203  65.335  1.00  0.00    -0.129 OA 
HETATM   12  C   UNL     1      -9.673  14.091  66.785  1.00  0.00    -0.278 C  
HETATM   13  C   UNL     2      -8.027  10.707  68.809  1.00  0.00    -0.135 C  
HETATM   14  O   UNL     1      -8.746  14.808  66.425  1.00  0.00    -0.197 OA 
HETATM   15  N   UNL     1     -10.631  13.606  65.935  1.00  0.00    -0.284 N  
HETATM   16  H   UNL     1     -10.600  13.922  64.965  1.00  0.00     0.000 HD 
HETATM   17  O   UNL     2      -7.386  11.277  69.687  1.00  0.00    -0.051 OA 
HETATM   18  N   UNL     2      -7.805  11.009  67.484  1.00  0.00    -0.113 N  
HETATM   19  C   UNL     2      -8.628  10.676  66.438  1.00  0.00    -0.149 C  
HETATM   20  H   UNL     2      -6.954  11.526  67.260  1.00  0.00     0.000 HD 
ENDROOT
BRANCH  10  21
HETATM   21  C   UNL     2      -9.297   9.372  70.432  1.00  0.00    -0.268 C  
HETATM   22  C   UNL     2     -11.127   8.565  71.730  1.00  0.00    -0.378 C  
HETATM   23  C   UNL     2     -10.678   9.777  70.950  1.00  0.00    -0.375 C  
HETATM   24  C   UNL     2     -10.468   7.433  70.979  1.00  0.00    -0.215 C  
HETATM   25  O   UNL     2      -9.215   7.939  70.511  1.00  0.00    -0.156 OA 
ENDBRANCH  10  21
TORSDOF 1
ENDMDL
MODEL       37
REMARK 921   NORMALIZED FREE ENERGY PREDICTED BY IDOCK:   -5.02 KCAL/MOL
REMARK 922        TOTAL FREE ENERGY PREDICTED BY IDOCK:   -5.66 KCAL/MOL
REMARK 923 INTER-LIGAND FREE ENERGY PREDICTED BY IDOCK:   -5.32 KCAL/MOL
REMARK 924 INTRA-LIGAND FREE ENERGY PREDICTED BY IDOCK:   -0.34 KCAL/MOL
REMARK 927      BINDING AFFINITY PREDICTED BY RF-SCORE:    0.00 PKD
ROOT
HETATM    1  O   UNL     1      -6.651  11.989  68.988  1.00  0.00    -0.079 OA 
HETATM    2  F   UNL     2      -7.878  15.339  69.360  1.00  0.00    -0.169 F  
HETATM    3  C   UNL     1      -7.695  11.810  68.370  1.00  0.00    -0.131 C  
HETATM    4  C   UNL     2      -9.094  15.148  68.820  1.00  0.00    -0.200 C  
HETATM    5  N   UNL     1      -8.900  11.706  69.019  1.00  0.00    -0.373 N  
HETATM    6  H   UNL     1      -8.907  11.777  70.036  1.00  0.00     0.000 HD 
HETATM    7  C   UNL     1     -10.089  11.513  68.375  1.00  0.00    -0.204 C  
HETATM    8  C   UNL     2     -10.194  15.040  69.560  1.00  0.00    -0.188 C  
HETATM    9  C   UNL     1     -10.143  11.437  67.047  1.00  0.00    -0.237 C  
HETATM   10  N   UNL     2     -11.430  14.757  69.002  1.00  0.00    -0.277 N  
HETATM   11  O   UNL     2      -8.190  14.896  66.643  1.00  0.00    -0.137 OA 
HETATM   12  C   UNL     1      -8.895  11.564  66.273  1.00  0.00    -0.186 C  
HETATM   13  C   UNL     2     -11.583  14.596  67.628  1.00  0.00    -0.361 C  
HETATM   14  O   UNL     1      -8.916  11.555  65.048  1.00  0.00    -0.033 OA 
HETATM   15  N   UNL     1      -7.749  11.704  67.011  1.00  0.00    -0.155 N  
HETATM   16  H   UNL     1      -6.865  11.732  66.502  1.00  0.00     0.000 HD 
HETATM   17  O   UNL     2     -12.619  14.216  67.089  1.00  0.00    -0.161 OA 
HETATM   18  N   UNL     2     -10.456  14.832  66.873  1.00  0.00    -0.274 N  
HETATM   19  C   UNL     2      -9.181  14.972  67.360  1.00  0.00    -0.195 C  
HETATM   20  H   UNL     2     -10.580  14.909  65.864  1.00  0.00     0.000 HD 
ENDROOT
BRANCH  10  21
HETATM   21  C   UNL     2     -12.598  14.580  69.864  1.00  0.00    -0.180 C  
HETATM   22  C   UNL     2     -13.053  14.116  72.158  1.00  0.00    -0.489 C  
HETATM   23  C   UNL     2     -12.414  13.503  70.935  1.00  0.00    -0.448 C  
HETATM   24  C   UNL     2     -12.797  15.589  71.955  1.00  0.00    -0.420 C  
HETATM   25  O   UNL     2     -12.866  15.818  70.546  1.00  0.00    -0.423 OA 
ENDBRANCH  10  21
TORSDOF 1
ENDMDL
MODEL       38
REMARK 921   NORMALIZED FREE ENERGY PREDICTED BY IDOCK:   -5.01 KCAL/MOL
REMARK 922        TOTAL FREE ENERGY PREDICTED BY IDOCK:   -5.64 KCAL/MOL
REMARK 923 INTER-LIGAND FREE ENERGY PREDICTED BY IDOCK:   -5.37 KCAL/MOL
REMARK 924 INTRA-LIGAND FREE ENERGY PREDICTED BY IDOCK:   -0.27 KCAL/MOL
REMARK 927      BINDING AFFINITY PREDICTED BY RF-SCORE:    0.00 PKD
ROOT
HETATM    1  O   UNL     1     -13.262   6.683  71.742  1.00  0.00    -0.266 OA 
HETATM    2  F   UNL     2     -11.951  10.020  71.828  1.00  0.00    -0.443 F  
HETATM    3  C   UNL     1     -12.220   6.425  71.147  1.00  0.00    -0.066 C  
HETATM    4  C   UNL     2     -10.871   9.812  71.055  1.00  0.00    -0.308 C  
HETATM    5  N   UNL     1     -12.034   6.796  69.840  1.00  0.00    -0.659 N  
HETATM    6  H   UNL     1     -12.790   7.293  69.367  1.00  0.00     0.000 HD 
HETATM    7  C   UNL     1     -10.892   6.537  69.137  1.00  0.00    -0.302 C  
HETATM    8  C   UNL     2     -10.818  10.202  69.784  1.00  0.00    -0.279 C  
HETATM    9  C   UNL     1      -9.864   5.915  69.710  1.00  0.00    -0.217 C  
HETATM   10  N   UNL     2      -9.737   9.906  68.970  1.00  0.00    -0.183 N  
HETATM   11  O   UNL     2      -9.803   8.521  72.732  1.00  0.00    -0.258 OA 
HETATM   12  C   UNL     1      -9.974   5.504  71.121  1.00  0.00    -0.195 C  
HETATM   13  C   UNL     2      -8.637   9.204  69.454  1.00  0.00    -0.138 C  
HETATM   14  O   UNL     1      -9.026   4.979  71.694  1.00  0.00    -0.130 OA 
HETATM   15  N   UNL     1     -11.176   5.762  71.724  1.00  0.00    -0.246 N  
HETATM   16  H   UNL     1     -11.301   5.432  72.681  1.00  0.00     0.000 HD 
HETATM   17  O   UNL     2      -7.714   8.799  68.754  1.00  0.00    -0.094 OA 
HETATM   18  N   UNL     2      -8.662   8.917  70.801  1.00  0.00    -0.186 N  
HETATM   19  C   UNL     2      -9.749   9.049  71.627  1.00  0.00    -0.276 C  
HETATM   20  H   UNL     2      -7.797   8.577  71.220  1.00  0.00     0.000 HD 
ENDROOT
BRANCH  10  21
HETATM   21  C   UNL     2      -9.755  10.298  67.561  1.00  0.00    -0.169 C  
HETATM   22  C   UNL     2     -10.787  11.958  66.196  1.00  0.00    -0.334 C  
HETATM   23  C   UNL     2     -11.123  10.776  67.073  1.00  0.00    -0.245 C  
HETATM   24  C   UNL     2      -9.546  12.509  66.854  1.00  0.00    -0.229 C  
HETATM   25  O   UNL     2      -8.831  11.382  67.366  1.00  0.00    -0.146 OA 
ENDBRANCH  10  21
TORSDOF 1
ENDMDL
MODEL       39
REMARK 921   NORMALIZED FREE ENERGY PREDICTED BY IDOCK:   -4.94 KCAL/MOL
REMARK 922        TOTAL FREE ENERGY PREDICTED BY IDOCK:   -5.57 KCAL/MOL
REMARK 923 INTER-LIGAND FREE ENERGY PREDICTED BY IDOCK:   -5.23 KCAL/MOL
REMARK 924 INTRA-LIGAND FREE ENERGY PREDICTED BY IDOCK:   -0.34 KCAL/MOL
REMARK 927      BINDING AFFINITY PREDICTED BY RF-SCORE:    0.00 PKD
ROOT
HETATM    1  O   UNL     1      -9.437   7.846  73.478  1.00  0.00    -0.281 OA 
HETATM    2  F   UNL     2      -7.701   9.712  70.954  1.00  0.00    -0.161 F  
HETATM    3  C   UNL     1     -10.062   7.385  72.528  1.00  0.00    -0.192 C  
HETATM    4  C   UNL     2      -8.455   9.345  69.904  1.00  0.00    -0.177 C  
HETATM    5  N   UNL     1     -11.015   8.124  71.875  1.00  0.00    -0.257 N  
HETATM    6  H   UNL     1     -11.198   9.073  72.202  1.00  0.00     0.000 HD 
HETATM    7  C   UNL     1     -11.732   7.658  70.810  1.00  0.00    -0.239 C  
HETATM    8  C   UNL     2      -9.371  10.148  69.368  1.00  0.00    -0.219 C  
HETATM    9  C   UNL     1     -11.519   6.437  70.324  1.00  0.00    -0.468 C  
HETATM   10  N   UNL     2     -10.204   9.731  68.344  1.00  0.00    -0.177 N  
HETATM   11  O   UNL     2      -7.605   7.132  69.948  1.00  0.00    -0.093 OA 
HETATM   12  C   UNL     1     -10.492   5.587  70.954  1.00  0.00    -0.249 C  
HETATM   13  C   UNL     2     -10.105   8.450  67.806  1.00  0.00    -0.207 C  
HETATM   14  O   UNL     1     -10.231   4.480  70.497  1.00  0.00    -0.204 OA 
HETATM   15  N   UNL     1      -9.864   6.124  72.045  1.00  0.00    -0.156 N  
HETATM   16  H   UNL     1      -9.193   5.533  72.538  1.00  0.00     0.000 HD 
HETATM   17  O   UNL     2     -10.896   7.980  66.994  1.00  0.00    -0.283 OA 
HETATM   18  N   UNL     2      -9.072   7.681  68.294  1.00  0.00    -0.137 N  
HETATM   19  C   UNL     2      -8.309   7.970  69.396  1.00  0.00    -0.131 C  
HETATM   20  H   UNL     2      -8.857   6.820  67.791  1.00  0.00     0.000 HD 
ENDROOT
BRANCH  10  21
HETATM   21  C   UNL     2     -11.240  10.628  67.833  1.00  0.00    -0.308 C  
HETATM   22  C   UNL     2     -11.867  12.918  68.053  1.00  0.00    -0.390 C  
HETATM   23  C   UNL     2     -11.729  11.651  68.861  1.00  0.00    -0.397 C  
HETATM   24  C   UNL     2     -10.783  12.761  67.014  1.00  0.00    -0.253 C  
HETATM   25  O   UNL     2     -10.711  11.364  66.717  1.00  0.00    -0.247 OA 
ENDBRANCH  10  21
TORSDOF 1
ENDMDL
MODEL       40
REMARK 921   NORMALIZED FREE ENERGY PREDICTED BY IDOCK:   -4.92 KCAL/MOL
REMARK 922        TOTAL FREE ENERGY PREDICTED BY IDOCK:   -5.55 KCAL/MOL
REMARK 923 INTER-LIGAND FREE ENERGY PREDICTED BY IDOCK:   -5.25 KCAL/MOL
REMARK 924 INTRA-LIGAND FREE ENERGY PREDICTED BY IDOCK:   -0.29 KCAL/MOL
REMARK 927      BINDING AFFINITY PREDICTED BY RF-SCORE:    0.00 PKD
ROOT
HETATM    1  O   UNL     1      -7.894  16.875  65.927  1.00  0.00    -0.391 OA 
HETATM    2  F   UNL     2      -6.517  13.827  67.222  1.00  0.00    -0.178 F  
HETATM    3  C   UNL     1      -8.973  16.331  66.142  1.00  0.00    -0.339 C  
HETATM    4  C   UNL     2      -7.668  13.141  67.336  1.00  0.00    -0.145 C  
HETATM    5  N   UNL     1      -9.439  15.326  65.333  1.00  0.00    -0.337 N  
HETATM    6  H   UNL     1      -8.867  15.042  64.538  1.00  0.00     0.000 HD 
HETATM    7  C   UNL     1     -10.629  14.687  65.535  1.00  0.00    -0.355 C  
HETATM    8  C   UNL     2      -8.024  12.197  66.468  1.00  0.00     0.152 C  
HETATM    9  C   UNL     1     -11.406  14.999  66.570  1.00  0.00    -0.280 C  
HETATM   10  N   UNL     2      -9.250  11.557  66.543  1.00  0.00    -0.189 N  
HETATM   11  O   UNL     2      -8.399  14.486  69.146  1.00  0.00    -0.110 OA 
HETATM   12  C   UNL     1     -10.964  16.052  67.503  1.00  0.00    -0.261 C  
HETATM   13  C   UNL     2     -10.162  11.856  67.551  1.00  0.00    -0.196 C  
HETATM   14  O   UNL     1     -11.628  16.325  68.496  1.00  0.00    -0.346 OA 
HETATM   15  N   UNL     1      -9.783  16.668  67.187  1.00  0.00    -0.245 N  
HETATM   16  H   UNL     1      -9.485  17.443  67.781  1.00  0.00     0.000 HD 
HETATM   17  O   UNL     2     -11.310  11.421  67.594  1.00  0.00    -0.272 OA 
HETATM   18  N   UNL     2      -9.722  12.746  68.505  1.00  0.00    -0.370 N  
HETATM   19  C   UNL     2      -8.593  13.519  68.417  1.00  0.00    -0.142 C  
HETATM   20  H   UNL     2     -10.286  12.839  69.350  1.00  0.00     0.000 HD 
ENDROOT
BRANCH  10  21
HETATM   21  C   UNL     2      -9.624  10.574  65.526  1.00  0.00    -0.230 C  
HETATM   22  C   UNL     2      -9.692  10.424  63.148  1.00  0.00    -0.301 C  
HETATM   23  C   UNL     2     -10.300  11.187  64.298  1.00  0.00    -0.413 C  
HETATM   24  C   UNL     2      -8.306  10.113  63.660  1.00  0.00    -0.170 C  
HETATM   25  O   UNL     2      -8.438   9.902  65.068  1.00  0.00    -0.136 OA 
ENDBRANCH  10  21
TORSDOF 1
ENDMDL
MODEL       41
REMARK 921   NORMALIZED FREE ENERGY PREDICTED BY IDOCK:   -4.92 KCAL/MOL
REMARK 922        TOTAL FREE ENERGY PREDICTED BY IDOCK:   -5.55 KCAL/MOL
REMARK 923 INTER-LIGAND FREE ENERGY PREDICTED BY IDOCK:   -5.22 KCAL/MOL
REMARK 924 INTRA-LIGAND FREE ENERGY PREDICTED BY IDOCK:   -0.33 KCAL/MOL
REMARK 927      BINDING AFFINITY PREDICTED BY RF-SCORE:    0.00 PKD
ROOT
HETATM    1  O   UNL     1      -7.121   8.229  67.446  1.00  0.00    -0.077 OA 
HETATM    2  F   UNL     2     -10.654   8.649  67.900  1.00  0.00    -0.265 F  
HETATM    3  C   UNL     1      -7.079   9.438  67.650  1.00  0.00    -0.082 C  
HETATM    4  C   UNL     2     -10.669   9.990  67.982  1.00  0.00    -0.256 C  
HETATM    5  N   UNL     1      -7.483  10.337  66.696  1.00  0.00    -0.106 N  
HETATM    6  H   UNL     1      -7.818   9.976  65.803  1.00  0.00     0.000 HD 
HETATM    7  C   UNL     1      -7.461  11.691  66.878  1.00  0.00    -0.131 C  
HETATM    8  C   UNL     2     -11.064  10.762  66.973  1.00  0.00    -0.174 C  
HETATM    9  C   UNL     1      -7.058  12.219  68.032  1.00  0.00    -0.099 C  
HETATM   10  N   UNL     2     -10.994  12.144  67.035  1.00  0.00    -0.257 N  
HETATM   11  O   UNL     2      -9.617   9.965  70.106  1.00  0.00    -0.245 OA 
HETATM   12  C   UNL     1      -6.630  11.319  69.118  1.00  0.00    -0.088 C  
HETATM   13  C   UNL     2     -10.527  12.795  68.174  1.00  0.00    -0.236 C  
HETATM   14  O   UNL     1      -6.306  11.769  70.211  1.00  0.00    -0.167 OA 
HETATM   15  N   UNL     1      -6.640   9.982  68.822  1.00  0.00    -0.049 N  
HETATM   16  H   UNL     1      -6.290   9.341  69.535  1.00  0.00     0.000 HD 
HETATM   17  O   UNL     2     -10.318  14.003  68.242  1.00  0.00    -0.234 OA 
HETATM   18  N   UNL     2     -10.239  11.981  69.246  1.00  0.00    -0.401 N  
HETATM   19  C   UNL     2     -10.147  10.612  69.211  1.00  0.00    -0.206 C  
HETATM   20  H   UNL     2     -10.079  12.435  70.146  1.00  0.00     0.000 HD 
ENDROOT
BRANCH  10  21
HETATM   21  C   UNL     2     -11.377  12.948  65.875  1.00  0.00    -0.312 C  
HETATM   22  C   UNL     2     -11.335  12.761  63.498  1.00  0.00    -0.480 C  
HETATM   23  C   UNL     2     -10.415  12.818  64.693  1.00  0.00    -0.373 C  
HETATM   24  C   UNL     2     -12.559  12.081  64.063  1.00  0.00    -0.359 C  
HETATM   25  O   UNL     2     -12.672  12.522  65.419  1.00  0.00    -0.624 OA 
ENDBRANCH  10  21
TORSDOF 1
ENDMDL
MODEL       42
REMARK 921   NORMALIZED FREE ENERGY PREDICTED BY IDOCK:   -4.90 KCAL/MOL
REMARK 922        TOTAL FREE ENERGY PREDICTED BY IDOCK:   -5.53 KCAL/MOL
REMARK 923 INTER-LIGAND FREE ENERGY PREDICTED BY IDOCK:   -5.23 KCAL/MOL
REMARK 924 INTRA-LIGAND FREE ENERGY PREDICTED BY IDOCK:   -0.30 KCAL/MOL
REMARK 927      BINDING AFFINITY PREDICTED BY RF-SCORE:    0.00 PKD
ROOT
HETATM    1  O   UNL     1     -11.485  10.664  70.583  1.00  0.00    -0.324 OA 
HETATM    2  F   UNL     2      -9.802  13.422  69.025  1.00  0.00    -0.119 F  
HETATM    3  C   UNL     1     -10.969  10.007  69.685  1.00  0.00    -0.264 C  
HETATM    4  C   UNL     2      -9.339  12.767  67.946  1.00  0.00    -0.208 C  
HETATM    5  N   UNL     1     -11.440  10.064  68.398  1.00  0.00    -0.528 N  
HETATM    6  H   UNL     1     -12.239  10.668  68.203  1.00  0.00     0.000 HD 
HETATM    7  C   UNL     1     -10.897   9.356  67.364  1.00  0.00    -0.119 C  
HETATM    8  C   UNL     2      -9.899  12.888  66.745  1.00  0.00    -0.241 C  
HETATM    9  C   UNL     1      -9.839   8.571  67.554  1.00  0.00    -0.231 C  
HETATM   10  N   UNL     2      -9.472  12.144  65.657  1.00  0.00    -0.166 N  
HETATM   11  O   UNL     2      -7.777  11.543  69.242  1.00  0.00    -0.034 OA 
HETATM   12  C   UNL     1      -9.257   8.473  68.905  1.00  0.00    -0.146 C  
HETATM   13  C   UNL     2      -8.413  11.247  65.766  1.00  0.00    -0.018 C  
HETATM   14  O   UNL     1      -8.249   7.804  69.103  1.00  0.00    -0.126 OA 
HETATM   15  N   UNL     1      -9.902   9.180  69.884  1.00  0.00    -0.180 N  
HETATM   16  H   UNL     1      -9.557   9.080  70.839  1.00  0.00     0.000 HD 
HETATM   17  O   UNL     2      -8.076  10.467  64.880  1.00  0.00    -0.157 OA 
HETATM   18  N   UNL     2      -7.773  11.228  66.985  1.00  0.00    -0.140 N  
HETATM   19  C   UNL     2      -8.226  11.823  68.136  1.00  0.00    -0.153 C  
HETATM   20  H   UNL     2      -6.885  10.729  67.037  1.00  0.00     0.000 HD 
ENDROOT
BRANCH  10  21
HETATM   21  C   UNL     2     -10.163  12.262  64.374  1.00  0.00    -0.314 C  
HETATM   22  C   UNL     2     -12.402  12.213  63.556  1.00  0.00    -0.682 C  
HETATM   23  C   UNL     2     -11.379  11.342  64.243  1.00  0.00    -0.244 C  
HETATM   24  C   UNL     2     -12.053  13.590  64.067  1.00  0.00    -0.441 C  
HETATM   25  O   UNL     2     -10.632  13.612  64.219  1.00  0.00    -0.394 OA 
ENDBRANCH  10  21
TORSDOF 1
ENDMDL
MODEL       43
REMARK 921   NORMALIZED FREE ENERGY PREDICTED BY IDOCK:   -4.87 KCAL/MOL
REMARK 922        TOTAL FREE ENERGY PREDICTED BY IDOCK:   -5.50 KCAL/MOL
REMARK 923 INTER-LIGAND FREE ENERGY PREDICTED BY IDOCK:   -5.17 KCAL/MOL
REMARK 924 INTRA-LIGAND FREE ENERGY PREDICTED BY IDOCK:   -0.33 KCAL/MOL
REMARK 927      BINDING AFFINITY PREDICTED BY RF-SCORE:    0.00 PKD
ROOT
HETATM    1  O   UNL     1     -10.308   6.801  73.727  1.00  0.00    -0.306 OA 
HETATM    2  F   UNL     2      -8.418   6.085  70.763  1.00  0.00    -0.121 F  
HETATM    3  C   UNL     1     -11.000   7.474  72.970  1.00  0.00    -0.390 C  
HETATM    4  C   UNL     2      -9.060   6.923  69.931  1.00  0.00    -0.144 C  
HETATM    5  N   UNL     1     -10.566   8.684  72.492  1.00  0.00    -0.240 N  
HETATM    6  H   UNL     1      -9.648   9.018  72.785  1.00  0.00     0.000 HD 
HETATM    7  C   UNL     1     -11.297   9.466  71.644  1.00  0.00    -0.382 C  
HETATM    8  C   UNL     2      -8.542   8.089  69.554  1.00  0.00    -0.136 C  
HETATM    9  C   UNL     1     -12.491   9.071  71.208  1.00  0.00    -0.346 C  
HETATM   10  N   UNL     2      -9.246   8.986  68.767  1.00  0.00    -0.133 N  
HETATM   11  O   UNL     2     -11.016   5.585  69.940  1.00  0.00    -0.309 OA 
HETATM   12  C   UNL     1     -13.020   7.770  71.655  1.00  0.00    -0.345 C  
HETATM   13  C   UNL     2     -10.528   8.695  68.310  1.00  0.00    -0.184 C  
HETATM   14  O   UNL     1     -14.090   7.351  71.229  1.00  0.00    -0.396 OA 
HETATM   15  N   UNL     1     -12.236   7.083  72.544  1.00  0.00    -0.499 N  
HETATM   16  H   UNL     1     -12.607   6.209  72.918  1.00  0.00     0.000 HD 
HETATM   17  O   UNL     2     -11.250   9.498  67.724  1.00  0.00    -0.091 OA 
HETATM   18  N   UNL     2     -10.995   7.436  68.612  1.00  0.00    -0.437 N  
HETATM   19  C   UNL     2     -10.420   6.560  69.498  1.00  0.00    -0.222 C  
HETATM   20  H   UNL     2     -11.842   7.126  68.135  1.00  0.00     0.000 HD 
ENDROOT
BRANCH  10  21
HETATM   21  C   UNL     2      -8.660  10.284  68.435  1.00  0.00    -0.125 C  
HETATM   22  C   UNL     2      -6.513  11.321  68.475  1.00  0.00    -0.051 C  
HETATM   23  C   UNL     2      -7.550  10.721  69.393  1.00  0.00    -0.114 C  
HETATM   24  C   UNL     2      -6.688  10.512  67.213  1.00  0.00    -0.077 C  
HETATM   25  O   UNL     2      -8.083  10.213  67.119  1.00  0.00    -0.119 OA 
ENDBRANCH  10  21
TORSDOF 1
ENDMDL
MODEL       44
REMARK 921   NORMALIZED FREE ENERGY PREDICTED BY IDOCK:   -4.87 KCAL/MOL
REMARK 922        TOTAL FREE ENERGY PREDICTED BY IDOCK:   -5.49 KCAL/MOL
REMARK 923 INTER-LIGAND FREE ENERGY PREDICTED BY IDOCK:   -5.17 KCAL/MOL
REMARK 924 INTRA-LIGAND FREE ENERGY PREDICTED BY IDOCK:   -0.32 KCAL/MOL
REMARK 927      BINDING AFFINITY PREDICTED BY RF-SCORE:    0.00 PKD
ROOT
HETATM    1  O   UNL     1     -10.900  15.278  70.960  1.00  0.00    -0.295 OA 
HETATM    2  F   UNL     2      -7.378  14.838  70.445  1.00  0.00    -0.075 F  
HETATM    3  C   UNL     1     -10.886  15.706  69.811  1.00  0.00    -0.308 C  
HETATM    4  C   UNL     2      -7.294  15.434  69.243  1.00  0.00    -0.197 C  
HETATM    5  N   UNL     1     -10.384  16.949  69.519  1.00  0.00    -0.241 N  
HETATM    6  H   UNL     1     -10.023  17.516  70.287  1.00  0.00     0.000 HD 
HETATM    7  C   UNL     1     -10.342  17.469  68.257  1.00  0.00    -0.379 C  
HETATM    8  C   UNL     2      -6.805  16.662  69.089  1.00  0.00    -0.224 C  
HETATM    9  C   UNL     1     -10.776  16.765  67.213  1.00  0.00    -0.213 C  
HETATM   10  N   UNL     2      -6.802  17.302  67.860  1.00  0.00    -0.159 N  
HETATM   11  O   UNL     2      -8.455  13.663  68.178  1.00  0.00    -0.159 OA 
HETATM   12  C   UNL     1     -11.308  15.408  67.439  1.00  0.00    -0.243 C  
HETATM   13  C   UNL     2      -7.292  16.677  66.717  1.00  0.00    -0.248 C  
HETATM   14  O   UNL     1     -11.663  14.712  66.495  1.00  0.00    -0.369 OA 
HETATM   15  N   UNL     1     -11.356  14.997  68.744  1.00  0.00    -0.275 N  
HETATM   16  H   UNL     1     -11.777  14.088  68.934  1.00  0.00     0.000 HD 
HETATM   17  O   UNL     2      -7.438  17.236  65.634  1.00  0.00    -0.336 OA 
HETATM   18  N   UNL     2      -7.680  15.365  66.878  1.00  0.00    -0.253 N  
HETATM   19  C   UNL     2      -7.845  14.721  68.078  1.00  0.00    -0.130 C  
HETATM   20  H   UNL     2      -7.861  14.827  66.031  1.00  0.00     0.000 HD 
ENDROOT
BRANCH  10  21
HETATM   21  C   UNL     2      -6.316  18.677  67.754  1.00  0.00    -0.202 C  
HETATM   22  C   UNL     2      -6.460  20.708  68.995  1.00  0.00    -0.136 C  
HETATM   23  C   UNL     2      -7.320  19.724  68.241  1.00  0.00    -0.349 C  
HETATM   24  C   UNL     2      -5.362  19.828  69.541  1.00  0.00    -0.204 C  
HETATM   25  O   UNL     2      -5.132  18.817  68.558  1.00  0.00    -0.179 OA 
ENDBRANCH  10  21
TORSDOF 1
ENDMDL
MODEL       45
REMARK 921   NORMALIZED FREE ENERGY PREDICTED BY IDOCK:   -4.86 KCAL/MOL
REMARK 922        TOTAL FREE ENERGY PREDICTED BY IDOCK:   -5.48 KCAL/MOL
REMARK 923 INTER-LIGAND FREE ENERGY PREDICTED BY IDOCK:   -5.16 KCAL/MOL
REMARK 924 INTRA-LIGAND FREE ENERGY PREDICTED BY IDOCK:   -0.33 KCAL/MOL
REMARK 927      BINDING AFFINITY PREDICTED BY RF-SCORE:    0.00 PKD
ROOT
HETATM    1  O   UNL     1     -10.196  13.132  64.239  1.00  0.00    -0.400 OA 
HETATM    2  F   UNL     2      -7.726  10.871  65.523  1.00  0.00    -0.144 F  
HETATM    3  C   UNL     1     -10.677  13.045  65.364  1.00  0.00    -0.291 C  
HETATM    4  C   UNL     2      -8.299  10.633  66.716  1.00  0.00    -0.132 C  
HETATM    5  N   UNL     1     -11.358  11.923  65.764  1.00  0.00    -0.324 N  
HETATM    6  H   UNL     1     -11.459  11.157  65.098  1.00  0.00     0.000 HD 
HETATM    7  C   UNL     1     -11.906  11.776  67.006  1.00  0.00    -0.044 C  
HETATM    8  C   UNL     2      -8.956   9.507  66.979  1.00  0.00    -0.134 C  
HETATM    9  C   UNL     1     -11.784  12.732  67.925  1.00  0.00    -0.408 C  
HETATM   10  N   UNL     2      -9.618   9.306  68.179  1.00  0.00    -0.141 N  
HETATM   11  O   UNL     2      -7.816  12.821  67.489  1.00  0.00    -0.148 OA 
HETATM   12  C   UNL     1     -11.045  13.961  67.582  1.00  0.00    -0.277 C  
HETATM   13  C   UNL     2      -9.605  10.271  69.183  1.00  0.00    -0.218 C  
HETATM   14  O   UNL     1     -10.866  14.837  68.421  1.00  0.00    -0.234 OA 
HETATM   15  N   UNL     1     -10.577  14.035  66.298  1.00  0.00    -0.279 N  
HETATM   16  H   UNL     1     -10.116  14.901  66.016  1.00  0.00     0.000 HD 
HETATM   17  O   UNL     2     -10.277  10.209  70.209  1.00  0.00    -0.247 OA 
HETATM   18  N   UNL     2      -8.819  11.374  68.935  1.00  0.00    -0.364 N  
HETATM   19  C   UNL     2      -8.260  11.704  67.726  1.00  0.00    -0.141 C  
HETATM   20  H   UNL     2      -8.638  12.002  69.719  1.00  0.00     0.000 HD 
ENDROOT
BRANCH  10  21
HETATM   21  C   UNL     2     -10.383   8.079  68.395  1.00  0.00    -0.199 C  
HETATM   22  C   UNL     2     -10.555   5.905  67.432  1.00  0.00    -0.356 C  
HETATM   23  C   UNL     2     -10.773   7.361  67.102  1.00  0.00    -0.400 C  
HETATM   24  C   UNL     2      -9.410   5.961  68.413  1.00  0.00    -0.120 C  
HETATM   25  O   UNL     2      -9.588   7.163  69.168  1.00  0.00    -0.154 OA 
ENDBRANCH  10  21
TORSDOF 1
ENDMDL
MODEL       46
REMARK 921   NORMALIZED FREE ENERGY PREDICTED BY IDOCK:   -4.85 KCAL/MOL
REMARK 922        TOTAL FREE ENERGY PREDICTED BY IDOCK:   -5.47 KCAL/MOL
REMARK 923 INTER-LIGAND FREE ENERGY PREDICTED BY IDOCK:   -5.19 KCAL/MOL
REMARK 924 INTRA-LIGAND FREE ENERGY PREDICTED BY IDOCK:   -0.28 KCAL/MOL
REMARK 927      BINDING AFFINITY PREDICTED BY RF-SCORE:    0.00 PKD
ROOT
HETATM    1  O   UNL     1     -10.013   8.796  65.960  1.00  0.00    -0.256 OA 
HETATM    2  F   UNL     2     -11.231   5.865  67.630  1.00  0.00    -0.354 F  
HETATM    3  C   UNL     1      -9.509   9.053  67.048  1.00  0.00    -0.163 C  
HETATM    4  C   UNL     2     -10.821   6.179  68.871  1.00  0.00    -0.340 C  
HETATM    5  N   UNL     1     -10.269   9.500  68.099  1.00  0.00    -0.183 N  
HETATM    6  H   UNL     1     -11.272   9.619  67.953  1.00  0.00     0.000 HD 
HETATM    7  C   UNL     1      -9.756   9.793  69.330  1.00  0.00    -0.202 C  
HETATM    8  C   UNL     2     -11.656   6.628  69.805  1.00  0.00    -0.293 C  
HETATM    9  C   UNL     1      -8.459   9.632  69.586  1.00  0.00    -0.181 C  
HETATM   10  N   UNL     2     -11.213   7.032  71.054  1.00  0.00    -0.263 N  
HETATM   11  O   UNL     2      -8.543   5.853  68.304  1.00  0.00    -0.114 OA 
HETATM   12  C   UNL     1      -7.577   9.132  68.517  1.00  0.00    -0.085 C  
HETATM   13  C   UNL     2      -9.866   6.964  71.400  1.00  0.00    -0.178 C  
HETATM   14  O   UNL     1      -6.390   8.920  68.735  1.00  0.00    -0.048 OA 
HETATM   15  N   UNL     1      -8.176   8.916  67.304  1.00  0.00    -0.104 N  
HETATM   16  H   UNL     1      -7.576   8.629  66.530  1.00  0.00     0.000 HD 
HETATM   17  O   UNL     2      -9.396   7.427  72.435  1.00  0.00    -0.139 OA 
HETATM   18  N   UNL     2      -9.041   6.385  70.462  1.00  0.00    -0.154 N  
HETATM   19  C   UNL     2      -9.381   6.099  69.164  1.00  0.00    -0.126 C  
HETATM   20  H   UNL     2      -8.094   6.148  70.759  1.00  0.00     0.000 HD 
ENDROOT
BRANCH  10  21
HETATM   21  C   UNL     2     -12.160   7.581  72.023  1.00  0.00    -0.291 C  
HETATM   22  C   UNL     2     -13.812   9.299  72.109  1.00  0.00    -0.478 C  
HETATM   23  C   UNL     2     -12.327   9.099  71.928  1.00  0.00    -0.455 C  
HETATM   24  C   UNL     2     -14.385   8.040  71.504  1.00  0.00    -0.434 C  
HETATM   25  O   UNL     2     -13.454   6.996  71.795  1.00  0.00    -0.349 OA 
ENDBRANCH  10  21
TORSDOF 1
ENDMDL
MODEL       47
REMARK 921   NORMALIZED FREE ENERGY PREDICTED BY IDOCK:   -4.84 KCAL/MOL
REMARK 922        TOTAL FREE ENERGY PREDICTED BY IDOCK:   -5.46 KCAL/MOL
REMARK 923 INTER-LIGAND FREE ENERGY PREDICTED BY IDOCK:   -5.23 KCAL/MOL
REMARK 924 INTRA-LIGAND FREE ENERGY PREDICTED BY IDOCK:   -0.24 KCAL/MOL
REMARK 927      BINDING AFFINITY PREDICTED BY RF-SCORE:    0.00 PKD
ROOT
HETATM    1  O   UNL     1     -11.014  18.490  65.315  1.00  0.00    -0.551 OA 
HETATM    2  F   UNL     2     -11.903  15.092  66.037  1.00  0.00    -0.304 F  
HETATM    3  C   UNL     1     -10.319  18.390  66.320  1.00  0.00    -0.415 C  
HETATM    4  C   UNL     2     -11.272  14.986  67.220  1.00  0.00    -0.338 C  
HETATM    5  N   UNL     1     -10.873  18.398  67.575  1.00  0.00    -0.357 N  
HETATM    6  H   UNL     1     -11.885  18.495  67.655  1.00  0.00     0.000 HD 
HETATM    7  C   UNL     1     -10.142  18.283  68.723  1.00  0.00    -0.370 C  
HETATM    8  C   UNL     2     -11.922  15.032  68.381  1.00  0.00    -0.200 C  
HETATM    9  C   UNL     1      -8.821  18.128  68.680  1.00  0.00    -0.277 C  
HETATM   10  N   UNL     2     -11.257  15.010  69.596  1.00  0.00    -0.261 N  
HETATM   11  O   UNL     2      -9.137  15.022  66.192  1.00  0.00    -0.280 OA 
HETATM   12  C   UNL     1      -8.150  18.084  67.368  1.00  0.00    -0.222 C  
HETATM   13  C   UNL     2      -9.870  14.914  69.659  1.00  0.00     0.006 C  
HETATM   14  O   UNL     1      -6.943  17.887  67.290  1.00  0.00    -0.180 OA 
HETATM   15  N   UNL     1      -8.961  18.259  66.279  1.00  0.00    -0.232 N  
HETATM   16  H   UNL     1      -8.514  18.295  65.362  1.00  0.00     0.000 HD 
HETATM   17  O   UNL     2      -9.217  15.023  70.694  1.00  0.00     0.829 OA 
HETATM   18  N   UNL     2      -9.230  14.747  68.451  1.00  0.00    -0.184 N  
HETATM   19  C   UNL     2      -9.802  14.903  67.214  1.00  0.00    -0.229 C  
HETATM   20  H   UNL     2      -8.245  14.485  68.479  1.00  0.00     0.000 HD 
ENDROOT
BRANCH  10  21
HETATM   21  C   UNL     2     -12.010  15.130  70.843  1.00  0.00    -0.328 C  
HETATM   22  C   UNL     2     -14.183  14.586  71.661  1.00  0.00    -0.554 C  
HETATM   23  C   UNL     2     -13.491  15.455  70.639  1.00  0.00    -0.213 C  
HETATM   24  C   UNL     2     -13.270  13.386  71.739  1.00  0.00    -0.407 C  
HETATM   25  O   UNL     2     -11.942  13.881  71.552  1.00  0.00    -0.159 OA 
ENDBRANCH  10  21
TORSDOF 1
ENDMDL
MODEL       48
REMARK 921   NORMALIZED FREE ENERGY PREDICTED BY IDOCK:   -4.81 KCAL/MOL
REMARK 922        TOTAL FREE ENERGY PREDICTED BY IDOCK:   -5.43 KCAL/MOL
REMARK 923 INTER-LIGAND FREE ENERGY PREDICTED BY IDOCK:   -5.10 KCAL/MOL
REMARK 924 INTRA-LIGAND FREE ENERGY PREDICTED BY IDOCK:   -0.34 KCAL/MOL
REMARK 927      BINDING AFFINITY PREDICTED BY RF-SCORE:    0.00 PKD
ROOT
HETATM    1  O   UNL     1      -7.371   5.621  70.722  1.00  0.00    -0.078 OA 
HETATM    2  F   UNL     2      -9.985   6.376  68.386  1.00  0.00    -0.131 F  
HETATM    3  C   UNL     1      -8.011   6.343  71.479  1.00  0.00    -0.105 C  
HETATM    4  C   UNL     2     -10.637   7.286  69.130  1.00  0.00    -0.208 C  
HETATM    5  N   UNL     1      -8.012   7.707  71.333  1.00  0.00    -0.092 N  
HETATM    6  H   UNL     1      -7.459   8.112  70.577  1.00  0.00     0.000 HD 
HETATM    7  C   UNL     1      -8.712   8.552  72.145  1.00  0.00    -0.197 C  
HETATM    8  C   UNL     2     -10.539   8.594  68.903  1.00  0.00    -0.144 C  
HETATM    9  C   UNL     1      -9.470   8.080  73.132  1.00  0.00    -0.349 C  
HETATM   10  N   UNL     2     -11.144   9.529  69.727  1.00  0.00    -0.221 N  
HETATM   11  O   UNL     2     -11.410   5.634  70.644  1.00  0.00    -0.141 OA 
HETATM   12  C   UNL     1      -9.544   6.622  73.341  1.00  0.00    -0.163 C  
HETATM   13  C   UNL     2     -11.907   9.140  70.824  1.00  0.00    -0.227 C  
HETATM   14  O   UNL     1     -10.276   6.151  74.204  1.00  0.00    -0.258 OA 
HETATM   15  N   UNL     1      -8.767   5.862  72.508  1.00  0.00    -0.124 N  
HETATM   16  H   UNL     1      -8.751   4.855  72.671  1.00  0.00     0.000 HD 
HETATM   17  O   UNL     2     -12.355   9.917  71.663  1.00  0.00    -0.372 OA 
HETATM   18  N   UNL     2     -12.093   7.783  70.967  1.00  0.00    -0.423 N  
HETATM   19  C   UNL     2     -11.415   6.806  70.284  1.00  0.00    -0.360 C  
HETATM   20  H   UNL     2     -12.796   7.478  71.641  1.00  0.00     0.000 HD 
ENDROOT
BRANCH  10  21
HETATM   21  C   UNL     2     -10.952  10.957  69.476  1.00  0.00    -0.253 C  
HETATM   22  C   UNL     2     -10.118  12.353  67.733  1.00  0.00    -0.203 C  
HETATM   23  C   UNL     2      -9.676  11.278  68.695  1.00  0.00    -0.200 C  
HETATM   24  C   UNL     2     -11.560  11.987  67.477  1.00  0.00    -0.330 C  
HETATM   25  O   UNL     2     -12.060  11.447  68.702  1.00  0.00    -0.518 OA 
ENDBRANCH  10  21
TORSDOF 1
ENDMDL
MODEL       49
REMARK 921   NORMALIZED FREE ENERGY PREDICTED BY IDOCK:   -4.80 KCAL/MOL
REMARK 922        TOTAL FREE ENERGY PREDICTED BY IDOCK:   -5.42 KCAL/MOL
REMARK 923 INTER-LIGAND FREE ENERGY PREDICTED BY IDOCK:   -6.09 KCAL/MOL
REMARK 924 INTRA-LIGAND FREE ENERGY PREDICTED BY IDOCK:    0.67 KCAL/MOL
REMARK 927      BINDING AFFINITY PREDICTED BY RF-SCORE:    0.00 PKD
ROOT
HETATM    1  O   UNL     1      -6.750  17.362  68.299  1.00  0.00    -0.173 OA 
HETATM    2  F   UNL     2      -8.114  14.199  69.299  1.00  0.00    -0.073 F  
HETATM    3  C   UNL     1      -7.813  17.488  67.699  1.00  0.00    -0.201 C  
HETATM    4  C   UNL     2      -9.225  14.232  68.542  1.00  0.00    -0.197 C  
HETATM    5  N   UNL     1      -8.066  16.797  66.541  1.00  0.00    -0.264 N  
HETATM    6  H   UNL     1      -7.342  16.174  66.184  1.00  0.00     0.000 HD 
HETATM    7  C   UNL     1      -9.234  16.899  65.842  1.00  0.00    -0.077 C  
HETATM    8  C   UNL     2      -9.343  13.529  67.419  1.00  0.00    -0.228 C  
HETATM    9  C   UNL     1     -10.224  17.678  66.274  1.00  0.00    -0.362 C  
HETATM   10  N   UNL     2     -10.455  13.636  66.600  1.00  0.00    -0.270 N  
HETATM   11  O   UNL     2     -10.191  15.942  69.869  1.00  0.00    -0.273 OA 
HETATM   12  C   UNL     1     -10.041  18.435  67.525  1.00  0.00    -0.357 C  
HETATM   13  C   UNL     2     -11.519  14.471  66.929  1.00  0.00    -0.364 C  
HETATM   14  O   UNL     1     -10.952  19.118  67.981  1.00  0.00    -0.225 OA 
HETATM   15  N   UNL     1      -8.818  18.307  68.126  1.00  0.00    -0.287 N  
HETATM   16  H   UNL     1      -8.643  18.869  68.960  1.00  0.00     0.000 HD 
HETATM   17  O   UNL     2     -12.467  14.708  66.185  1.00  0.00    -0.222 OA 
HETATM   18  N   UNL     2     -11.427  15.095  68.153  1.00  0.00    -0.333 N  
HETATM   19  C   UNL     2     -10.305  15.149  68.941  1.00  0.00    -0.243 C  
HETATM   20  H   UNL     2     -12.266  15.556  68.505  1.00  0.00     0.000 HD 
ENDROOT
BRANCH  10  21
HETATM   21  C   UNL     2     -10.510  12.894  65.341  1.00  0.00    -0.292 C  
HETATM   22  C   UNL     2     -12.170  11.991  63.886  1.00  0.00    -0.555 C  
HETATM   23  C   UNL     2     -11.630  11.853  65.288  1.00  0.00    -0.278 C  
HETATM   24  C   UNL     2     -11.949  13.456  63.596  1.00  0.00    -0.446 C  
HETATM   25  O   UNL     2     -10.738  13.819  64.264  1.00  0.00    -0.372 OA 
ENDBRANCH  10  21
TORSDOF 1
ENDMDL
MODEL       50
REMARK 921   NORMALIZED FREE ENERGY PREDICTED BY IDOCK:   -4.79 KCAL/MOL
REMARK 922        TOTAL FREE ENERGY PREDICTED BY IDOCK:   -5.41 KCAL/MOL
REMARK 923 INTER-LIGAND FREE ENERGY PREDICTED BY IDOCK:   -5.07 KCAL/MOL
REMARK 924 INTRA-LIGAND FREE ENERGY PREDICTED BY IDOCK:   -0.34 KCAL/MOL
REMARK 927      BINDING AFFINITY PREDICTED BY RF-SCORE:    0.00 PKD
ROOT
HETATM    1  O   UNL     1      -6.505   9.878  65.269  1.00  0.00    -0.087 OA 
HETATM    2  F   UNL     2      -6.780  11.219  68.584  1.00  0.00    -0.058 F  
HETATM    3  C   UNL     1      -7.720  10.042  65.238  1.00  0.00    -0.139 C  
HETATM    4  C   UNL     2      -8.122  11.278  68.646  1.00  0.00    -0.145 C  
HETATM    5  N   UNL     1      -8.571   9.208  65.919  1.00  0.00    -0.143 N  
HETATM    6  H   UNL     1      -8.166   8.438  66.452  1.00  0.00     0.000 HD 
HETATM    7  C   UNL     1      -9.928   9.352  65.920  1.00  0.00    -0.256 C  
HETATM    8  C   UNL     2      -8.843  10.390  69.326  1.00  0.00    -0.154 C  
HETATM    9  C   UNL     1     -10.510  10.353  65.262  1.00  0.00    -0.178 C  
HETATM   10  N   UNL     2     -10.228  10.406  69.313  1.00  0.00    -0.218 N  
HETATM   11  O   UNL     2      -8.210  13.059  67.085  1.00  0.00    -0.177 OA 
HETATM   12  C   UNL     1      -9.665  11.309  64.525  1.00  0.00    -0.253 C  
HETATM   13  C   UNL     2     -10.934  11.373  68.603  1.00  0.00    -0.220 C  
HETATM   14  O   UNL     1     -10.163  12.273  63.955  1.00  0.00    -0.366 OA 
HETATM   15  N   UNL     1      -8.320  11.051  64.541  1.00  0.00    -0.364 N  
HETATM   16  H   UNL     1      -7.718  11.661  63.988  1.00  0.00     0.000 HD 
HETATM   17  O   UNL     2     -12.152  11.362  68.446  1.00  0.00    -0.575 OA 
HETATM   18  N   UNL     2     -10.168  12.350  68.009  1.00  0.00    -0.213 N  
HETATM   19  C   UNL     2      -8.805  12.318  67.859  1.00  0.00    -0.178 C  
HETATM   20  H   UNL     2     -10.657  13.170  67.647  1.00  0.00     0.000 HD 
ENDROOT
BRANCH  10  21
HETATM   21  C   UNL     2     -10.978   9.369  70.021  1.00  0.00    -0.239 C  
HETATM   22  C   UNL     2     -10.553   7.247  71.021  1.00  0.00    -0.235 C  
HETATM   23  C   UNL     2     -10.527   7.946  69.684  1.00  0.00    -0.226 C  
HETATM   24  C   UNL     2     -10.213   8.363  71.979  1.00  0.00    -0.294 C  
HETATM   25  O   UNL     2     -10.799   9.548  71.437  1.00  0.00    -0.347 OA 
ENDBRANCH  10  21
TORSDOF 1
ENDMDL
MODEL       51
REMARK 921   NORMALIZED FREE ENERGY PREDICTED BY IDOCK:   -4.77 KCAL/MOL
REMARK 922        TOTAL FREE ENERGY PREDICTED BY IDOCK:   -5.39 KCAL/MOL
REMARK 923 INTER-LIGAND FREE ENERGY PREDICTED BY IDOCK:   -5.06 KCAL/MOL
REMARK 924 INTRA-LIGAND FREE ENERGY PREDICTED BY IDOCK:   -0.34 KCAL/MOL
REMARK 927      BINDING AFFINITY PREDICTED BY RF-SCORE:    0.00 PKD
ROOT
HETATM    1  O   UNL     1      -9.438   4.997  72.535  1.00  0.00    -0.140 OA 
HETATM    2  F   UNL     2      -8.439   8.441  72.504  1.00  0.00    -0.198 F  
HETATM    3  C   UNL     1      -9.885   5.247  71.421  1.00  0.00    -0.174 C  
HETATM    4  C   UNL     2      -9.040   8.795  71.355  1.00  0.00    -0.243 C  
HETATM    5  N   UNL     1     -11.035   5.978  71.261  1.00  0.00    -0.274 N  
HETATM    6  H   UNL     1     -11.518   6.307  72.097  1.00  0.00     0.000 HD 
HETATM    7  C   UNL     1     -11.569   6.287  70.043  1.00  0.00    -0.308 C  
HETATM    8  C   UNL     2     -10.175   9.490  71.328  1.00  0.00    -0.175 C  
HETATM    9  C   UNL     1     -10.970   5.906  68.917  1.00  0.00    -0.337 C  
HETATM   10  N   UNL     2     -10.834   9.775  70.144  1.00  0.00    -0.268 N  
HETATM   11  O   UNL     2      -7.508   7.537  70.055  1.00  0.00    -0.079 OA 
HETATM   12  C   UNL     1      -9.714   5.138  69.001  1.00  0.00    -0.161 C  
HETATM   13  C   UNL     2     -10.324   9.366  68.915  1.00  0.00    -0.213 C  
HETATM   14  O   UNL     1      -9.108   4.819  67.985  1.00  0.00    -0.109 OA 
HETATM   15  N   UNL     1      -9.287   4.833  70.266  1.00  0.00    -0.138 N  
HETATM   16  H   UNL     1      -8.455   4.249  70.352  1.00  0.00     0.000 HD 
HETATM   17  O   UNL     2     -10.924   9.471  67.849  1.00  0.00    -0.229 OA 
HETATM   18  N   UNL     2      -9.090   8.755  68.959  1.00  0.00    -0.141 N  
HETATM   19  C   UNL     2      -8.454   8.315  70.092  1.00  0.00    -0.126 C  
HETATM   20  H   UNL     2      -8.608   8.617  68.070  1.00  0.00     0.000 HD 
ENDROOT
BRANCH  10  21
HETATM   21  C   UNL     2     -12.113  10.484  70.172  1.00  0.00    -0.300 C  
HETATM   22  C   UNL     2     -13.407  11.744  71.728  1.00  0.00    -0.342 C  
HETATM   23  C   UNL     2     -12.858  10.357  71.502  1.00  0.00    -0.569 C  
HETATM   24  C   UNL     2     -12.363  12.617  71.075  1.00  0.00    -0.211 C  
HETATM   25  O   UNL     2     -11.875  11.884  69.949  1.00  0.00    -0.319 OA 
ENDBRANCH  10  21
TORSDOF 1
ENDMDL
MODEL       52
REMARK 921   NORMALIZED FREE ENERGY PREDICTED BY IDOCK:   -4.76 KCAL/MOL
REMARK 922        TOTAL FREE ENERGY PREDICTED BY IDOCK:   -5.38 KCAL/MOL
REMARK 923 INTER-LIGAND FREE ENERGY PREDICTED BY IDOCK:   -5.05 KCAL/MOL
REMARK 924 INTRA-LIGAND FREE ENERGY PREDICTED BY IDOCK:   -0.33 KCAL/MOL
REMARK 927      BINDING AFFINITY PREDICTED BY RF-SCORE:    0.00 PKD
ROOT
HETATM    1  O   UNL     1      -7.915   6.491  67.230  1.00  0.00    -0.110 OA 
HETATM    2  F   UNL     2     -11.300   5.946  68.284  1.00  0.00    -0.340 F  
HETATM    3  C   UNL     1      -7.682   6.542  68.433  1.00  0.00    -0.105 C  
HETATM    4  C   UNL     2     -11.114   6.141  69.601  1.00  0.00    -0.419 C  
HETATM    5  N   UNL     1      -8.031   7.638  69.181  1.00  0.00    -0.118 N  
HETATM    6  H   UNL     1      -8.488   8.419  68.709  1.00  0.00     0.000 HD 
HETATM    7  C   UNL     1      -7.798   7.741  70.522  1.00  0.00    -0.096 C  
HETATM    8  C   UNL     2     -11.477   7.265  70.214  1.00  0.00    -0.210 C  
HETATM    9  C   UNL     1      -7.227   6.744  71.195  1.00  0.00    -0.077 C  
HETATM   10  N   UNL     2     -11.203   7.494  71.552  1.00  0.00    -0.240 N  
HETATM   11  O   UNL     2      -9.902   4.116  69.825  1.00  0.00    -0.215 OA 
HETATM   12  C   UNL     1      -6.845   5.519  70.469  1.00  0.00    -0.049 C  
HETATM   13  C   UNL     2     -10.553   6.540  72.330  1.00  0.00    -0.215 C  
HETATM   14  O   UNL     1      -6.368   4.561  71.067  1.00  0.00    -0.018 OA 
HETATM   15  N   UNL     1      -7.072   5.533  69.119  1.00  0.00    -0.063 N  
HETATM   16  H   UNL     1      -6.760   4.723  68.582  1.00  0.00     0.000 HD 
HETATM   17  O   UNL     2     -10.166   6.733  73.479  1.00  0.00    -0.230 OA 
HETATM   18  N   UNL     2     -10.296   5.339  71.706  1.00  0.00    -0.209 N  
HETATM   19  C   UNL     2     -10.406   5.097  70.360  1.00  0.00    -0.256 C  
HETATM   20  H   UNL     2      -9.998   4.563  72.297  1.00  0.00     0.000 HD 
ENDROOT
BRANCH  10  21
HETATM   21  C   UNL     2     -11.562   8.772  72.164  1.00  0.00    -0.364 C  
HETATM   22  C   UNL     2     -12.947  10.648  71.666  1.00  0.00    -0.582 C  
HETATM   23  C   UNL     2     -11.734   9.910  71.155  1.00  0.00    -0.478 C  
HETATM   24  C   UNL     2     -13.756   9.544  72.301  1.00  0.00    -0.371 C  
HETATM   25  O   UNL     2     -12.813   8.624  72.856  1.00  0.00    -0.284 OA 
ENDBRANCH  10  21
TORSDOF 1
ENDMDL
MODEL       53
REMARK 921   NORMALIZED FREE ENERGY PREDICTED BY IDOCK:   -4.76 KCAL/MOL
REMARK 922        TOTAL FREE ENERGY PREDICTED BY IDOCK:   -5.38 KCAL/MOL
REMARK 923 INTER-LIGAND FREE ENERGY PREDICTED BY IDOCK:   -5.04 KCAL/MOL
REMARK 924 INTRA-LIGAND FREE ENERGY PREDICTED BY IDOCK:   -0.34 KCAL/MOL
REMARK 927      BINDING AFFINITY PREDICTED BY RF-SCORE:    0.00 PKD
ROOT
HETATM    1  O   UNL     1     -11.767   5.955  72.133  1.00  0.00    -0.294 OA 
HETATM    2  F   UNL     2      -9.855   8.981  72.364  1.00  0.00    -0.351 F  
HETATM    3  C   UNL     1     -11.283   5.885  71.008  1.00  0.00    -0.210 C  
HETATM    4  C   UNL     2      -9.421   9.020  71.093  1.00  0.00    -0.278 C  
HETATM    5  N   UNL     1     -11.723   6.694  69.990  1.00  0.00    -0.610 N  
HETATM    6  H   UNL     1     -12.471   7.358  70.191  1.00  0.00     0.000 HD 
HETATM    7  C   UNL     1     -11.213   6.658  68.724  1.00  0.00    -0.178 C  
HETATM    8  C   UNL     2      -9.946   9.838  70.184  1.00  0.00    -0.263 C  
HETATM    9  C   UNL     1     -10.220   5.829  68.410  1.00  0.00    -0.242 C  
HETATM   10  N   UNL     2      -9.553   9.811  68.856  1.00  0.00    -0.161 N  
HETATM   11  O   UNL     2      -7.978   7.169  71.430  1.00  0.00    -0.100 OA 
HETATM   12  C   UNL     1      -9.673   4.943  69.454  1.00  0.00    -0.191 C  
HETATM   13  C   UNL     2      -8.566   8.936  68.412  1.00  0.00    -0.134 C  
HETATM   14  O   UNL     1      -8.721   4.208  69.214  1.00  0.00    -0.079 OA 
HETATM   15  N   UNL     1     -10.284   5.017  70.677  1.00  0.00    -0.245 N  
HETATM   16  H   UNL     1      -9.966   4.370  71.400  1.00  0.00     0.000 HD 
HETATM   17  O   UNL     2      -8.269   8.772  67.232  1.00  0.00    -0.104 OA 
HETATM   18  N   UNL     2      -7.953   8.186  69.391  1.00  0.00    -0.112 N  
HETATM   19  C   UNL     2      -8.384   8.056  70.687  1.00  0.00    -0.123 C  
HETATM   20  H   UNL     2      -7.106   7.682  69.129  1.00  0.00     0.000 HD 
ENDROOT
BRANCH  10  21
HETATM   21  C   UNL     2     -10.208  10.683  67.882  1.00  0.00    -0.177 C  
HETATM   22  C   UNL     2     -11.692  12.549  67.891  1.00  0.00    -0.416 C  
HETATM   23  C   UNL     2     -11.628  11.092  68.280  1.00  0.00    -0.359 C  
HETATM   24  C   UNL     2     -10.267  13.003  68.093  1.00  0.00    -0.239 C  
HETATM   25  O   UNL     2      -9.439  11.890  67.747  1.00  0.00    -0.174 OA 
ENDBRANCH  10  21
TORSDOF 1
ENDMDL
MODEL       54
REMARK 921   NORMALIZED FREE ENERGY PREDICTED BY IDOCK:   -4.74 KCAL/MOL
REMARK 922        TOTAL FREE ENERGY PREDICTED BY IDOCK:   -5.36 KCAL/MOL
REMARK 923 INTER-LIGAND FREE ENERGY PREDICTED BY IDOCK:   -5.03 KCAL/MOL
REMARK 924 INTRA-LIGAND FREE ENERGY PREDICTED BY IDOCK:   -0.33 KCAL/MOL
REMARK 927      BINDING AFFINITY PREDICTED BY RF-SCORE:    0.00 PKD
ROOT
HETATM    1  O   UNL     1      -9.547   8.007  73.185  1.00  0.00    -0.268 OA 
HETATM    2  F   UNL     2      -9.608   5.175  70.984  1.00  0.00    -0.179 F  
HETATM    3  C   UNL     1      -9.903   8.629  72.189  1.00  0.00    -0.317 C  
HETATM    4  C   UNL     2      -9.853   5.839  69.841  1.00  0.00    -0.179 C  
HETATM    5  N   UNL     1      -9.025   8.914  71.175  1.00  0.00    -0.223 N  
HETATM    6  H   UNL     1      -8.059   8.599  71.269  1.00  0.00     0.000 HD 
HETATM    7  C   UNL     1      -9.373   9.598  70.045  1.00  0.00    -0.241 C  
HETATM    8  C   UNL     2      -8.906   6.075  68.937  1.00  0.00    -0.120 C  
HETATM    9  C   UNL     1     -10.624  10.012  69.856  1.00  0.00    -0.324 C  
HETATM   10  N   UNL     2      -9.146   6.834  67.803  1.00  0.00    -0.118 N  
HETATM   11  O   UNL     2     -12.072   6.348  70.502  1.00  0.00    -0.297 OA 
HETATM   12  C   UNL     1     -11.636   9.723  70.888  1.00  0.00    -0.361 C  
HETATM   13  C   UNL     2     -10.405   7.368  67.543  1.00  0.00    -0.251 C  
HETATM   14  O   UNL     1     -12.808  10.041  70.720  1.00  0.00    -0.321 OA 
HETATM   15  N   UNL     1     -11.178   9.078  72.006  1.00  0.00    -0.356 N  
HETATM   16  H   UNL     1     -11.844   8.922  72.763  1.00  0.00     0.000 HD 
HETATM   17  O   UNL     2     -10.647   8.153  66.631  1.00  0.00    -0.272 OA 
HETATM   18  N   UNL     2     -11.396   7.008  68.429  1.00  0.00    -0.467 N  
HETATM   19  C   UNL     2     -11.204   6.388  69.637  1.00  0.00    -0.418 C  
HETATM   20  H   UNL     2     -12.358   7.223  68.163  1.00  0.00     0.000 HD 
ENDROOT
BRANCH  10  21
HETATM   21  C   UNL     2      -8.055   7.123  66.873  1.00  0.00    -0.116 C  
HETATM   22  C   UNL     2      -5.695   7.450  66.956  1.00  0.00    -0.030 C  
HETATM   23  C   UNL     2      -6.987   8.055  67.448  1.00  0.00    -0.075 C  
HETATM   24  C   UNL     2      -6.026   5.978  66.900  1.00  0.00    -0.018 C  
HETATM   25  O   UNL     2      -7.402   5.891  66.522  1.00  0.00    -0.076 OA 
ENDBRANCH  10  21
TORSDOF 1
ENDMDL
MODEL       55
REMARK 921   NORMALIZED FREE ENERGY PREDICTED BY IDOCK:   -4.67 KCAL/MOL
REMARK 922        TOTAL FREE ENERGY PREDICTED BY IDOCK:   -5.28 KCAL/MOL
REMARK 923 INTER-LIGAND FREE ENERGY PREDICTED BY IDOCK:   -4.93 KCAL/MOL
REMARK 924 INTRA-LIGAND FREE ENERGY PREDICTED BY IDOCK:   -0.35 KCAL/MOL
REMARK 927      BINDING AFFINITY PREDICTED BY RF-SCORE:    0.00 PKD
ROOT
HETATM    1  O   UNL     1     -11.064  15.169  69.108  1.00  0.00    -0.232 OA 
HETATM    2  F   UNL     2     -10.369  11.712  69.763  1.00  0.00     0.026 F  
HETATM    3  C   UNL     1     -11.030  14.823  67.932  1.00  0.00    -0.278 C  
HETATM    4  C   UNL     2     -10.179  11.321  68.491  1.00  0.00    -0.205 C  
HETATM    5  N   UNL     1      -9.842  14.546  67.304  1.00  0.00    -0.233 N  
HETATM    6  H   UNL     1      -8.979  14.639  67.840  1.00  0.00     0.000 HD 
HETATM    7  C   UNL     1      -9.753  14.151  65.999  1.00  0.00    -0.274 C  
HETATM    8  C   UNL     2      -8.967  11.103  67.986  1.00  0.00    -0.149 C  
HETATM    9  C   UNL     1     -10.846  13.988  65.258  1.00  0.00    -0.352 C  
HETATM   10  N   UNL     2      -8.774  10.785  66.652  1.00  0.00    -0.143 N  
HETATM   11  O   UNL     2     -12.480  11.560  67.974  1.00  0.00    -0.155 OA 
HETATM   12  C   UNL     1     -12.165  14.241  65.866  1.00  0.00    -0.407 C  
HETATM   13  C   UNL     2      -9.849  10.653  65.777  1.00  0.00    -0.241 C  
HETATM   14  O   UNL     1     -13.194  14.047  65.229  1.00  0.00    -0.782 OA 
HETATM   15  N   UNL     1     -12.148  14.682  67.162  1.00  0.00    -0.502 N  
HETATM   16  H   UNL     1     -13.043  14.924  67.587  1.00  0.00     0.000 HD 
HETATM   17  O   UNL     2      -9.736  10.504  64.563  1.00  0.00    -0.260 OA 
HETATM   18  N   UNL     2     -11.096  10.763  66.348  1.00  0.00    -0.040 N  
HETATM   19  C   UNL     2     -11.359  11.215  67.617  1.00  0.00    -0.284 C  
HETATM   20  H   UNL     2     -11.895  10.484  65.778  1.00  0.00     0.000 HD 
ENDROOT
BRANCH  10  21
HETATM   21  C   UNL     2      -7.418  10.622  66.128  1.00  0.00    -0.138 C  
HETATM   22  C   UNL     2      -5.178  10.773  66.932  1.00  0.00    -0.049 C  
HETATM   23  C   UNL     2      -6.411  11.616  66.710  1.00  0.00    -0.114 C  
HETATM   24  C   UNL     2      -5.763   9.417  67.242  1.00  0.00    -0.041 C  
HETATM   25  O   UNL     2      -6.949   9.302  66.452  1.00  0.00    -0.082 OA 
ENDBRANCH  10  21
TORSDOF 1
ENDMDL
MODEL       56
REMARK 921   NORMALIZED FREE ENERGY PREDICTED BY IDOCK:   -4.65 KCAL/MOL
REMARK 922        TOTAL FREE ENERGY PREDICTED BY IDOCK:   -5.26 KCAL/MOL
REMARK 923 INTER-LIGAND FREE ENERGY PREDICTED BY IDOCK:   -5.73 KCAL/MOL
REMARK 924 INTRA-LIGAND FREE ENERGY PREDICTED BY IDOCK:    0.47 KCAL/MOL
REMARK 927      BINDING AFFINITY PREDICTED BY RF-SCORE:    0.00 PKD
ROOT
HETATM    1  O   UNL     1     -12.988   9.541  72.231  1.00  0.00    -0.401 OA 
HETATM    2  F   UNL     2     -10.370  10.832  70.147  1.00  0.00    -0.214 F  
HETATM    3  C   UNL     1     -12.460   8.457  72.007  1.00  0.00    -0.359 C  
HETATM    4  C   UNL     2      -9.849   9.655  69.759  1.00  0.00    -0.229 C  
HETATM    5  N   UNL     1     -12.595   7.834  70.793  1.00  0.00    -0.522 N  
HETATM    6  H   UNL     1     -13.155   8.294  70.074  1.00  0.00     0.000 HD 
HETATM    7  C   UNL     1     -12.022   6.631  70.494  1.00  0.00    -0.316 C  
HETATM    8  C   UNL     2     -10.073   9.139  68.553  1.00  0.00    -0.191 C  
HETATM    9  C   UNL     1     -11.261   5.997  71.383  1.00  0.00    -0.325 C  
HETATM   10  N   UNL     2      -9.605   7.886  68.192  1.00  0.00    -0.150 N  
HETATM   11  O   UNL     2      -8.973   9.224  71.919  1.00  0.00    -0.279 OA 
HETATM   12  C   UNL     1     -11.045   6.612  72.705  1.00  0.00    -0.249 C  
HETATM   13  C   UNL     2      -8.853   7.114  69.072  1.00  0.00    -0.131 C  
HETATM   14  O   UNL     1     -10.305   6.083  73.527  1.00  0.00    -0.210 OA 
HETATM   15  N   UNL     1     -11.702   7.792  72.927  1.00  0.00    -0.616 N  
HETATM   16  H   UNL     1     -11.619   8.208  73.856  1.00  0.00     0.000 HD 
HETATM   17  O   UNL     2      -8.524   5.950  68.861  1.00  0.00    -0.105 OA 
HETATM   18  N   UNL     2      -8.533   7.718  70.268  1.00  0.00    -0.131 N  
HETATM   19  C   UNL     2      -9.076   8.883  70.746  1.00  0.00    -0.213 C  
HETATM   20  H   UNL     2      -7.831   7.258  70.848  1.00  0.00     0.000 HD 
ENDROOT
BRANCH  10  21
HETATM   21  C   UNL     2      -9.934   7.334  66.879  1.00  0.00    -0.232 C  
HETATM   22  C   UNL     2      -9.476   5.360  65.621  1.00  0.00    -0.060 C  
HETATM   23  C   UNL     2      -8.786   6.555  66.234  1.00  0.00    -0.154 C  
HETATM   24  C   UNL     2     -10.631   5.132  66.566  1.00  0.00    -0.260 C  
HETATM   25  O   UNL     2     -11.040   6.425  67.019  1.00  0.00    -0.384 OA 
ENDBRANCH  10  21
TORSDOF 1
ENDMDL
MODEL       57
REMARK 921   NORMALIZED FREE ENERGY PREDICTED BY IDOCK:   -4.61 KCAL/MOL
REMARK 922        TOTAL FREE ENERGY PREDICTED BY IDOCK:   -5.22 KCAL/MOL
REMARK 923 INTER-LIGAND FREE ENERGY PREDICTED BY IDOCK:   -4.90 KCAL/MOL
REMARK 924 INTRA-LIGAND FREE ENERGY PREDICTED BY IDOCK:   -0.33 KCAL/MOL
REMARK 927      BINDING AFFINITY PREDICTED BY RF-SCORE:    0.00 PKD
ROOT
HETATM    1  O   UNL     1      -7.422   7.491  74.531  1.00  0.00    -0.122 OA 
HETATM    2  F   UNL     2      -7.538   8.942  71.253  1.00  0.00    -0.093 F  
HETATM    3  C   UNL     1      -8.424   6.887  74.161  1.00  0.00    -0.148 C  
HETATM    4  C   UNL     2      -8.711   8.415  70.862  1.00  0.00    -0.154 C  
HETATM    5  N   UNL     1      -9.640   7.514  74.064  1.00  0.00    -0.404 N  
HETATM    6  H   UNL     1      -9.694   8.502  74.312  1.00  0.00     0.000 HD 
HETATM    7  C   UNL     1     -10.781   6.888  73.652  1.00  0.00    -0.274 C  
HETATM    8  C   UNL     2      -9.837   9.124  70.831  1.00  0.00    -0.291 C  
HETATM    9  C   UNL     1     -10.765   5.606  73.292  1.00  0.00    -0.304 C  
HETATM   10  N   UNL     2     -11.057   8.552  70.510  1.00  0.00    -0.246 N  
HETATM   11  O   UNL     2      -7.788   6.237  70.708  1.00  0.00    -0.102 OA 
HETATM   12  C   UNL     1      -9.492   4.866  73.344  1.00  0.00    -0.132 C  
HETATM   13  C   UNL     2     -11.158   7.203  70.180  1.00  0.00    -0.272 C  
HETATM   14  O   UNL     1      -9.430   3.701  72.966  1.00  0.00    -0.107 OA 
HETATM   15  N   UNL     1      -8.415   5.566  73.818  1.00  0.00    -0.114 N  
HETATM   16  H   UNL     1      -7.535   5.060  73.923  1.00  0.00     0.000 HD 
HETATM   17  O   UNL     2     -12.222   6.611  70.017  1.00  0.00    -0.193 OA 
HETATM   18  N   UNL     2      -9.966   6.520  70.101  1.00  0.00    -0.166 N  
HETATM   19  C   UNL     2      -8.750   6.978  70.540  1.00  0.00    -0.153 C  
HETATM   20  H   UNL     2      -9.989   5.591  69.680  1.00  0.00     0.000 HD 
ENDROOT
BRANCH  10  21
HETATM   21  C   UNL     2     -12.276   9.357  70.556  1.00  0.00     0.011 C  
HETATM   22  C   UNL     2     -13.126  11.218  71.781  1.00  0.00    -0.527 C  
HETATM   23  C   UNL     2     -12.675   9.790  71.968  1.00  0.00    -0.463 C  
HETATM   24  C   UNL     2     -12.257  11.686  70.638  1.00  0.00    -0.366 C  
HETATM   25  O   UNL     2     -12.074  10.554  69.785  1.00  0.00    -0.274 OA 
ENDBRANCH  10  21
TORSDOF 1
ENDMDL
MODEL       58
REMARK 921   NORMALIZED FREE ENERGY PREDICTED BY IDOCK:   -4.58 KCAL/MOL
REMARK 922        TOTAL FREE ENERGY PREDICTED BY IDOCK:   -5.19 KCAL/MOL
REMARK 923 INTER-LIGAND FREE ENERGY PREDICTED BY IDOCK:   -4.95 KCAL/MOL
REMARK 924 INTRA-LIGAND FREE ENERGY PREDICTED BY IDOCK:   -0.24 KCAL/MOL
REMARK 927      BINDING AFFINITY PREDICTED BY RF-SCORE:    0.00 PKD
ROOT
HETATM    1  O   UNL     1      -6.971   6.492  68.291  1.00  0.00    -0.075 OA 
HETATM    2  F   UNL     2     -10.239   6.932  66.881  1.00  0.00    -0.229 F  
HETATM    3  C   UNL     1      -7.207   7.558  68.850  1.00  0.00    -0.082 C  
HETATM    4  C   UNL     2     -10.478   8.167  67.356  1.00  0.00    -0.285 C  
HETATM    5  N   UNL     1      -7.171   8.746  68.166  1.00  0.00    -0.082 N  
HETATM    6  H   UNL     1      -6.937   8.725  67.173  1.00  0.00     0.000 HD 
HETATM    7  C   UNL     1      -7.432   9.956  68.743  1.00  0.00    -0.079 C  
HETATM    8  C   UNL     2     -10.388   9.254  66.594  1.00  0.00    -0.222 C  
HETATM    9  C   UNL     1      -7.766  10.043  70.028  1.00  0.00    -0.181 C  
HETATM   10  N   UNL     2     -10.550  10.529  67.111  1.00  0.00    -0.253 N  
HETATM   11  O   UNL     2     -10.698   7.371  69.578  1.00  0.00    -0.235 OA 
HETATM   12  C   UNL     1      -7.852   8.808  70.829  1.00  0.00    -0.109 C  
HETATM   13  C   UNL     2     -10.840  10.732  68.457  1.00  0.00    -0.228 C  
HETATM   14  O   UNL     1      -8.211   8.847  72.000  1.00  0.00    -0.362 OA 
HETATM   15  N   UNL     1      -7.523   7.651  70.175  1.00  0.00    -0.082 N  
HETATM   16  H   UNL     1      -7.513   6.790  70.722  1.00  0.00     0.000 HD 
HETATM   17  O   UNL     2     -10.864  11.833  69.000  1.00  0.00    -0.214 OA 
HETATM   18  N   UNL     2     -11.046   9.590  69.199  1.00  0.00    -0.425 N  
HETATM   19  C   UNL     2     -10.764   8.310  68.793  1.00  0.00    -0.042 C  
HETATM   20  H   UNL     2     -11.444   9.706  70.131  1.00  0.00     0.000 HD 
ENDROOT
BRANCH  10  21
HETATM   21  C   UNL     2     -10.376  11.695  66.247  1.00  0.00    -0.235 C  
HETATM   22  C   UNL     2     -10.628  12.246  63.940  1.00  0.00    -0.462 C  
HETATM   23  C   UNL     2      -9.827  11.357  64.860  1.00  0.00    -0.301 C  
HETATM   24  C   UNL     2     -11.952  12.346  64.658  1.00  0.00    -0.394 C  
HETATM   25  O   UNL     2     -11.652  12.329  66.056  1.00  0.00    -0.368 OA 
ENDBRANCH  10  21
TORSDOF 1
ENDMDL
MODEL       59
REMARK 921   NORMALIZED FREE ENERGY PREDICTED BY IDOCK:   -4.57 KCAL/MOL
REMARK 922        TOTAL FREE ENERGY PREDICTED BY IDOCK:   -5.18 KCAL/MOL
REMARK 923 INTER-LIGAND FREE ENERGY PREDICTED BY IDOCK:   -5.65 KCAL/MOL
REMARK 924 INTRA-LIGAND FREE ENERGY PREDICTED BY IDOCK:    0.47 KCAL/MOL
REMARK 927      BINDING AFFINITY PREDICTED BY RF-SCORE:    0.00 PKD
ROOT
HETATM    1  O   UNL     1     -11.148   6.033  68.784  1.00  0.00    -0.336 OA 
HETATM    2  F   UNL     2     -11.911   8.850  70.869  1.00  0.00    -0.293 F  
HETATM    3  C   UNL     1     -10.470   6.841  68.157  1.00  0.00    -0.211 C  
HETATM    4  C   UNL     2     -11.301   9.794  70.130  1.00  0.00    -0.251 C  
HETATM    5  N   UNL     1     -11.050   7.777  67.339  1.00  0.00    -0.481 N  
HETATM    6  H   UNL     1     -12.067   7.784  67.258  1.00  0.00     0.000 HD 
HETATM    7  C   UNL     1     -10.339   8.699  66.626  1.00  0.00    -0.232 C  
HETATM    8  C   UNL     2     -11.975  10.636  69.351  1.00  0.00    -0.226 C  
HETATM    9  C   UNL     1      -9.011   8.754  66.711  1.00  0.00    -0.161 C  
HETATM   10  N   UNL     2     -11.335  11.547  68.527  1.00  0.00    -0.250 N  
HETATM   11  O   UNL     2      -9.148   8.977  70.695  1.00  0.00    -0.193 OA 
HETATM   12  C   UNL     1      -8.313   7.798  67.589  1.00  0.00    -0.121 C  
HETATM   13  C   UNL     2      -9.946  11.641  68.494  1.00  0.00    -0.194 C  
HETATM   14  O   UNL     1      -7.097   7.857  67.734  1.00  0.00    -0.081 OA 
HETATM   15  N   UNL     1      -9.108   6.880  68.222  1.00  0.00    -0.127 N  
HETATM   16  H   UNL     1      -8.644   6.168  68.786  1.00  0.00     0.000 HD 
HETATM   17  O   UNL     2      -9.320  12.331  67.695  1.00  0.00    -0.175 OA 
HETATM   18  N   UNL     2      -9.276  10.845  69.396  1.00  0.00    -0.406 N  
HETATM   19  C   UNL     2      -9.829   9.827  70.131  1.00  0.00    -0.255 C  
HETATM   20  H   UNL     2      -8.281  11.028  69.529  1.00  0.00     0.000 HD 
ENDROOT
BRANCH  10  21
HETATM   21  C   UNL     2     -12.118  12.405  67.639  1.00  0.00    -0.006 C  
HETATM   22  C   UNL     2     -11.729  14.175  66.090  1.00  0.00    -0.402 C  
HETATM   23  C   UNL     2     -11.597  13.841  67.556  1.00  0.00    -0.387 C  
HETATM   24  C   UNL     2     -11.512  12.835  65.430  1.00  0.00    -0.327 C  
HETATM   25  O   UNL     2     -12.078  11.860  66.309  1.00  0.00    -0.535 OA 
ENDBRANCH  10  21
TORSDOF 1
ENDMDL
MODEL       60
REMARK 921   NORMALIZED FREE ENERGY PREDICTED BY IDOCK:   -4.56 KCAL/MOL
REMARK 922        TOTAL FREE ENERGY PREDICTED BY IDOCK:   -5.17 KCAL/MOL
REMARK 923 INTER-LIGAND FREE ENERGY PREDICTED BY IDOCK:   -4.83 KCAL/MOL
REMARK 924 INTRA-LIGAND FREE ENERGY PREDICTED BY IDOCK:   -0.34 KCAL/MOL
REMARK 927      BINDING AFFINITY PREDICTED BY RF-SCORE:    0.00 PKD
ROOT
HETATM    1  O   UNL     1     -12.444   9.447  71.544  1.00  0.00    -0.323 OA 
HETATM    2  F   UNL     2      -9.217  10.172  70.156  1.00  0.00    -0.230 F  
HETATM    3  C   UNL     1     -12.003   8.308  71.649  1.00  0.00    -0.303 C  
HETATM    4  C   UNL     2      -8.749   8.912  70.117  1.00  0.00    -0.161 C  
HETATM    5  N   UNL     1     -11.866   7.492  70.554  1.00  0.00    -0.494 N  
HETATM    6  H   UNL     1     -12.145   7.856  69.643  1.00  0.00     0.000 HD 
HETATM    7  C   UNL     1     -11.376   6.219  70.618  1.00  0.00    -0.343 C  
HETATM    8  C   UNL     2      -8.685   8.210  68.989  1.00  0.00    -0.144 C  
HETATM    9  C   UNL     1     -10.972   5.700  71.776  1.00  0.00    -0.290 C  
HETATM   10  N   UNL     2      -8.284   6.884  68.970  1.00  0.00    -0.123 N  
HETATM   11  O   UNL     2      -8.566   8.807  72.478  1.00  0.00    -0.403 OA 
HETATM   12  C   UNL     1     -11.063   6.521  72.997  1.00  0.00    -0.198 C  
HETATM   13  C   UNL     2      -7.902   6.228  70.137  1.00  0.00    -0.106 C  
HETATM   14  O   UNL     1     -10.648   6.094  74.068  1.00  0.00    -0.272 OA 
HETATM   15  N   UNL     1     -11.615   7.764  72.838  1.00  0.00    -0.603 N  
HETATM   16  H   UNL     1     -11.747   8.328  73.678  1.00  0.00     0.000 HD 
HETATM   17  O   UNL     2      -7.665   5.025  70.206  1.00  0.00    -0.064 OA 
HETATM   18  N   UNL     2      -7.860   7.009  71.271  1.00  0.00    -0.098 N  
HETATM   19  C   UNL     2      -8.376   8.274  71.391  1.00  0.00    -0.133 C  
HETATM   20  H   UNL     2      -7.406   6.611  72.093  1.00  0.00     0.000 HD 
ENDROOT
BRANCH  10  21
HETATM   21  C   UNL     2      -8.295   6.134  67.715  1.00  0.00    -0.116 C  
HETATM   22  C   UNL     2      -8.460   6.590  65.380  1.00  0.00    -0.119 C  
HETATM   23  C   UNL     2      -9.246   6.710  66.663  1.00  0.00    -0.179 C  
HETATM   24  C   UNL     2      -7.036   6.753  65.854  1.00  0.00    -0.069 C  
HETATM   25  O   UNL     2      -6.974   6.151  67.149  1.00  0.00    -0.065 OA 
ENDBRANCH  10  21
TORSDOF 1
ENDMDL
MODEL       61
REMARK 921   NORMALIZED FREE ENERGY PREDICTED BY IDOCK:   -4.55 KCAL/MOL
REMARK 922        TOTAL FREE ENERGY PREDICTED BY IDOCK:   -5.16 KCAL/MOL
REMARK 923 INTER-LIGAND FREE ENERGY PREDICTED BY IDOCK:   -4.82 KCAL/MOL
REMARK 924 INTRA-LIGAND FREE ENERGY PREDICTED BY IDOCK:   -0.34 KCAL/MOL
REMARK 927      BINDING AFFINITY PREDICTED BY RF-SCORE:    0.00 PKD
ROOT
HETATM    1  O   UNL     1      -8.501   8.695  72.524  1.00  0.00    -0.364 OA 
HETATM    2  F   UNL     2      -9.912   5.428  72.079  1.00  0.00    -0.190 F  
HETATM    3  C   UNL     1      -8.847   8.865  71.360  1.00  0.00    -0.213 C  
HETATM    4  C   UNL     2     -10.174   5.521  70.763  1.00  0.00    -0.235 C  
HETATM    5  N   UNL     1      -8.160   8.290  70.320  1.00  0.00    -0.102 N  
HETATM    6  H   UNL     1      -7.345   7.717  70.539  1.00  0.00     0.000 HD 
HETATM    7  C   UNL     1      -8.508   8.445  69.009  1.00  0.00    -0.123 C  
HETATM    8  C   UNL     2      -9.415   4.932  69.842  1.00  0.00    -0.160 C  
HETATM    9  C   UNL     1      -9.576   9.161  68.665  1.00  0.00    -0.157 C  
HETATM   10  N   UNL     2      -9.640   5.104  68.486  1.00  0.00    -0.133 N  
HETATM   11  O   UNL     2     -11.927   7.074  71.126  1.00  0.00    -0.319 OA 
HETATM   12  C   UNL     1     -10.384   9.792  69.725  1.00  0.00    -0.246 C  
HETATM   13  C   UNL     2     -10.693   5.886  68.021  1.00  0.00    -0.252 C  
HETATM   14  O   UNL     1     -11.404  10.412  69.447  1.00  0.00    -0.239 OA 
HETATM   15  N   UNL     1      -9.925   9.622  71.003  1.00  0.00    -0.300 N  
HETATM   16  H   UNL     1     -10.430  10.100  71.750  1.00  0.00     0.000 HD 
HETATM   17  O   UNL     2     -10.864   6.183  66.842  1.00  0.00    -0.319 OA 
HETATM   18  N   UNL     2     -11.535   6.385  68.990  1.00  0.00    -0.591 N  
HETATM   19  C   UNL     2     -11.295   6.377  70.341  1.00  0.00    -0.389 C  
HETATM   20  H   UNL     2     -12.414   6.797  68.676  1.00  0.00     0.000 HD 
ENDROOT
BRANCH  10  21
HETATM   21  C   UNL     2      -8.737   4.491  67.513  1.00  0.00    -0.104 C  
HETATM   22  C   UNL     2      -6.999   2.859  67.490  1.00  0.00    -0.049 C  
HETATM   23  C   UNL     2      -7.337   4.215  68.062  1.00  0.00    -0.064 C  
HETATM   24  C   UNL     2      -8.352   2.195  67.407  1.00  0.00    -0.080 C  
HETATM   25  O   UNL     2      -9.288   3.230  67.095  1.00  0.00    -0.187 OA 
ENDBRANCH  10  21
TORSDOF 1
ENDMDL
MODEL       62
REMARK 921   NORMALIZED FREE ENERGY PREDICTED BY IDOCK:   -4.55 KCAL/MOL
REMARK 922        TOTAL FREE ENERGY PREDICTED BY IDOCK:   -5.16 KCAL/MOL
REMARK 923 INTER-LIGAND FREE ENERGY PREDICTED BY IDOCK:   -4.81 KCAL/MOL
REMARK 924 INTRA-LIGAND FREE ENERGY PREDICTED BY IDOCK:   -0.35 KCAL/MOL
REMARK 927      BINDING AFFINITY PREDICTED BY RF-SCORE:    0.00 PKD
ROOT
HETATM    1  O   UNL     1      -8.969   8.570  73.691  1.00  0.00    -0.203 OA 
HETATM    2  F   UNL     2      -7.114   7.965  70.681  1.00  0.00    -0.047 F  
HETATM    3  C   UNL     1      -9.890   8.038  73.081  1.00  0.00    -0.262 C  
HETATM    4  C   UNL     2      -8.132   7.511  69.929  1.00  0.00    -0.129 C  
HETATM    5  N   UNL     1     -10.558   8.697  72.081  1.00  0.00    -0.341 N  
HETATM    6  H   UNL     1     -10.273   9.650  71.857  1.00  0.00     0.000 HD 
HETATM    7  C   UNL     1     -11.585   8.145  71.370  1.00  0.00    -0.278 C  
HETATM    8  C   UNL     2      -8.719   8.259  68.998  1.00  0.00    -0.143 C  
HETATM    9  C   UNL     1     -11.984   6.896  71.601  1.00  0.00    -0.379 C  
HETATM   10  N   UNL     2      -9.822   7.815  68.288  1.00  0.00    -0.162 N  
HETATM   11  O   UNL     2      -8.272   5.494  71.167  1.00  0.00    -0.116 OA 
HETATM   12  C   UNL     1     -11.300   6.110  72.644  1.00  0.00    -0.259 C  
HETATM   13  C   UNL     2     -10.357   6.548  68.500  1.00  0.00    -0.192 C  
HETATM   14  O   UNL     1     -11.604   4.940  72.844  1.00  0.00    -0.239 OA 
HETATM   15  N   UNL     1     -10.318   6.767  73.336  1.00  0.00    -0.263 N  
HETATM   16  H   UNL     1      -9.871   6.267  74.105  1.00  0.00     0.000 HD 
HETATM   17  O   UNL     2     -11.406   6.149  68.001  1.00  0.00    -0.221 OA 
HETATM   18  N   UNL     2      -9.661   5.749  69.379  1.00  0.00    -0.136 N  
HETATM   19  C   UNL     2      -8.658   6.166  70.217  1.00  0.00    -0.140 C  
HETATM   20  H   UNL     2      -9.913   4.761  69.410  1.00  0.00     0.000 HD 
ENDROOT
BRANCH  10  21
HETATM   21  C   UNL     2     -10.474   8.700  67.322  1.00  0.00    -0.289 C  
HETATM   22  C   UNL     2     -10.062  10.811  66.295  1.00  0.00    -0.285 C  
HETATM   23  C   UNL     2     -10.314  10.186  67.645  1.00  0.00    -0.265 C  
HETATM   24  C   UNL     2      -9.336   9.712  65.558  1.00  0.00    -0.248 C  
HETATM   25  O   UNL     2      -9.895   8.481  66.025  1.00  0.00    -0.212 OA 
ENDBRANCH  10  21
TORSDOF 1
ENDMDL
MODEL       63
REMARK 921   NORMALIZED FREE ENERGY PREDICTED BY IDOCK:   -4.54 KCAL/MOL
REMARK 922        TOTAL FREE ENERGY PREDICTED BY IDOCK:   -5.14 KCAL/MOL
REMARK 923 INTER-LIGAND FREE ENERGY PREDICTED BY IDOCK:   -4.80 KCAL/MOL
REMARK 924 INTRA-LIGAND FREE ENERGY PREDICTED BY IDOCK:   -0.35 KCAL/MOL
REMARK 927      BINDING AFFINITY PREDICTED BY RF-SCORE:    0.00 PKD
ROOT
HETATM    1  O   UNL     1     -10.074   9.359  69.249  1.00  0.00    -0.182 OA 
HETATM    2  F   UNL     2      -7.720   7.638  71.337  1.00  0.00    -0.076 F  
HETATM    3  C   UNL     1     -10.910   8.734  69.892  1.00  0.00    -0.206 C  
HETATM    4  C   UNL     2      -8.591   6.827  71.963  1.00  0.00    -0.122 C  
HETATM    5  N   UNL     1     -11.118   7.394  69.680  1.00  0.00    -0.422 N  
HETATM    6  H   UNL     1     -10.560   6.927  68.965  1.00  0.00     0.000 HD 
HETATM    7  C   UNL     1     -12.032   6.654  70.374  1.00  0.00    -0.280 C  
HETATM    8  C   UNL     2      -8.718   5.540  71.650  1.00  0.00    -0.136 C  
HETATM    9  C   UNL     1     -12.771   7.205  71.335  1.00  0.00    -0.433 C  
HETATM   10  N   UNL     2      -9.678   4.733  72.239  1.00  0.00    -0.154 N  
HETATM   11  O   UNL     2      -9.532   8.627  73.185  1.00  0.00    -0.125 OA 
HETATM   12  C   UNL     1     -12.590   8.635  71.642  1.00  0.00    -0.338 C  
HETATM   13  C   UNL     2     -10.543   5.229  73.210  1.00  0.00    -0.245 C  
HETATM   14  O   UNL     1     -13.213   9.161  72.558  1.00  0.00    -0.444 OA 
HETATM   15  N   UNL     1     -11.687   9.303  70.859  1.00  0.00    -0.288 N  
HETATM   16  H   UNL     1     -11.588  10.308  71.009  1.00  0.00     0.000 HD 
HETATM   17  O   UNL     2     -11.494   4.604  73.671  1.00  0.00    -0.273 OA 
HETATM   18  N   UNL     2     -10.312   6.528  73.604  1.00  0.00    -0.275 N  
HETATM   19  C   UNL     2      -9.486   7.421  72.970  1.00  0.00    -0.186 C  
HETATM   20  H   UNL     2     -10.799   6.855  74.439  1.00  0.00     0.000 HD 
ENDROOT
BRANCH  10  21
HETATM   21  C   UNL     2      -9.824   3.342  71.813  1.00  0.00    -0.159 C  
HETATM   22  C   UNL     2      -8.736   1.817  70.338  1.00  0.00    -0.112 C  
HETATM   23  C   UNL     2      -9.506   3.115  70.334  1.00  0.00    -0.227 C  
HETATM   24  C   UNL     2      -8.029   1.862  71.671  1.00  0.00    -0.041 C  
HETATM   25  O   UNL     2      -8.918   2.524  72.574  1.00  0.00    -0.076 OA 
ENDBRANCH  10  21
TORSDOF 1
ENDMDL
MODEL       64
REMARK 921   NORMALIZED FREE ENERGY PREDICTED BY IDOCK:   -4.50 KCAL/MOL
REMARK 922        TOTAL FREE ENERGY PREDICTED BY IDOCK:   -5.11 KCAL/MOL
REMARK 923 INTER-LIGAND FREE ENERGY PREDICTED BY IDOCK:   -4.76 KCAL/MOL
REMARK 924 INTRA-LIGAND FREE ENERGY PREDICTED BY IDOCK:   -0.35 KCAL/MOL
REMARK 927      BINDING AFFINITY PREDICTED BY RF-SCORE:    0.00 PKD
ROOT
HETATM    1  O   UNL     1      -6.750  18.953  68.323  1.00  0.00    -0.229 OA 
HETATM    2  F   UNL     2     -10.051  18.122  67.192  1.00  0.00    -0.298 F  
HETATM    3  C   UNL     1      -6.667  17.753  68.564  1.00  0.00    -0.218 C  
HETATM    4  C   UNL     2     -10.055  16.834  67.574  1.00  0.00    -0.276 C  
HETATM    5  N   UNL     1      -7.311  17.195  69.639  1.00  0.00     0.191 N  
HETATM    6  H   UNL     1      -7.862  17.806  70.242  1.00  0.00     0.000 HD 
HETATM    7  C   UNL     1      -7.254  15.865  69.945  1.00  0.00     0.142 C  
HETATM    8  C   UNL     2     -10.703  16.414  68.658  1.00  0.00    -0.317 C  
HETATM    9  C   UNL     1      -6.572  15.016  69.179  1.00  0.00    -0.120 C  
HETATM   10  N   UNL     2     -10.632  15.101  69.094  1.00  0.00    -0.246 N  
HETATM   11  O   UNL     2      -8.492  16.233  65.897  1.00  0.00    -0.330 OA 
HETATM   12  C   UNL     1      -5.872  15.533  67.989  1.00  0.00    -0.136 C  
HETATM   13  C   UNL     2      -9.892  14.148  68.399  1.00  0.00    -0.231 C  
HETATM   14  O   UNL     1      -5.281  14.771  67.232  1.00  0.00    -0.296 OA 
HETATM   15  N   UNL     1      -5.946  16.886  67.796  1.00  0.00    -0.125 N  
HETATM   16  H   UNL     1      -5.419  17.278  67.015  1.00  0.00     0.000 HD 
HETATM   17  O   UNL     2      -9.683  13.007  68.804  1.00  0.00    -0.095 OA 
HETATM   18  N   UNL     2      -9.331  14.577  67.218  1.00  0.00    -0.203 N  
HETATM   19  C   UNL     2      -9.240  15.881  66.802  1.00  0.00    -0.240 C  
HETATM   20  H   UNL     2      -8.949  13.863  66.597  1.00  0.00     0.000 HD 
ENDROOT
BRANCH  10  21
HETATM   21  C   UNL     2     -11.307  14.703  70.329  1.00  0.00    -0.202 C  
HETATM   22  C   UNL     2     -12.607  15.726  72.046  1.00  0.00    -0.524 C  
HETATM   23  C   UNL     2     -11.225  15.752  71.440  1.00  0.00    -0.354 C  
HETATM   24  C   UNL     2     -13.475  15.371  70.863  1.00  0.00    -0.367 C  
HETATM   25  O   UNL     2     -12.701  14.487  70.049  1.00  0.00    -0.288 OA 
ENDBRANCH  10  21
TORSDOF 1
ENDMDL
MODEL       65
REMARK 921   NORMALIZED FREE ENERGY PREDICTED BY IDOCK:   -4.44 KCAL/MOL
REMARK 922        TOTAL FREE ENERGY PREDICTED BY IDOCK:   -5.04 KCAL/MOL
REMARK 923 INTER-LIGAND FREE ENERGY PREDICTED BY IDOCK:   -4.69 KCAL/MOL
REMARK 924 INTRA-LIGAND FREE ENERGY PREDICTED BY IDOCK:   -0.34 KCAL/MOL
REMARK 927      BINDING AFFINITY PREDICTED BY RF-SCORE:    0.00 PKD
ROOT
HETATM    1  O   UNL     1      -7.369   5.220  67.979  1.00  0.00    -0.070 OA 
HETATM    2  F   UNL     2     -10.582   6.318  66.825  1.00  0.00    -0.256 F  
HETATM    3  C   UNL     1      -7.565   6.015  68.892  1.00  0.00    -0.091 C  
HETATM    4  C   UNL     2     -10.772   7.301  67.722  1.00  0.00    -0.197 C  
HETATM    5  N   UNL     1      -7.459   7.368  68.695  1.00  0.00    -0.099 N  
HETATM    6  H   UNL     1      -7.206   7.702  67.765  1.00  0.00     0.000 HD 
HETATM    7  C   UNL     1      -7.673   8.293  69.677  1.00  0.00    -0.100 C  
HETATM    8  C   UNL     2     -10.614   8.587  67.415  1.00  0.00    -0.234 C  
HETATM    9  C   UNL     1      -8.030   7.917  70.904  1.00  0.00    -0.093 C  
HETATM   10  N   UNL     2     -10.726   9.588  68.366  1.00  0.00    -0.211 N  
HETATM   11  O   UNL     2     -11.076   5.755  69.493  1.00  0.00    -0.366 OA 
HETATM   12  C   UNL     1      -8.191   6.480  71.191  1.00  0.00    -0.121 C  
HETATM   13  C   UNL     2     -11.034   9.295  69.692  1.00  0.00    -0.175 C  
HETATM   14  O   UNL     1      -8.573   6.103  72.294  1.00  0.00    -0.120 OA 
HETATM   15  N   UNL     1      -7.904   5.630  70.157  1.00  0.00    -0.089 N  
HETATM   16  H   UNL     1      -7.947   4.628  70.347  1.00  0.00     0.000 HD 
HETATM   17  O   UNL     2     -11.016  10.119  70.602  1.00  0.00    -0.308 OA 
HETATM   18  N   UNL     2     -11.310   7.973  69.959  1.00  0.00    -0.453 N  
HETATM   19  C   UNL     2     -11.081   6.920  69.111  1.00  0.00    -0.159 C  
HETATM   20  H   UNL     2     -11.721   7.758  70.868  1.00  0.00     0.000 HD 
ENDROOT
BRANCH  10  21
HETATM   21  C   UNL     2     -10.478  10.980  67.994  1.00  0.00    -0.189 C  
HETATM   22  C   UNL     2      -9.903  12.216  66.038  1.00  0.00    -0.260 C  
HETATM   23  C   UNL     2      -9.362  11.151  66.961  1.00  0.00    -0.182 C  
HETATM   24  C   UNL     2     -11.390  11.968  66.091  1.00  0.00    -0.351 C  
HETATM   25  O   UNL     2     -11.677  11.530  67.421  1.00  0.00    -0.567 OA 
ENDBRANCH  10  21
TORSDOF 1
ENDMDL
MODEL       66
REMARK 921   NORMALIZED FREE ENERGY PREDICTED BY IDOCK:   -4.43 KCAL/MOL
REMARK 922        TOTAL FREE ENERGY PREDICTED BY IDOCK:   -5.03 KCAL/MOL
REMARK 923 INTER-LIGAND FREE ENERGY PREDICTED BY IDOCK:   -4.75 KCAL/MOL
REMARK 924 INTRA-LIGAND FREE ENERGY PREDICTED BY IDOCK:   -0.27 KCAL/MOL
REMARK 927      BINDING AFFINITY PREDICTED BY RF-SCORE:    0.00 PKD
ROOT
HETATM    1  O   UNL     1      -9.021  14.129  66.796  1.00  0.00    -0.242 OA 
HETATM    2  F   UNL     2     -10.388  12.308  69.567  1.00  0.00     0.041 F  
HETATM    3  C   UNL     1      -9.134  13.062  66.202  1.00  0.00     0.094 C  
HETATM    4  C   UNL     2     -10.392  11.089  69.000  1.00  0.00    -0.209 C  
HETATM    5  N   UNL     1      -8.272  12.020  66.437  1.00  0.00    -0.391 N  
HETATM    6  H   UNL     1      -7.527  12.156  67.120  1.00  0.00     0.000 HD 
HETATM    7  C   UNL     1      -8.360  10.812  65.807  1.00  0.00    -0.158 C  
HETATM    8  C   UNL     2      -9.483  10.164  69.295  1.00  0.00    -0.218 C  
HETATM    9  C   UNL     1      -9.327  10.570  64.925  1.00  0.00    -0.278 C  
HETATM   10  N   UNL     2      -9.440   8.942  68.644  1.00  0.00    -0.150 N  
HETATM   11  O   UNL     2     -12.149  11.678  67.522  1.00  0.00    -0.611 OA 
HETATM   12  C   UNL     1     -10.310  11.630  64.633  1.00  0.00    -0.292 C  
HETATM   13  C   UNL     2     -10.369   8.615  67.659  1.00  0.00    -0.254 C  
HETATM   14  O   UNL     1     -11.245  11.422  63.869  1.00  0.00    -0.386 OA 
HETATM   15  N   UNL     1     -10.108  12.821  65.277  1.00  0.00    -0.384 N  
HETATM   16  H   UNL     1     -10.736  13.592  65.047  1.00  0.00     0.000 HD 
HETATM   17  O   UNL     2     -10.305   7.609  66.957  1.00  0.00    -0.275 OA 
HETATM   18  N   UNL     2     -11.370   9.538  67.457  1.00  0.00    -0.225 N  
HETATM   19  C   UNL     2     -11.393  10.816  67.956  1.00  0.00    -0.307 C  
HETATM   20  H   UNL     2     -12.163   9.246  66.887  1.00  0.00     0.000 HD 
ENDROOT
BRANCH  10  21
HETATM   21  C   UNL     2      -8.381   7.983  68.956  1.00  0.00    -0.129 C  
HETATM   22  C   UNL     2      -6.942   7.466  70.786  1.00  0.00    -0.055 C  
HETATM   23  C   UNL     2      -7.251   8.570  69.804  1.00  0.00    -0.052 C  
HETATM   24  C   UNL     2      -8.287   6.804  70.964  1.00  0.00    -0.127 C  
HETATM   25  O   UNL     2      -8.946   6.889  69.698  1.00  0.00    -0.143 OA 
ENDBRANCH  10  21
TORSDOF 1
ENDMDL
MODEL       67
REMARK 921   NORMALIZED FREE ENERGY PREDICTED BY IDOCK:   -4.37 KCAL/MOL
REMARK 922        TOTAL FREE ENERGY PREDICTED BY IDOCK:   -4.97 KCAL/MOL
REMARK 923 INTER-LIGAND FREE ENERGY PREDICTED BY IDOCK:   -4.65 KCAL/MOL
REMARK 924 INTRA-LIGAND FREE ENERGY PREDICTED BY IDOCK:   -0.32 KCAL/MOL
REMARK 927      BINDING AFFINITY PREDICTED BY RF-SCORE:    0.00 PKD
ROOT
HETATM    1  O   UNL     1     -10.278   4.640  73.906  1.00  0.00    -0.164 OA 
HETATM    2  F   UNL     2     -12.728   6.064  71.707  1.00  0.00    -0.195 F  
HETATM    3  C   UNL     1      -9.550   5.520  73.460  1.00  0.00    -0.139 C  
HETATM    4  C   UNL     2     -11.925   6.947  71.088  1.00  0.00    -0.366 C  
HETATM    5  N   UNL     1      -9.023   5.439  72.196  1.00  0.00    -0.133 N  
HETATM    6  H   UNL     1      -9.248   4.619  71.632  1.00  0.00     0.000 HD 
HETATM    7  C   UNL     1      -8.213   6.395  71.654  1.00  0.00    -0.117 C  
HETATM    8  C   UNL     2     -11.456   6.743  69.859  1.00  0.00    -0.300 C  
HETATM    9  C   UNL     1      -7.906   7.497  72.334  1.00  0.00    -0.112 C  
HETATM   10  N   UNL     2     -10.560   7.615  69.262  1.00  0.00    -0.220 N  
HETATM   11  O   UNL     2     -11.755   8.297  73.029  1.00  0.00    -0.265 OA 
HETATM   12  C   UNL     1      -8.453   7.674  73.692  1.00  0.00    -0.197 C  
HETATM   13  C   UNL     2     -10.125   8.765  69.915  1.00  0.00    -0.191 C  
HETATM   14  O   UNL     1      -8.235   8.701  74.324  1.00  0.00    -0.317 OA 
HETATM   15  N   UNL     1      -9.211   6.638  74.167  1.00  0.00    -0.176 N  
HETATM   16  H   UNL     1      -9.551   6.707  75.127  1.00  0.00     0.000 HD 
HETATM   17  O   UNL     2      -9.238   9.503  69.496  1.00  0.00    -0.165 OA 
HETATM   18  N   UNL     2     -10.717   9.016  71.133  1.00  0.00    -0.261 N  
HETATM   19  C   UNL     2     -11.492   8.135  71.842  1.00  0.00    -0.299 C  
HETATM   20  H   UNL     2     -10.564   9.937  71.543  1.00  0.00     0.000 HD 
ENDROOT
BRANCH  10  21
HETATM   21  C   UNL     2     -10.020   7.313  67.937  1.00  0.00    -0.158 C  
HETATM   22  C   UNL     2      -9.270   5.404  66.722  1.00  0.00    -0.128 C  
HETATM   23  C   UNL     2      -8.943   6.226  67.944  1.00  0.00    -0.113 C  
HETATM   24  C   UNL     2     -10.771   5.533  66.634  1.00  0.00    -0.261 C  
HETATM   25  O   UNL     2     -11.087   6.850  67.093  1.00  0.00    -0.370 OA 
ENDBRANCH  10  21
TORSDOF 1
ENDMDL
MODEL       68
REMARK 921   NORMALIZED FREE ENERGY PREDICTED BY IDOCK:   -4.37 KCAL/MOL
REMARK 922        TOTAL FREE ENERGY PREDICTED BY IDOCK:   -4.97 KCAL/MOL
REMARK 923 INTER-LIGAND FREE ENERGY PREDICTED BY IDOCK:   -4.63 KCAL/MOL
REMARK 924 INTRA-LIGAND FREE ENERGY PREDICTED BY IDOCK:   -0.33 KCAL/MOL
REMARK 927      BINDING AFFINITY PREDICTED BY RF-SCORE:    0.00 PKD
ROOT
HETATM    1  O   UNL     1      -5.208  11.714  66.417  1.00  0.00    -0.248 OA 
HETATM    2  F   UNL     2      -8.237   9.805  66.202  1.00  0.00    -0.115 F  
HETATM    3  C   UNL     1      -5.833  12.376  67.239  1.00  0.00    -0.125 C  
HETATM    4  C   UNL     2      -9.001  10.587  66.983  1.00  0.00    -0.140 C  
HETATM    5  N   UNL     1      -6.812  13.255  66.851  1.00  0.00    -0.014 N  
HETATM    6  H   UNL     1      -7.009  13.350  65.855  1.00  0.00     0.000 HD 
HETATM    7  C   UNL     1      -7.539  14.009  67.728  1.00  0.00    -0.170 C  
HETATM    8  C   UNL     2      -9.909  11.423  66.485  1.00  0.00    -0.208 C  
HETATM    9  C   UNL     1      -7.344  13.908  69.041  1.00  0.00    -0.055 C  
HETATM   10  N   UNL     2     -10.631  12.288  67.290  1.00  0.00    -0.221 N  
HETATM   11  O   UNL     2      -7.823   9.947  68.938  1.00  0.00    -0.083 OA 
HETATM   12  C   UNL     1      -6.325  12.967  69.541  1.00  0.00    -0.103 C  
HETATM   13  C   UNL     2     -10.456  12.307  68.671  1.00  0.00    -0.208 C  
HETATM   14  O   UNL     1      -6.159  12.809  70.746  1.00  0.00    -0.205 OA 
HETATM   15  N   UNL     1      -5.615  12.295  68.583  1.00  0.00    -0.053 N  
HETATM   16  H   UNL     1      -4.862  11.683  68.901  1.00  0.00     0.000 HD 
HETATM   17  O   UNL     2     -10.965  13.136  69.421  1.00  0.00    -0.139 OA 
HETATM   18  N   UNL     2      -9.601  11.351  69.174  1.00  0.00    -0.410 N  
HETATM   19  C   UNL     2      -8.752  10.568  68.435  1.00  0.00    -0.137 C  
HETATM   20  H   UNL     2      -9.598  11.215  70.185  1.00  0.00     0.000 HD 
ENDROOT
BRANCH  10  21
HETATM   21  C   UNL     2     -11.569  13.235  66.689  1.00  0.00    -0.365 C  
HETATM   22  C   UNL     2     -11.959  14.232  64.559  1.00  0.00    -0.478 C  
HETATM   23  C   UNL     2     -10.927  14.166  65.658  1.00  0.00    -0.308 C  
HETATM   24  C   UNL     2     -12.600  12.868  64.632  1.00  0.00    -0.391 C  
HETATM   25  O   UNL     2     -12.604  12.501  66.014  1.00  0.00    -0.456 OA 
ENDBRANCH  10  21
TORSDOF 1
ENDMDL
MODEL       69
REMARK 921   NORMALIZED FREE ENERGY PREDICTED BY IDOCK:   -4.36 KCAL/MOL
REMARK 922        TOTAL FREE ENERGY PREDICTED BY IDOCK:   -4.95 KCAL/MOL
REMARK 923 INTER-LIGAND FREE ENERGY PREDICTED BY IDOCK:   -4.62 KCAL/MOL
REMARK 924 INTRA-LIGAND FREE ENERGY PREDICTED BY IDOCK:   -0.33 KCAL/MOL
REMARK 927      BINDING AFFINITY PREDICTED BY RF-SCORE:    0.00 PKD
ROOT
HETATM    1  O   UNL     1      -7.926  13.240  67.455  1.00  0.00    -0.171 OA 
HETATM    2  F   UNL     2      -8.066  10.656  69.938  1.00  0.00    -0.129 F  
HETATM    3  C   UNL     1      -8.705  12.518  66.841  1.00  0.00    -0.182 C  
HETATM    4  C   UNL     2      -8.799   9.772  69.239  1.00  0.00    -0.169 C  
HETATM    5  N   UNL     1      -8.278  11.370  66.223  1.00  0.00    -0.308 N  
HETATM    6  H   UNL     1      -7.288  11.131  66.281  1.00  0.00     0.000 HD 
HETATM    7  C   UNL     1      -9.106  10.532  65.533  1.00  0.00    -0.186 C  
HETATM    8  C   UNL     2      -8.263   8.699  68.661  1.00  0.00    -0.121 C  
HETATM    9  C   UNL     1     -10.411  10.781  65.445  1.00  0.00    -0.315 C  
HETATM   10  N   UNL     2      -9.008   7.841  67.871  1.00  0.00    -0.126 N  
HETATM   11  O   UNL     2     -10.748  11.110  69.409  1.00  0.00    -0.224 OA 
HETATM   12  C   UNL     1     -10.955  11.983  66.103  1.00  0.00    -0.302 C  
HETATM   13  C   UNL     2     -10.369   8.048  67.662  1.00  0.00    -0.246 C  
HETATM   14  O   UNL     1     -12.159  12.212  66.089  1.00  0.00    -0.621 OA 
HETATM   15  N   UNL     1     -10.038  12.787  66.726  1.00  0.00    -0.232 N  
HETATM   16  H   UNL     1     -10.378  13.657  67.136  1.00  0.00     0.000 HD 
HETATM   17  O   UNL     2     -11.052   7.403  66.871  1.00  0.00    -0.236 OA 
HETATM   18  N   UNL     2     -10.925   9.092  68.366  1.00  0.00    -0.466 N  
HETATM   19  C   UNL     2     -10.230  10.061  69.045  1.00  0.00    -0.203 C  
HETATM   20  H   UNL     2     -11.944   9.151  68.384  1.00  0.00     0.000 HD 
ENDROOT
BRANCH  10  21
HETATM   21  C   UNL     2      -8.360   6.714  67.202  1.00  0.00    -0.113 C  
HETATM   22  C   UNL     2      -6.316   5.496  67.363  1.00  0.00    -0.039 C  
HETATM   23  C   UNL     2      -6.846   6.875  67.054  1.00  0.00    -0.065 C  
HETATM   24  C   UNL     2      -7.324   4.976  68.359  1.00  0.00    -0.066 C  
HETATM   25  O   UNL     2      -8.588   5.521  67.972  1.00  0.00    -0.102 OA 
ENDBRANCH  10  21
TORSDOF 1
ENDMDL
MODEL       70
REMARK 921   NORMALIZED FREE ENERGY PREDICTED BY IDOCK:   -4.34 KCAL/MOL
REMARK 922        TOTAL FREE ENERGY PREDICTED BY IDOCK:   -4.94 KCAL/MOL
REMARK 923 INTER-LIGAND FREE ENERGY PREDICTED BY IDOCK:   -4.61 KCAL/MOL
REMARK 924 INTRA-LIGAND FREE ENERGY PREDICTED BY IDOCK:   -0.33 KCAL/MOL
REMARK 927      BINDING AFFINITY PREDICTED BY RF-SCORE:    0.00 PKD
ROOT
HETATM    1  O   UNL     1     -12.023   6.588  70.122  1.00  0.00    -0.383 OA 
HETATM    2  F   UNL     2      -9.963   9.487  70.591  1.00  0.00    -0.269 F  
HETATM    3  C   UNL     1     -11.243   6.336  69.211  1.00  0.00    -0.389 C  
HETATM    4  C   UNL     2      -9.175   9.326  69.514  1.00  0.00    -0.165 C  
HETATM    5  N   UNL     1     -11.281   7.028  68.027  1.00  0.00    -0.527 N  
HETATM    6  H   UNL     1     -11.983   7.760  67.918  1.00  0.00     0.000 HD 
HETATM    7  C   UNL     1     -10.430   6.789  66.986  1.00  0.00    -0.299 C  
HETATM    8  C   UNL     2      -9.326  10.047  68.406  1.00  0.00    -0.138 C  
HETATM    9  C   UNL     1      -9.478   5.862  67.079  1.00  0.00    -0.134 C  
HETATM   10  N   UNL     2      -8.567   9.816  67.270  1.00  0.00    -0.128 N  
HETATM   11  O   UNL     2      -8.091   7.448  70.471  1.00  0.00    -0.102 OA 
HETATM   12  C   UNL     1      -9.354   5.091  68.330  1.00  0.00    -0.126 C  
HETATM   13  C   UNL     2      -7.588   8.827  67.243  1.00  0.00    -0.089 C  
HETATM   14  O   UNL     1      -8.454   4.270  68.470  1.00  0.00    -0.090 OA 
HETATM   15  N   UNL     1     -10.284   5.368  69.295  1.00  0.00    -0.230 N  
HETATM   16  H   UNL     1     -10.259   4.805  70.146  1.00  0.00     0.000 HD 
HETATM   17  O   UNL     2      -6.978   8.487  66.233  1.00  0.00    -0.074 OA 
HETATM   18  N   UNL     2      -7.368   8.177  68.437  1.00  0.00    -0.092 N  
HETATM   19  C   UNL     2      -8.169   8.251  69.548  1.00  0.00    -0.119 C  
HETATM   20  H   UNL     2      -6.537   7.588  68.500  1.00  0.00     0.000 HD 
ENDROOT
BRANCH  10  21
HETATM   21  C   UNL     2      -8.816  10.590  66.055  1.00  0.00    -0.165 C  
HETATM   22  C   UNL     2     -10.626  11.769  65.044  1.00  0.00    -0.338 C  
HETATM   23  C   UNL     2     -10.213  10.380  65.467  1.00  0.00    -0.316 C  
HETATM   24  C   UNL     2      -9.926  12.639  66.059  1.00  0.00    -0.258 C  
HETATM   25  O   UNL     2      -8.688  11.990  66.359  1.00  0.00    -0.176 OA 
ENDBRANCH  10  21
TORSDOF 1
ENDMDL
MODEL       71
REMARK 921   NORMALIZED FREE ENERGY PREDICTED BY IDOCK:   -4.32 KCAL/MOL
REMARK 922        TOTAL FREE ENERGY PREDICTED BY IDOCK:   -4.91 KCAL/MOL
REMARK 923 INTER-LIGAND FREE ENERGY PREDICTED BY IDOCK:   -4.59 KCAL/MOL
REMARK 924 INTRA-LIGAND FREE ENERGY PREDICTED BY IDOCK:   -0.33 KCAL/MOL
REMARK 927      BINDING AFFINITY PREDICTED BY RF-SCORE:    0.00 PKD
ROOT
HETATM    1  O   UNL     1      -7.066   9.778  64.981  1.00  0.00    -0.107 OA 
HETATM    2  F   UNL     2      -6.530   9.106  68.464  1.00  0.00    -0.051 F  
HETATM    3  C   UNL     1      -8.176  10.145  65.352  1.00  0.00    -0.151 C  
HETATM    4  C   UNL     2      -7.779   9.359  68.892  1.00  0.00    -0.076 C  
HETATM    5  N   UNL     1      -9.140   9.241  65.720  1.00  0.00    -0.193 N  
HETATM    6  H   UNL     1      -8.913   8.248  65.673  1.00  0.00     0.000 HD 
HETATM    7  C   UNL     1     -10.387   9.600  66.145  1.00  0.00    -0.132 C  
HETATM    8  C   UNL     2      -8.637   8.389  69.199  1.00  0.00    -0.134 C  
HETATM    9  C   UNL     1     -10.731  10.882  66.250  1.00  0.00    -0.241 C  
HETATM   10  N   UNL     2      -9.949   8.655  69.555  1.00  0.00    -0.191 N  
HETATM   11  O   UNL     2      -7.541  11.686  68.511  1.00  0.00    -0.114 OA 
HETATM   12  C   UNL     1      -9.743  11.917  65.897  1.00  0.00    -0.238 C  
HETATM   13  C   UNL     2     -10.427   9.960  69.633  1.00  0.00    -0.249 C  
HETATM   14  O   UNL     1     -10.008  13.106  66.035  1.00  0.00    -0.278 OA 
HETATM   15  N   UNL     1      -8.539  11.458  65.434  1.00  0.00    -0.388 N  
HETATM   16  H   UNL     1      -7.860  12.153  65.124  1.00  0.00     0.000 HD 
HETATM   17  O   UNL     2     -11.606  10.254  69.813  1.00  0.00    -0.249 OA 
HETATM   18  N   UNL     2      -9.490  10.949  69.429  1.00  0.00    -0.423 N  
HETATM   19  C   UNL     2      -8.224  10.762  68.936  1.00  0.00    -0.149 C  
HETATM   20  H   UNL     2      -9.762  11.903  69.665  1.00  0.00     0.000 HD 
ENDROOT
BRANCH  10  21
HETATM   21  C   UNL     2     -10.873   7.553  69.818  1.00  0.00    -0.225 C  
HETATM   22  C   UNL     2     -10.757   5.220  70.298  1.00  0.00    -0.221 C  
HETATM   23  C   UNL     2     -10.426   6.219  69.216  1.00  0.00    -0.298 C  
HETATM   24  C   UNL     2     -10.572   6.031  71.557  1.00  0.00    -0.243 C  
HETATM   25  O   UNL     2     -10.981   7.363  71.240  1.00  0.00    -0.238 OA 
ENDBRANCH  10  21
TORSDOF 1
ENDMDL
MODEL       72
REMARK 921   NORMALIZED FREE ENERGY PREDICTED BY IDOCK:   -4.32 KCAL/MOL
REMARK 922        TOTAL FREE ENERGY PREDICTED BY IDOCK:   -4.91 KCAL/MOL
REMARK 923 INTER-LIGAND FREE ENERGY PREDICTED BY IDOCK:   -4.57 KCAL/MOL
REMARK 924 INTRA-LIGAND FREE ENERGY PREDICTED BY IDOCK:   -0.34 KCAL/MOL
REMARK 927      BINDING AFFINITY PREDICTED BY RF-SCORE:    0.00 PKD
ROOT
HETATM    1  O   UNL     1     -12.375  11.502  68.194  1.00  0.00    -0.473 OA 
HETATM    2  F   UNL     2     -10.326   8.699  67.295  1.00  0.00    -0.267 F  
HETATM    3  C   UNL     1     -11.413  12.164  67.821  1.00  0.00    -0.332 C  
HETATM    4  C   UNL     2      -9.201   9.379  67.016  1.00  0.00    -0.142 C  
HETATM    5  N   UNL     1     -10.276  12.262  68.582  1.00  0.00    -0.338 N  
HETATM    6  H   UNL     1     -10.250  11.771  69.476  1.00  0.00     0.000 HD 
HETATM    7  C   UNL     1      -9.177  12.982  68.207  1.00  0.00    -0.191 C  
HETATM    8  C   UNL     2      -8.165   9.418  67.851  1.00  0.00    -0.115 C  
HETATM    9  C   UNL     1      -9.145  13.622  67.041  1.00  0.00    -0.254 C  
HETATM   10  N   UNL     2      -7.044  10.190  67.595  1.00  0.00    -0.085 N  
HETATM   11  O   UNL     2     -10.139  10.309  65.048  1.00  0.00    -0.323 OA 
HETATM   12  C   UNL     1     -10.318  13.546  66.152  1.00  0.00    -0.296 C  
HETATM   13  C   UNL     2      -6.938  10.948  66.432  1.00  0.00    -0.134 C  
HETATM   14  O   UNL     1     -10.301  14.078  65.047  1.00  0.00    -0.381 OA 
HETATM   15  N   UNL     1     -11.388  12.844  66.638  1.00  0.00    -0.301 N  
HETATM   16  H   UNL     1     -12.236  12.828  66.070  1.00  0.00     0.000 HD 
HETATM   17  O   UNL     2      -6.036  11.751  66.212  1.00  0.00    -0.149 OA 
HETATM   18  N   UNL     2      -7.967  10.797  65.529  1.00  0.00    -0.307 N  
HETATM   19  C   UNL     2      -9.162  10.171  65.775  1.00  0.00    -0.178 C  
HETATM   20  H   UNL     2      -7.827  11.186  64.596  1.00  0.00     0.000 HD 
ENDROOT
BRANCH  10  21
HETATM   21  C   UNL     2      -5.961  10.253  68.575  1.00  0.00    -0.040 C  
HETATM   22  C   UNL     2      -5.638   9.789  70.892  1.00  0.00    -0.071 C  
HETATM   23  C   UNL     2      -6.417  10.694  69.968  1.00  0.00    -0.138 C  
HETATM   24  C   UNL     2      -5.502   8.528  70.073  1.00  0.00    -0.025 C  
HETATM   25  O   UNL     2      -5.379   8.946  68.712  1.00  0.00    -0.033 OA 
ENDBRANCH  10  21
TORSDOF 1
ENDMDL
MODEL       73
REMARK 921   NORMALIZED FREE ENERGY PREDICTED BY IDOCK:   -4.29 KCAL/MOL
REMARK 922        TOTAL FREE ENERGY PREDICTED BY IDOCK:   -4.88 KCAL/MOL
REMARK 923 INTER-LIGAND FREE ENERGY PREDICTED BY IDOCK:   -4.56 KCAL/MOL
REMARK 924 INTRA-LIGAND FREE ENERGY PREDICTED BY IDOCK:   -0.33 KCAL/MOL
REMARK 927      BINDING AFFINITY PREDICTED BY RF-SCORE:    0.00 PKD
ROOT
HETATM    1  O   UNL     1     -10.940   6.465  67.366  1.00  0.00    -0.326 OA 
HETATM    2  F   UNL     2      -8.059   5.172  69.065  1.00  0.00    -0.082 F  
HETATM    3  C   UNL     1     -11.129   7.073  68.414  1.00  0.00     0.001 C  
HETATM    4  C   UNL     2      -8.308   5.702  70.275  1.00  0.00    -0.112 C  
HETATM    5  N   UNL     1     -11.600   6.435  69.534  1.00  0.00    -0.616 N  
HETATM    6  H   UNL     1     -11.795   5.435  69.473  1.00  0.00     0.000 HD 
HETATM    7  C   UNL     1     -11.821   7.066  70.725  1.00  0.00    -0.355 C  
HETATM    8  C   UNL     2      -8.789   4.980  71.284  1.00  0.00    -0.134 C  
HETATM    9  C   UNL     1     -11.560   8.363  70.870  1.00  0.00    -0.288 C  
HETATM   10  N   UNL     2      -9.125   5.551  72.501  1.00  0.00    -0.136 N  
HETATM   11  O   UNL     2      -7.834   7.897  69.516  1.00  0.00    -0.105 OA 
HETATM   12  C   UNL     1     -11.027   9.117  69.720  1.00  0.00    -0.181 C  
HETATM   13  C   UNL     2      -8.950   6.912  72.734  1.00  0.00    -0.130 C  
HETATM   14  O   UNL     1     -10.724  10.299  69.835  1.00  0.00    -0.262 OA 
HETATM   15  N   UNL     1     -10.889   8.409  68.557  1.00  0.00    -0.435 N  
HETATM   16  H   UNL     1     -10.581   8.921  67.730  1.00  0.00     0.000 HD 
HETATM   17  O   UNL     2      -9.349   7.498  73.737  1.00  0.00    -0.247 OA 
HETATM   18  N   UNL     2      -8.340   7.615  71.719  1.00  0.00    -0.105 N  
HETATM   19  C   UNL     2      -8.115   7.152  70.447  1.00  0.00    -0.118 C  
HETATM   20  H   UNL     2      -8.027   8.562  71.931  1.00  0.00     0.000 HD 
ENDROOT
BRANCH  10  21
HETATM   21  C   UNL     2      -9.714   4.728  73.557  1.00  0.00    -0.135 C  
HETATM   22  C   UNL     2     -11.196   2.869  73.735  1.00  0.00    -0.263 C  
HETATM   23  C   UNL     2     -11.157   4.306  73.274  1.00  0.00    -0.342 C  
HETATM   24  C   UNL     2      -9.787   2.401  73.461  1.00  0.00    -0.096 C  
HETATM   25  O   UNL     2      -8.938   3.526  73.698  1.00  0.00    -0.091 OA 
ENDBRANCH  10  21
TORSDOF 1
ENDMDL
MODEL       74
REMARK 921   NORMALIZED FREE ENERGY PREDICTED BY IDOCK:   -4.26 KCAL/MOL
REMARK 922        TOTAL FREE ENERGY PREDICTED BY IDOCK:   -4.85 KCAL/MOL
REMARK 923 INTER-LIGAND FREE ENERGY PREDICTED BY IDOCK:   -4.50 KCAL/MOL
REMARK 924 INTRA-LIGAND FREE ENERGY PREDICTED BY IDOCK:   -0.35 KCAL/MOL
REMARK 927      BINDING AFFINITY PREDICTED BY RF-SCORE:    0.00 PKD
ROOT
HETATM    1  O   UNL     1      -7.727   4.221  73.401  1.00  0.00    -0.082 OA 
HETATM    2  F   UNL     2      -9.077   7.340  74.547  1.00  0.00    -0.239 F  
HETATM    3  C   UNL     1      -7.800   4.742  72.293  1.00  0.00    -0.098 C  
HETATM    4  C   UNL     2      -9.311   7.891  73.343  1.00  0.00    -0.282 C  
HETATM    5  N   UNL     1      -9.005   4.895  71.654  1.00  0.00    -0.136 N  
HETATM    6  H   UNL     1      -9.846   4.559  72.124  1.00  0.00     0.000 HD 
HETATM    7  C   UNL     1      -9.139   5.472  70.424  1.00  0.00    -0.139 C  
HETATM    8  C   UNL     2     -10.530   7.961  72.816  1.00  0.00    -0.346 C  
HETATM    9  C   UNL     1      -8.080   5.951  69.775  1.00  0.00    -0.105 C  
HETATM   10  N   UNL     2     -10.751   8.451  71.539  1.00  0.00    -0.232 N  
HETATM   11  O   UNL     2      -6.995   8.165  72.915  1.00  0.00    -0.091 OA 
HETATM   12  C   UNL     1      -6.750   5.849  70.404  1.00  0.00    -0.049 C  
HETATM   13  C   UNL     2      -9.702   8.918  70.752  1.00  0.00    -0.227 C  
HETATM   14  O   UNL     1      -5.763   6.329  69.859  1.00  0.00    -0.013 OA 
HETATM   15  N   UNL     1      -6.713   5.208  71.613  1.00  0.00    -0.049 N  
HETATM   16  H   UNL     1      -5.797   5.068  72.042  1.00  0.00     0.000 HD 
HETATM   17  O   UNL     2      -9.814   9.239  69.572  1.00  0.00    -0.169 OA 
HETATM   18  N   UNL     2      -8.468   8.947  71.364  1.00  0.00    -0.179 N  
HETATM   19  C   UNL     2      -8.153   8.351  72.558  1.00  0.00    -0.116 C  
HETATM   20  H   UNL     2      -7.724   9.456  70.886  1.00  0.00     0.000 HD 
ENDROOT
BRANCH  10  21
HETATM   21  C   UNL     2     -12.101   8.446  70.977  1.00  0.00    -0.198 C  
HETATM   22  C   UNL     2     -14.265   7.642  71.574  1.00  0.00    -0.564 C  
HETATM   23  C   UNL     2     -12.874   7.154  71.248  1.00  0.00    -0.399 C  
HETATM   24  C   UNL     2     -13.997   8.977  72.224  1.00  0.00    -0.455 C  
HETATM   25  O   UNL     2     -12.854   9.523  71.561  1.00  0.00    -0.331 OA 
ENDBRANCH  10  21
TORSDOF 1
ENDMDL
MODEL       75
REMARK 921   NORMALIZED FREE ENERGY PREDICTED BY IDOCK:   -4.21 KCAL/MOL
REMARK 922        TOTAL FREE ENERGY PREDICTED BY IDOCK:   -4.80 KCAL/MOL
REMARK 923 INTER-LIGAND FREE ENERGY PREDICTED BY IDOCK:   -4.67 KCAL/MOL
REMARK 924 INTRA-LIGAND FREE ENERGY PREDICTED BY IDOCK:   -0.14 KCAL/MOL
REMARK 927      BINDING AFFINITY PREDICTED BY RF-SCORE:    0.00 PKD
ROOT
HETATM    1  O   UNL     1      -7.241  10.835  64.991  1.00  0.00     0.028 OA 
HETATM    2  F   UNL     2     -10.774  11.373  64.692  1.00  0.00    -0.330 F  
HETATM    3  C   UNL     1      -7.469  10.845  66.196  1.00  0.00    -0.107 C  
HETATM    4  C   UNL     2     -11.045  11.537  65.999  1.00  0.00    -0.230 C  
HETATM    5  N   UNL     1      -7.735  12.014  66.862  1.00  0.00    -0.312 N  
HETATM    6  H   UNL     1      -7.735  12.884  66.329  1.00  0.00     0.000 HD 
HETATM    7  C   UNL     1      -8.001  12.076  68.200  1.00  0.00    -0.152 C  
HETATM    8  C   UNL     2     -11.265  12.734  66.537  1.00  0.00    -0.307 C  
HETATM    9  C   UNL     1      -8.039  10.971  68.942  1.00  0.00    -0.135 C  
HETATM   10  N   UNL     2     -11.456  12.903  67.898  1.00  0.00    -0.296 N  
HETATM   11  O   UNL     2     -10.651   9.246  66.464  1.00  0.00    -0.178 OA 
HETATM   12  C   UNL     1      -7.789   9.669  68.296  1.00  0.00    -0.085 C  
HETATM   13  C   UNL     2     -11.451  11.818  68.770  1.00  0.00    -0.291 C  
HETATM   14  O   UNL     1      -7.871   8.628  68.938  1.00  0.00    -0.101 OA 
HETATM   15  N   UNL     1      -7.482   9.716  66.963  1.00  0.00    -0.091 N  
HETATM   16  H   UNL     1      -7.243   8.835  66.506  1.00  0.00     0.000 HD 
HETATM   17  O   UNL     2     -11.483  11.915  69.994  1.00  0.00    -0.243 OA 
HETATM   18  N   UNL     2     -11.343  10.580  68.176  1.00  0.00    -0.428 N  
HETATM   19  C   UNL     2     -11.009  10.347  66.866  1.00  0.00    -0.097 C  
HETATM   20  H   UNL     2     -11.526   9.765  68.762  1.00  0.00     0.000 HD 
ENDROOT
BRANCH  10  21
HETATM   21  C   UNL     2     -11.627  14.246  68.451  1.00  0.00    -0.320 C  
HETATM   22  C   UNL     2     -10.302  16.196  68.811  1.00  0.00    -0.248 C  
HETATM   23  C   UNL     2     -10.410  14.750  69.230  1.00  0.00    -0.213 C  
HETATM   24  C   UNL     2     -10.828  16.165  67.396  1.00  0.00    -0.265 C  
HETATM   25  O   UNL     2     -11.854  15.169  67.372  1.00  0.00    -0.264 OA 
ENDBRANCH  10  21
TORSDOF 1
ENDMDL
MODEL       76
REMARK 921   NORMALIZED FREE ENERGY PREDICTED BY IDOCK:   -4.21 KCAL/MOL
REMARK 922        TOTAL FREE ENERGY PREDICTED BY IDOCK:   -4.80 KCAL/MOL
REMARK 923 INTER-LIGAND FREE ENERGY PREDICTED BY IDOCK:   -4.49 KCAL/MOL
REMARK 924 INTRA-LIGAND FREE ENERGY PREDICTED BY IDOCK:   -0.31 KCAL/MOL
REMARK 927      BINDING AFFINITY PREDICTED BY RF-SCORE:    0.00 PKD
ROOT
HETATM    1  O   UNL     1     -11.887   9.914  70.651  1.00  0.00    -0.277 OA 
HETATM    2  F   UNL     2     -12.181   6.519  69.532  1.00  0.00    -0.264 F  
HETATM    3  C   UNL     1     -10.725   9.603  70.888  1.00  0.00    -0.332 C  
HETATM    4  C   UNL     2     -10.962   6.096  69.912  1.00  0.00    -0.389 C  
HETATM    5  N   UNL     1     -10.403   8.816  71.965  1.00  0.00    -0.343 N  
HETATM    6  H   UNL     1     -11.158   8.497  72.572  1.00  0.00     0.000 HD 
HETATM    7  C   UNL     1      -9.126   8.438  72.268  1.00  0.00    -0.243 C  
HETATM    8  C   UNL     2     -10.773   5.351  70.998  1.00  0.00    -0.169 C  
HETATM    9  C   UNL     1      -8.104   8.804  71.497  1.00  0.00    -0.174 C  
HETATM   10  N   UNL     2      -9.507   4.993  71.431  1.00  0.00    -0.148 N  
HETATM   11  O   UNL     2      -9.891   7.373  68.226  1.00  0.00    -0.153 OA 
HETATM   12  C   UNL     1      -8.368   9.630  70.305  1.00  0.00    -0.186 C  
HETATM   13  C   UNL     2      -8.367   5.379  70.731  1.00  0.00    -0.116 C  
HETATM   14  O   UNL     1      -7.458   9.937  69.544  1.00  0.00    -0.085 OA 
HETATM   15  N   UNL     1      -9.673  10.000  70.115  1.00  0.00    -0.394 N  
HETATM   16  H   UNL     1      -9.874  10.623  69.333  1.00  0.00     0.000 HD 
HETATM   17  O   UNL     2      -7.219   5.207  71.132  1.00  0.00    -0.064 OA 
HETATM   18  N   UNL     2      -8.594   6.045  69.547  1.00  0.00    -0.118 N  
HETATM   19  C   UNL     2      -9.799   6.555  69.134  1.00  0.00    -0.144 C  
HETATM   20  H   UNL     2      -7.797   6.171  68.924  1.00  0.00     0.000 HD 
ENDROOT
BRANCH  10  21
HETATM   21  C   UNL     2      -9.346   4.229  72.667  1.00  0.00    -0.122 C  
HETATM   22  C   UNL     2     -10.672   2.832  74.072  1.00  0.00    -0.268 C  
HETATM   23  C   UNL     2     -10.581   4.252  73.569  1.00  0.00    -0.291 C  
HETATM   24  C   UNL     2     -10.107   2.041  72.917  1.00  0.00    -0.117 C  
HETATM   25  O   UNL     2      -9.085   2.854  72.336  1.00  0.00    -0.090 OA 
ENDBRANCH  10  21
TORSDOF 1
ENDMDL
MODEL       77
REMARK 921   NORMALIZED FREE ENERGY PREDICTED BY IDOCK:   -4.20 KCAL/MOL
REMARK 922        TOTAL FREE ENERGY PREDICTED BY IDOCK:   -4.79 KCAL/MOL
REMARK 923 INTER-LIGAND FREE ENERGY PREDICTED BY IDOCK:   -5.26 KCAL/MOL
REMARK 924 INTRA-LIGAND FREE ENERGY PREDICTED BY IDOCK:    0.48 KCAL/MOL
REMARK 927      BINDING AFFINITY PREDICTED BY RF-SCORE:    0.00 PKD
ROOT
HETATM    1  O   UNL     1      -8.600  12.020  67.002  1.00  0.00    -0.174 OA 
HETATM    2  F   UNL     2     -11.731  13.713  67.443  1.00  0.00    -0.324 F  
HETATM    3  C   UNL     1      -8.122  13.050  67.465  1.00  0.00    -0.179 C  
HETATM    4  C   UNL     2     -11.241  14.908  67.815  1.00  0.00    -0.321 C  
HETATM    5  N   UNL     1      -8.044  14.199  66.719  1.00  0.00    -0.348 N  
HETATM    6  H   UNL     1      -8.391  14.176  65.760  1.00  0.00     0.000 HD 
HETATM    7  C   UNL     1      -7.526  15.371  67.192  1.00  0.00    -0.189 C  
HETATM    8  C   UNL     2     -11.197  15.950  66.988  1.00  0.00    -0.024 C  
HETATM    9  C   UNL     1      -7.081  15.466  68.443  1.00  0.00    -0.111 C  
HETATM   10  N   UNL     2     -10.611  17.151  67.350  1.00  0.00    -0.326 N  
HETATM   11  O   UNL     2     -10.520  14.065  69.910  1.00  0.00     0.256 OA 
HETATM   12  C   UNL     1      -7.153  14.282  69.318  1.00  0.00    -0.107 C  
HETATM   13  C   UNL     2     -10.059  17.334  68.615  1.00  0.00    -0.341 C  
HETATM   14  O   UNL     1      -6.804  14.351  70.491  1.00  0.00    -0.001 OA 
HETATM   15  N   UNL     1      -7.640  13.142  68.738  1.00  0.00    -0.266 N  
HETATM   16  H   UNL     1      -7.642  12.292  69.304  1.00  0.00     0.000 HD 
HETATM   17  O   UNL     2      -9.413  18.323  68.950  1.00  0.00    -0.296 OA 
HETATM   18  N   UNL     2     -10.224  16.285  69.492  1.00  0.00    -0.262 N  
HETATM   19  C   UNL     2     -10.659  15.027  69.162  1.00  0.00    -0.251 C  
HETATM   20  H   UNL     2     -10.003  16.460  70.473  1.00  0.00     0.000 HD 
ENDROOT
BRANCH  10  21
HETATM   21  C   UNL     2     -10.527  18.245  66.383  1.00  0.00    -0.366 C  
HETATM   22  C   UNL     2      -9.831  20.525  66.343  1.00  0.00    -0.279 C  
HETATM   23  C   UNL     2     -10.857  19.616  66.976  1.00  0.00    -0.518 C  
HETATM   24  C   UNL     2      -8.648  19.605  66.165  1.00  0.00    -0.333 C  
HETATM   25  O   UNL     2      -9.185  18.313  65.872  1.00  0.00    -0.503 OA 
ENDBRANCH  10  21
TORSDOF 1
ENDMDL
MODEL       78
REMARK 921   NORMALIZED FREE ENERGY PREDICTED BY IDOCK:   -4.17 KCAL/MOL
REMARK 922        TOTAL FREE ENERGY PREDICTED BY IDOCK:   -4.76 KCAL/MOL
REMARK 923 INTER-LIGAND FREE ENERGY PREDICTED BY IDOCK:   -4.85 KCAL/MOL
REMARK 924 INTRA-LIGAND FREE ENERGY PREDICTED BY IDOCK:    0.09 KCAL/MOL
REMARK 927      BINDING AFFINITY PREDICTED BY RF-SCORE:    0.00 PKD
ROOT
HETATM    1  O   UNL     1     -12.543  15.438  69.571  1.00  0.00    -0.154 OA 
HETATM    2  F   UNL     2     -11.958  12.419  67.724  1.00  0.00    -0.387 F  
HETATM    3  C   UNL     1     -11.373  15.682  69.298  1.00  0.00    -0.345 C  
HETATM    4  C   UNL     2     -10.637  12.579  67.528  1.00  0.00    -0.220 C  
HETATM    5  N   UNL     1     -10.342  15.039  69.934  1.00  0.00    -0.450 N  
HETATM    6  H   UNL     1     -10.572  14.349  70.649  1.00  0.00     0.000 HD 
HETATM    7  C   UNL     1      -9.024  15.272  69.661  1.00  0.00    -0.115 C  
HETATM    8  C   UNL     2      -9.726  11.909  68.229  1.00  0.00    -0.200 C  
HETATM    9  C   UNL     1      -8.665  16.143  68.720  1.00  0.00    -0.240 C  
HETATM   10  N   UNL     2      -8.369  12.143  68.082  1.00  0.00    -0.163 N  
HETATM   11  O   UNL     2     -10.984  14.361  66.003  1.00  0.00    -0.305 OA 
HETATM   12  C   UNL     1      -9.714  16.859  67.972  1.00  0.00    -0.256 C  
HETATM   13  C   UNL     2      -7.891  13.080  67.170  1.00  0.00    -0.063 C  
HETATM   14  O   UNL     1      -9.420  17.626  67.062  1.00  0.00    -0.252 OA 
HETATM   15  N   UNL     1     -11.002  16.595  68.353  1.00  0.00    -0.357 N  
HETATM   16  H   UNL     1     -11.745  17.123  67.894  1.00  0.00     0.000 HD 
HETATM   17  O   UNL     2      -6.715  13.425  67.088  1.00  0.00    -0.165 OA 
HETATM   18  N   UNL     2      -8.844  13.672  66.373  1.00  0.00    -0.455 N  
HETATM   19  C   UNL     2     -10.201  13.598  66.558  1.00  0.00    -0.284 C  
HETATM   20  H   UNL     2      -8.512  14.213  65.574  1.00  0.00     0.000 HD 
ENDROOT
BRANCH  10  21
HETATM   21  C   UNL     2      -7.409  11.429  68.924  1.00  0.00    -0.114 C  
HETATM   22  C   UNL     2      -6.920   9.177  69.536  1.00  0.00    -0.051 C  
HETATM   23  C   UNL     2      -8.005  10.221  69.648  1.00  0.00    -0.164 C  
HETATM   24  C   UNL     2      -6.273   9.521  68.216  1.00  0.00    -0.052 C  
HETATM   25  O   UNL     2      -6.336  10.945  68.099  1.00  0.00    -0.056 OA 
ENDBRANCH  10  21
TORSDOF 1
ENDMDL
MODEL       79
REMARK 921   NORMALIZED FREE ENERGY PREDICTED BY IDOCK:   -4.13 KCAL/MOL
REMARK 922        TOTAL FREE ENERGY PREDICTED BY IDOCK:   -4.71 KCAL/MOL
REMARK 923 INTER-LIGAND FREE ENERGY PREDICTED BY IDOCK:   -5.27 KCAL/MOL
REMARK 924 INTRA-LIGAND FREE ENERGY PREDICTED BY IDOCK:    0.56 KCAL/MOL
REMARK 927      BINDING AFFINITY PREDICTED BY RF-SCORE:    0.00 PKD
ROOT
HETATM    1  O   UNL     1      -8.438   9.773  70.643  1.00  0.00    -0.200 OA 
HETATM    2  F   UNL     2      -6.924  12.340  68.648  1.00  0.00    -0.074 F  
HETATM    3  C   UNL     1      -9.132   9.586  69.650  1.00  0.00    -0.196 C  
HETATM    4  C   UNL     2      -7.757  12.267  67.596  1.00  0.00    -0.144 C  
HETATM    5  N   UNL     1     -10.141  10.452  69.311  1.00  0.00    -0.220 N  
HETATM    6  H   UNL     1     -10.306  11.259  69.912  1.00  0.00     0.000 HD 
HETATM    7  C   UNL     1     -10.937  10.290  68.213  1.00  0.00    -0.264 C  
HETATM    8  C   UNL     2      -8.720  13.162  67.385  1.00  0.00    -0.206 C  
HETATM    9  C   UNL     1     -10.753   9.268  67.380  1.00  0.00    -0.263 C  
HETATM   10  N   UNL     2      -9.628  13.032  66.348  1.00  0.00    -0.266 N  
HETATM   11  O   UNL     2      -6.888  10.164  66.933  1.00  0.00    -0.081 OA 
HETATM   12  C   UNL     1      -9.672   8.305  67.659  1.00  0.00    -0.159 C  
HETATM   13  C   UNL     2      -9.561  11.965  65.457  1.00  0.00    -0.182 C  
HETATM   14  O   UNL     1      -9.439   7.386  66.883  1.00  0.00    -0.146 OA 
HETATM   15  N   UNL     1      -8.963   8.524  68.810  1.00  0.00    -0.139 N  
HETATM   16  H   UNL     1      -8.250   7.837  69.059  1.00  0.00     0.000 HD 
HETATM   17  O   UNL     2     -10.411  11.724  64.603  1.00  0.00    -0.269 OA 
HETATM   18  N   UNL     2      -8.487  11.120  65.622  1.00  0.00    -0.347 N  
HETATM   19  C   UNL     2      -7.640  11.104  66.701  1.00  0.00    -0.147 C  
HETATM   20  H   UNL     2      -8.305  10.448  64.877  1.00  0.00     0.000 HD 
ENDROOT
BRANCH  10  21
HETATM   21  C   UNL     2     -10.710  14.005  66.197  1.00  0.00    -0.289 C  
HETATM   22  C   UNL     2     -12.238  14.709  64.508  1.00  0.00    -0.473 C  
HETATM   23  C   UNL     2     -10.761  14.659  64.815  1.00  0.00    -0.399 C  
HETATM   24  C   UNL     2     -12.760  13.484  65.219  1.00  0.00    -0.427 C  
HETATM   25  O   UNL     2     -11.968  13.340  66.401  1.00  0.00    -0.384 OA 
ENDBRANCH  10  21
TORSDOF 1
ENDMDL
MODEL       80
REMARK 921   NORMALIZED FREE ENERGY PREDICTED BY IDOCK:   -4.09 KCAL/MOL
REMARK 922        TOTAL FREE ENERGY PREDICTED BY IDOCK:   -4.67 KCAL/MOL
REMARK 923 INTER-LIGAND FREE ENERGY PREDICTED BY IDOCK:   -4.93 KCAL/MOL
REMARK 924 INTRA-LIGAND FREE ENERGY PREDICTED BY IDOCK:    0.26 KCAL/MOL
REMARK 927      BINDING AFFINITY PREDICTED BY RF-SCORE:    0.00 PKD
ROOT
HETATM    1  O   UNL     1      -6.713   7.104  66.245  1.00  0.00    -0.051 OA 
HETATM    2  F   UNL     2     -10.076   8.326  66.006  1.00  0.00    -0.274 F  
HETATM    3  C   UNL     1      -7.105   6.600  67.292  1.00  0.00    -0.080 C  
HETATM    4  C   UNL     2     -10.505   7.916  67.213  1.00  0.00    -0.320 C  
HETATM    5  N   UNL     1      -7.316   7.360  68.415  1.00  0.00    -0.100 N  
HETATM    6  H   UNL     1      -7.134   8.362  68.360  1.00  0.00     0.000 HD 
HETATM    7  C   UNL     1      -7.757   6.846  69.601  1.00  0.00    -0.110 C  
HETATM    8  C   UNL     2     -10.650   8.751  68.239  1.00  0.00    -0.142 C  
HETATM    9  C   UNL     1      -8.034   5.550  69.724  1.00  0.00    -0.090 C  
HETATM   10  N   UNL     2     -11.008   8.308  69.501  1.00  0.00    -0.114 N  
HETATM   11  O   UNL     2     -10.465   5.638  66.559  1.00  0.00    -0.242 OA 
HETATM   12  C   UNL     1      -7.857   4.668  68.556  1.00  0.00    -0.080 C  
HETATM   13  C   UNL     2     -11.258   6.961  69.751  1.00  0.00    -0.267 C  
HETATM   14  O   UNL     1      -8.156   3.481  68.619  1.00  0.00    -0.065 OA 
HETATM   15  N   UNL     1      -7.363   5.267  67.429  1.00  0.00    -0.081 N  
HETATM   16  H   UNL     1      -7.172   4.667  66.625  1.00  0.00     0.000 HD 
HETATM   17  O   UNL     2     -11.449   6.491  70.869  1.00  0.00    -0.312 OA 
HETATM   18  N   UNL     2     -11.220   6.136  68.649  1.00  0.00    -0.405 N  
HETATM   19  C   UNL     2     -10.737   6.476  67.411  1.00  0.00    -0.340 C  
HETATM   20  H   UNL     2     -11.583   5.190  68.764  1.00  0.00     0.000 HD 
ENDROOT
BRANCH  10  21
HETATM   21  C   UNL     2     -11.088   9.255  70.613  1.00  0.00    -0.276 C  
HETATM   22  C   UNL     2     -12.319  11.215  71.185  1.00  0.00    -0.451 C  
HETATM   23  C   UNL     2     -11.324  10.701  70.173  1.00  0.00    -0.402 C  
HETATM   24  C   UNL     2     -13.109   9.974  71.524  1.00  0.00    -0.433 C  
HETATM   25  O   UNL     2     -12.187   8.884  71.463  1.00  0.00    -0.297 OA 
ENDBRANCH  10  21
TORSDOF 1
ENDMDL
MODEL       81
REMARK 921   NORMALIZED FREE ENERGY PREDICTED BY IDOCK:   -4.06 KCAL/MOL
REMARK 922        TOTAL FREE ENERGY PREDICTED BY IDOCK:   -4.63 KCAL/MOL
REMARK 923 INTER-LIGAND FREE ENERGY PREDICTED BY IDOCK:   -4.29 KCAL/MOL
REMARK 924 INTRA-LIGAND FREE ENERGY PREDICTED BY IDOCK:   -0.35 KCAL/MOL
REMARK 927      BINDING AFFINITY PREDICTED BY RF-SCORE:    0.00 PKD
ROOT
HETATM    1  O   UNL     1     -10.374   2.713  71.536  1.00  0.00     0.099 OA 
HETATM    2  F   UNL     2     -12.391   5.549  72.404  1.00  0.00    -0.273 F  
HETATM    3  C   UNL     1      -9.436   3.474  71.750  1.00  0.00    -0.142 C  
HETATM    4  C   UNL     2     -11.400   6.453  72.506  1.00  0.00    -0.264 C  
HETATM    5  N   UNL     1      -9.104   4.465  70.861  1.00  0.00    -0.121 N  
HETATM    6  H   UNL     1      -9.658   4.554  70.009  1.00  0.00     0.000 HD 
HETATM    7  C   UNL     1      -8.074   5.340  71.056  1.00  0.00    -0.112 C  
HETATM    8  C   UNL     2     -11.161   7.357  71.559  1.00  0.00    -0.243 C  
HETATM    9  C   UNL     1      -7.334   5.288  72.162  1.00  0.00    -0.092 C  
HETATM   10  N   UNL     2     -10.086   8.227  71.630  1.00  0.00    -0.198 N  
HETATM   11  O   UNL     2     -10.571   5.460  74.492  1.00  0.00    -0.287 OA 
HETATM   12  C   UNL     1      -7.641   4.267  73.180  1.00  0.00    -0.081 C  
HETATM   13  C   UNL     2      -9.213   8.212  72.715  1.00  0.00    -0.271 C  
HETATM   14  O   UNL     1      -7.015   4.227  74.233  1.00  0.00    -0.065 OA 
HETATM   15  N   UNL     1      -8.658   3.405  72.869  1.00  0.00    -0.081 N  
HETATM   16  H   UNL     1      -8.850   2.650  73.528  1.00  0.00     0.000 HD 
HETATM   17  O   UNL     2      -8.174   8.862  72.773  1.00  0.00    -0.387 OA 
HETATM   18  N   UNL     2      -9.551   7.352  73.736  1.00  0.00    -0.277 N  
HETATM   19  C   UNL     2     -10.506   6.369  73.672  1.00  0.00    -0.295 C  
HETATM   20  H   UNL     2      -9.046   7.454  74.616  1.00  0.00     0.000 HD 
ENDROOT
BRANCH  10  21
HETATM   21  C   UNL     2      -9.825   9.158  70.533  1.00  0.00    -0.233 C  
HETATM   22  C   UNL     2     -10.735   9.669  68.389  1.00  0.00    -0.251 C  
HETATM   23  C   UNL     2     -10.055   8.554  69.146  1.00  0.00    -0.207 C  
HETATM   24  C   UNL     2     -11.507  10.377  69.475  1.00  0.00    -0.246 C  
HETATM   25  O   UNL     2     -10.709  10.286  70.658  1.00  0.00    -0.258 OA 
ENDBRANCH  10  21
TORSDOF 1
ENDMDL
MODEL       82
REMARK 921   NORMALIZED FREE ENERGY PREDICTED BY IDOCK:   -4.04 KCAL/MOL
REMARK 922        TOTAL FREE ENERGY PREDICTED BY IDOCK:   -4.61 KCAL/MOL
REMARK 923 INTER-LIGAND FREE ENERGY PREDICTED BY IDOCK:   -5.09 KCAL/MOL
REMARK 924 INTRA-LIGAND FREE ENERGY PREDICTED BY IDOCK:    0.48 KCAL/MOL
REMARK 927      BINDING AFFINITY PREDICTED BY RF-SCORE:    0.00 PKD
ROOT
HETATM    1  O   UNL     1      -7.248  18.697  69.598  1.00  0.00    -0.008 OA 
HETATM    2  F   UNL     2     -10.734  17.863  69.474  1.00  0.00    -0.154 F  
HETATM    3  C   UNL     1      -7.163  17.944  68.634  1.00  0.00    -0.272 C  
HETATM    4  C   UNL     2     -10.662  16.921  68.518  1.00  0.00    -0.359 C  
HETATM    5  N   UNL     1      -7.236  16.582  68.784  1.00  0.00    -0.184 N  
HETATM    6  H   UNL     1      -7.359  16.206  69.724  1.00  0.00     0.000 HD 
HETATM    7  C   UNL     1      -7.153  15.703  67.742  1.00  0.00    -0.153 C  
HETATM    8  C   UNL     2     -10.722  15.620  68.792  1.00  0.00    -0.250 C  
HETATM    9  C   UNL     1      -7.017  16.137  66.491  1.00  0.00     0.231 C  
HETATM   10  N   UNL     2     -10.560  14.655  67.812  1.00  0.00    -0.249 N  
HETATM   11  O   UNL     2     -10.195  18.528  66.839  1.00  0.00    -0.341 OA 
HETATM   12  C   UNL     1      -6.956  17.588  66.241  1.00  0.00    -0.297 C  
HETATM   13  C   UNL     2     -10.349  15.004  66.481  1.00  0.00    -0.284 C  
HETATM   14  O   UNL     1      -6.887  18.023  65.097  1.00  0.00    -0.334 OA 
HETATM   15  N   UNL     1      -6.996  18.386  67.353  1.00  0.00    -0.202 N  
HETATM   16  H   UNL     1      -6.893  19.391  67.213  1.00  0.00     0.000 HD 
HETATM   17  O   UNL     2     -10.068  14.202  65.594  1.00  0.00    -0.312 OA 
HETATM   18  N   UNL     2     -10.412  16.351  66.203  1.00  0.00    -0.328 N  
HETATM   19  C   UNL     2     -10.424  17.360  67.133  1.00  0.00    -0.305 C  
HETATM   20  H   UNL     2     -10.452  16.622  65.221  1.00  0.00     0.000 HD 
ENDROOT
BRANCH  10  21
HETATM   21  C   UNL     2     -10.567  13.238  68.174  1.00  0.00    -0.249 C  
HETATM   22  C   UNL     2     -10.497  11.127  67.068  1.00  0.00    -0.277 C  
HETATM   23  C   UNL     2     -11.357  12.359  67.202  1.00  0.00    -0.390 C  
HETATM   24  C   UNL     2      -9.104  11.682  67.241  1.00  0.00    -0.167 C  
HETATM   25  O   UNL     2      -9.214  12.752  68.183  1.00  0.00    -0.204 OA 
ENDBRANCH  10  21
TORSDOF 1
ENDMDL
MODEL       83
REMARK 921   NORMALIZED FREE ENERGY PREDICTED BY IDOCK:   -4.04 KCAL/MOL
REMARK 922        TOTAL FREE ENERGY PREDICTED BY IDOCK:   -4.61 KCAL/MOL
REMARK 923 INTER-LIGAND FREE ENERGY PREDICTED BY IDOCK:   -4.28 KCAL/MOL
REMARK 924 INTRA-LIGAND FREE ENERGY PREDICTED BY IDOCK:   -0.33 KCAL/MOL
REMARK 927      BINDING AFFINITY PREDICTED BY RF-SCORE:    0.00 PKD
ROOT
HETATM    1  O   UNL     1      -7.597  11.381  69.011  1.00  0.00    -0.126 OA 
HETATM    2  F   UNL     2      -8.179   9.049  71.674  1.00  0.00    -0.187 F  
HETATM    3  C   UNL     1      -8.508  10.777  68.453  1.00  0.00    -0.137 C  
HETATM    4  C   UNL     2      -9.076   8.272  71.043  1.00  0.00    -0.158 C  
HETATM    5  N   UNL     1      -8.314   9.529  67.918  1.00  0.00    -0.114 N  
HETATM    6  H   UNL     1      -7.386   9.112  67.991  1.00  0.00     0.000 HD 
HETATM    7  C   UNL     1      -9.296   8.815  67.293  1.00  0.00    -0.147 C  
HETATM    8  C   UNL     2      -8.760   7.080  70.542  1.00  0.00    -0.153 C  
HETATM    9  C   UNL     1     -10.532   9.298  67.191  1.00  0.00    -0.319 C  
HETATM   10  N   UNL     2      -9.666   6.324  69.818  1.00  0.00    -0.159 N  
HETATM   11  O   UNL     2     -10.737   9.962  71.122  1.00  0.00    -0.283 OA 
HETATM   12  C   UNL     1     -10.830  10.624  67.763  1.00  0.00    -0.286 C  
HETATM   13  C   UNL     2     -10.967   6.769  69.599  1.00  0.00    -0.288 C  
HETATM   14  O   UNL     1     -11.970  11.074  67.735  1.00  0.00    -0.609 OA 
HETATM   15  N   UNL     1      -9.768  11.282  68.323  1.00  0.00    -0.191 N  
HETATM   16  H   UNL     1      -9.934  12.228  68.670  1.00  0.00     0.000 HD 
HETATM   17  O   UNL     2     -11.772   6.210  68.858  1.00  0.00     0.011 OA 
HETATM   18  N   UNL     2     -11.306   7.946  70.228  1.00  0.00    -0.428 N  
HETATM   19  C   UNL     2     -10.430   8.811  70.833  1.00  0.00    -0.221 C  
HETATM   20  H   UNL     2     -12.295   8.196  70.244  1.00  0.00     0.000 HD 
ENDROOT
BRANCH  10  21
HETATM   21  C   UNL     2      -9.251   5.051  69.230  1.00  0.00    -0.109 C  
HETATM   22  C   UNL     2      -7.466   3.488  69.467  1.00  0.00    -0.048 C  
HETATM   23  C   UNL     2      -7.737   4.917  69.061  1.00  0.00    -0.072 C  
HETATM   24  C   UNL     2      -8.532   3.238  70.506  1.00  0.00    -0.060 C  
HETATM   25  O   UNL     2      -9.681   3.980  70.088  1.00  0.00    -0.196 OA 
ENDBRANCH  10  21
TORSDOF 1
ENDMDL
MODEL       84
REMARK 921   NORMALIZED FREE ENERGY PREDICTED BY IDOCK:   -4.03 KCAL/MOL
REMARK 922        TOTAL FREE ENERGY PREDICTED BY IDOCK:   -4.61 KCAL/MOL
REMARK 923 INTER-LIGAND FREE ENERGY PREDICTED BY IDOCK:   -4.27 KCAL/MOL
REMARK 924 INTRA-LIGAND FREE ENERGY PREDICTED BY IDOCK:   -0.34 KCAL/MOL
REMARK 927      BINDING AFFINITY PREDICTED BY RF-SCORE:    0.00 PKD
ROOT
HETATM    1  O   UNL     1      -8.070   7.780  65.489  1.00  0.00    -0.113 OA 
HETATM    2  F   UNL     2     -11.225   6.379  66.461  1.00  0.00    -0.391 F  
HETATM    3  C   UNL     1      -7.652   7.214  66.493  1.00  0.00    -0.092 C  
HETATM    4  C   UNL     2     -10.841   5.867  67.643  1.00  0.00    -0.239 C  
HETATM    5  N   UNL     1      -7.916   7.700  67.749  1.00  0.00    -0.119 N  
HETATM    6  H   UNL     1      -8.469   8.553  67.829  1.00  0.00     0.000 HD 
HETATM    7  C   UNL     1      -7.478   7.103  68.896  1.00  0.00    -0.099 C  
HETATM    8  C   UNL     2     -11.141   6.447  68.803  1.00  0.00    -0.326 C  
HETATM    9  C   UNL     1      -6.774   5.974  68.853  1.00  0.00    -0.060 C  
HETATM   10  N   UNL     2     -10.667   5.962  70.011  1.00  0.00    -0.298 N  
HETATM   11  O   UNL     2      -9.539   4.184  66.598  1.00  0.00    -0.182 OA 
HETATM   12  C   UNL     1      -6.469   5.372  67.543  1.00  0.00    -0.051 C  
HETATM   13  C   UNL     2      -9.870   4.822  70.070  1.00  0.00    -0.227 C  
HETATM   14  O   UNL     1      -5.871   4.304  67.470  1.00  0.00    -0.021 OA 
HETATM   15  N   UNL     1      -6.907   6.072  66.450  1.00  0.00    -0.060 N  
HETATM   16  H   UNL     1      -6.655   5.710  65.530  1.00  0.00     0.000 HD 
HETATM   17  O   UNL     2      -9.313   4.421  71.089  1.00  0.00    -0.129 OA 
HETATM   18  N   UNL     2      -9.673   4.172  68.872  1.00  0.00    -0.146 N  
HETATM   19  C   UNL     2      -9.986   4.668  67.632  1.00  0.00    -0.106 C  
HETATM   20  H   UNL     2      -9.259   3.241  68.911  1.00  0.00     0.000 HD 
ENDROOT
BRANCH  10  21
HETATM   21  C   UNL     2     -10.969   6.672  71.253  1.00  0.00    -0.253 C  
HETATM   22  C   UNL     2     -11.686   8.846  71.921  1.00  0.00    -0.439 C  
HETATM   23  C   UNL     2     -10.538   8.140  71.241  1.00  0.00    -0.258 C  
HETATM   24  C   UNL     2     -12.869   7.993  71.531  1.00  0.00    -0.311 C  
HETATM   25  O   UNL     2     -12.390   6.647  71.471  1.00  0.00    -0.349 OA 
ENDBRANCH  10  21
TORSDOF 1
ENDMDL
MODEL       85
REMARK 921   NORMALIZED FREE ENERGY PREDICTED BY IDOCK:   -4.00 KCAL/MOL
REMARK 922        TOTAL FREE ENERGY PREDICTED BY IDOCK:   -4.57 KCAL/MOL
REMARK 923 INTER-LIGAND FREE ENERGY PREDICTED BY IDOCK:   -4.23 KCAL/MOL
REMARK 924 INTRA-LIGAND FREE ENERGY PREDICTED BY IDOCK:   -0.34 KCAL/MOL
REMARK 927      BINDING AFFINITY PREDICTED BY RF-SCORE:    0.00 PKD
ROOT
HETATM    1  O   UNL     1     -10.812   5.231  66.651  1.00  0.00    -0.258 OA 
HETATM    2  F   UNL     2      -8.158   4.688  69.003  1.00  0.00    -0.075 F  
HETATM    3  C   UNL     1     -10.676   6.409  66.963  1.00  0.00    -0.363 C  
HETATM    4  C   UNL     2      -8.077   5.943  69.478  1.00  0.00    -0.106 C  
HETATM    5  N   UNL     1     -11.129   6.886  68.167  1.00  0.00    -0.514 N  
HETATM    6  H   UNL     1     -11.589   6.234  68.802  1.00  0.00     0.000 HD 
HETATM    7  C   UNL     1     -10.997   8.187  68.561  1.00  0.00     0.227 C  
HETATM    8  C   UNL     2      -8.578   6.291  70.661  1.00  0.00    -0.139 C  
HETATM    9  C   UNL     1     -10.383   9.077  67.785  1.00  0.00    -0.304 C  
HETATM   10  N   UNL     2      -8.568   7.602  71.105  1.00  0.00    -0.129 N  
HETATM   11  O   UNL     2      -7.155   6.752  67.450  1.00  0.00    -0.079 OA 
HETATM   12  C   UNL     1      -9.845   8.640  66.484  1.00  0.00    -0.278 C  
HETATM   13  C   UNL     2      -8.006   8.621  70.340  1.00  0.00    -0.101 C  
HETATM   14  O   UNL     1      -9.226   9.420  65.770  1.00  0.00    -0.184 OA 
HETATM   15  N   UNL     1     -10.072   7.330  66.156  1.00  0.00    -0.406 N  
HETATM   16  H   UNL     1      -9.765   7.017  65.235  1.00  0.00     0.000 HD 
HETATM   17  O   UNL     2      -8.083   9.815  70.617  1.00  0.00    -0.264 OA 
HETATM   18  N   UNL     2      -7.388   8.218  69.178  1.00  0.00    -0.079 N  
HETATM   19  C   UNL     2      -7.484   6.973  68.610  1.00  0.00    -0.102 C  
HETATM   20  H   UNL     2      -6.807   8.906  68.697  1.00  0.00     0.000 HD 
ENDROOT
BRANCH  10  21
HETATM   21  C   UNL     2      -9.191   7.946  72.383  1.00  0.00    -0.181 C  
HETATM   22  C   UNL     2     -10.320   6.829  74.161  1.00  0.00    -0.322 C  
HETATM   23  C   UNL     2     -10.452   7.136  72.689  1.00  0.00    -0.269 C  
HETATM   24  C   UNL     2      -8.824   6.738  74.341  1.00  0.00    -0.179 C  
HETATM   25  O   UNL     2      -8.253   7.692  73.443  1.00  0.00    -0.124 OA 
ENDBRANCH  10  21
TORSDOF 1
ENDMDL
MODEL       86
REMARK 921   NORMALIZED FREE ENERGY PREDICTED BY IDOCK:   -3.95 KCAL/MOL
REMARK 922        TOTAL FREE ENERGY PREDICTED BY IDOCK:   -4.53 KCAL/MOL
REMARK 923 INTER-LIGAND FREE ENERGY PREDICTED BY IDOCK:   -4.28 KCAL/MOL
REMARK 924 INTRA-LIGAND FREE ENERGY PREDICTED BY IDOCK:   -0.24 KCAL/MOL
REMARK 927      BINDING AFFINITY PREDICTED BY RF-SCORE:    0.00 PKD
ROOT
HETATM    1  O   UNL     1      -7.955   5.611  69.332  1.00  0.00    -0.096 OA 
HETATM    2  F   UNL     2      -7.975   8.516  71.435  1.00  0.00    -0.095 F  
HETATM    3  C   UNL     1      -8.450   6.364  68.501  1.00  0.00    -0.119 C  
HETATM    4  C   UNL     2      -8.648   9.335  70.608  1.00  0.00    -0.225 C  
HETATM    5  N   UNL     1      -9.760   6.763  68.589  1.00  0.00    -0.131 N  
HETATM    6  H   UNL     1     -10.319   6.412  69.367  1.00  0.00     0.000 HD 
HETATM    7  C   UNL     1     -10.355   7.604  67.693  1.00  0.00    -0.237 C  
HETATM    8  C   UNL     2      -9.933   9.630  70.787  1.00  0.00    -0.189 C  
HETATM    9  C   UNL     1      -9.667   8.114  66.673  1.00  0.00    -0.318 C  
HETATM   10  N   UNL     2     -10.641  10.404  69.883  1.00  0.00    -0.266 N  
HETATM   11  O   UNL     2      -6.816   9.481  69.111  1.00  0.00    -0.049 OA 
HETATM   12  C   UNL     1      -8.245   7.755  66.521  1.00  0.00    -0.124 C  
HETATM   13  C   UNL     2     -10.030  10.933  68.749  1.00  0.00    -0.195 C  
HETATM   14  O   UNL     1      -7.569   8.249  65.626  1.00  0.00    -0.078 OA 
HETATM   15  N   UNL     1      -7.754   6.865  67.439  1.00  0.00    -0.108 N  
HETATM   16  H   UNL     1      -6.791   6.552  67.319  1.00  0.00     0.000 HD 
HETATM   17  O   UNL     2     -10.631  11.512  67.848  1.00  0.00    -0.180 OA 
HETATM   18  N   UNL     2      -8.675  10.714  68.649  1.00  0.00    -0.140 N  
HETATM   19  C   UNL     2      -7.944   9.846  69.420  1.00  0.00    -0.135 C  
HETATM   20  H   UNL     2      -8.169  11.245  67.939  1.00  0.00     0.000 HD 
ENDROOT
BRANCH  10  21
HETATM   21  C   UNL     2     -12.069  10.646  70.088  1.00  0.00    -0.333 C  
HETATM   22  C   UNL     2     -13.596  10.795  71.913  1.00  0.00    -0.178 C  
HETATM   23  C   UNL     2     -12.676   9.818  71.223  1.00  0.00    -0.464 C  
HETATM   24  C   UNL     2     -12.890  12.112  71.703  1.00  0.00    -0.285 C  
HETATM   25  O   UNL     2     -12.265  12.031  70.420  1.00  0.00    -0.334 OA 
ENDBRANCH  10  21
TORSDOF 1
ENDMDL
MODEL       87
REMARK 921   NORMALIZED FREE ENERGY PREDICTED BY IDOCK:   -3.94 KCAL/MOL
REMARK 922        TOTAL FREE ENERGY PREDICTED BY IDOCK:   -4.52 KCAL/MOL
REMARK 923 INTER-LIGAND FREE ENERGY PREDICTED BY IDOCK:   -4.19 KCAL/MOL
REMARK 924 INTRA-LIGAND FREE ENERGY PREDICTED BY IDOCK:   -0.33 KCAL/MOL
REMARK 927      BINDING AFFINITY PREDICTED BY RF-SCORE:    0.00 PKD
ROOT
HETATM    1  O   UNL     1      -5.880   9.920  68.139  1.00  0.00    -0.043 OA 
HETATM    2  F   UNL     2      -9.342  10.479  68.891  1.00  0.00    -0.152 F  
HETATM    3  C   UNL     1      -6.295   8.911  67.579  1.00  0.00    -0.056 C  
HETATM    4  C   UNL     2      -9.821   9.315  68.418  1.00  0.00    -0.155 C  
HETATM    5  N   UNL     1      -6.712   7.818  68.295  1.00  0.00    -0.064 N  
HETATM    6  H   UNL     1      -6.664   7.861  69.313  1.00  0.00     0.000 HD 
HETATM    7  C   UNL     1      -7.187   6.675  67.718  1.00  0.00    -0.091 C  
HETATM    8  C   UNL     2     -10.173   8.312  69.219  1.00  0.00    -0.204 C  
HETATM    9  C   UNL     1      -7.294   6.570  66.395  1.00  0.00    -0.074 C  
HETATM   10  N   UNL     2     -10.584   7.086  68.722  1.00  0.00    -0.213 N  
HETATM   11  O   UNL     2      -9.409   9.949  66.172  1.00  0.00    -0.162 OA 
HETATM   12  C   UNL     1      -6.891   7.711  65.554  1.00  0.00    -0.049 C  
HETATM   13  C   UNL     2     -10.670   6.853  67.352  1.00  0.00    -0.326 C  
HETATM   14  O   UNL     1      -7.029   7.669  64.336  1.00  0.00    -0.057 OA 
HETATM   15  N   UNL     1      -6.380   8.792  66.222  1.00  0.00    -0.060 N  
HETATM   16  H   UNL     1      -6.035   9.570  65.660  1.00  0.00     0.000 HD 
HETATM   17  O   UNL     2     -10.897   5.754  66.852  1.00  0.00    -0.295 OA 
HETATM   18  N   UNL     2     -10.417   7.941  66.548  1.00  0.00    -0.450 N  
HETATM   19  C   UNL     2      -9.871   9.131  66.958  1.00  0.00    -0.207 C  
HETATM   20  H   UNL     2     -10.656   7.855  65.559  1.00  0.00     0.000 HD 
ENDROOT
BRANCH  10  21
HETATM   21  C   UNL     2     -10.896   5.992  69.641  1.00  0.00    -0.369 C  
HETATM   22  C   UNL     2     -10.360   5.346  71.873  1.00  0.00    -0.270 C  
HETATM   23  C   UNL     2      -9.719   5.578  70.526  1.00  0.00    -0.241 C  
HETATM   24  C   UNL     2     -11.499   6.336  71.866  1.00  0.00    -0.309 C  
HETATM   25  O   UNL     2     -11.960   6.407  70.514  1.00  0.00    -0.341 OA 
ENDBRANCH  10  21
TORSDOF 1
ENDMDL
MODEL       88
REMARK 921   NORMALIZED FREE ENERGY PREDICTED BY IDOCK:   -3.93 KCAL/MOL
REMARK 922        TOTAL FREE ENERGY PREDICTED BY IDOCK:   -4.50 KCAL/MOL
REMARK 923 INTER-LIGAND FREE ENERGY PREDICTED BY IDOCK:   -4.27 KCAL/MOL
REMARK 924 INTRA-LIGAND FREE ENERGY PREDICTED BY IDOCK:   -0.23 KCAL/MOL
REMARK 927      BINDING AFFINITY PREDICTED BY RF-SCORE:    0.00 PKD
ROOT
HETATM    1  O   UNL     1      -9.903  10.251  63.378  1.00  0.00    -0.267 OA 
HETATM    2  F   UNL     2     -11.284  12.399  65.897  1.00  0.00    -0.315 F  
HETATM    3  C   UNL     1      -9.080   9.974  64.245  1.00  0.00    -0.255 C  
HETATM    4  C   UNL     2     -10.323  12.236  66.823  1.00  0.00    -0.217 C  
HETATM    5  N   UNL     1      -8.083  10.852  64.588  1.00  0.00    -0.361 N  
HETATM    6  H   UNL     1      -8.037  11.746  64.100  1.00  0.00     0.000 HD 
HETATM    7  C   UNL     1      -7.148  10.592  65.549  1.00  0.00    -0.099 C  
HETATM    8  C   UNL     2      -9.389  13.156  67.050  1.00  0.00    -0.238 C  
HETATM    9  C   UNL     1      -7.173   9.452  66.237  1.00  0.00    -0.092 C  
HETATM   10  N   UNL     2      -8.351  12.945  67.943  1.00  0.00    -0.157 N  
HETATM   11  O   UNL     2     -10.992  10.005  67.261  1.00  0.00    -0.262 OA 
HETATM   12  C   UNL     1      -8.229   8.466  65.946  1.00  0.00    -0.123 C  
HETATM   13  C   UNL     2      -8.250  11.759  68.667  1.00  0.00    -0.091 C  
HETATM   14  O   UNL     1      -8.314   7.431  66.598  1.00  0.00    -0.117 OA 
HETATM   15  N   UNL     1      -9.087   8.795  64.931  1.00  0.00    -0.428 N  
HETATM   16  H   UNL     1      -9.789   8.103  64.668  1.00  0.00     0.000 HD 
HETATM   17  O   UNL     2      -7.289  11.460  69.369  1.00  0.00    -0.085 OA 
HETATM   18  N   UNL     2      -9.292  10.874  68.504  1.00  0.00    -0.174 N  
HETATM   19  C   UNL     2     -10.266  10.952  67.541  1.00  0.00    -0.190 C  
HETATM   20  H   UNL     2      -9.344  10.092  69.157  1.00  0.00     0.000 HD 
ENDROOT
BRANCH  10  21
HETATM   21  C   UNL     2      -7.312  13.959  68.110  1.00  0.00    -0.123 C  
HETATM   22  C   UNL     2      -7.110  16.330  67.962  1.00  0.00    -0.143 C  
HETATM   23  C   UNL     2      -7.419  15.118  67.117  1.00  0.00    -0.176 C  
HETATM   24  C   UNL     2      -7.638  15.926  69.317  1.00  0.00    -0.221 C  
HETATM   25  O   UNL     2      -7.413  14.519  69.430  1.00  0.00    -0.135 OA 
ENDBRANCH  10  21
TORSDOF 1
ENDMDL
MODEL       89
REMARK 921   NORMALIZED FREE ENERGY PREDICTED BY IDOCK:   -3.92 KCAL/MOL
REMARK 922        TOTAL FREE ENERGY PREDICTED BY IDOCK:   -4.49 KCAL/MOL
REMARK 923 INTER-LIGAND FREE ENERGY PREDICTED BY IDOCK:   -4.27 KCAL/MOL
REMARK 924 INTRA-LIGAND FREE ENERGY PREDICTED BY IDOCK:   -0.22 KCAL/MOL
REMARK 927      BINDING AFFINITY PREDICTED BY RF-SCORE:    0.00 PKD
ROOT
HETATM    1  O   UNL     1      -6.980   7.484  67.306  1.00  0.00    -0.078 OA 
HETATM    2  F   UNL     2      -8.332  10.025  69.446  1.00  0.00    -0.112 F  
HETATM    3  C   UNL     1      -7.969   6.845  67.650  1.00  0.00    -0.113 C  
HETATM    4  C   UNL     2      -9.347   9.308  69.961  1.00  0.00    -0.209 C  
HETATM    5  N   UNL     1      -8.058   6.285  68.900  1.00  0.00    -0.109 N  
HETATM    6  H   UNL     1      -7.275   6.409  69.541  1.00  0.00     0.000 HD 
HETATM    7  C   UNL     1      -9.140   5.572  69.331  1.00  0.00    -0.112 C  
HETATM    8  C   UNL     2      -9.307   8.794  71.187  1.00  0.00    -0.233 C  
HETATM    9  C   UNL     1     -10.202   5.399  68.547  1.00  0.00    -0.237 C  
HETATM   10  N   UNL     2     -10.318   7.984  71.677  1.00  0.00    -0.206 N  
HETATM   11  O   UNL     2     -10.526   9.326  67.904  1.00  0.00    -0.219 OA 
HETATM   12  C   UNL     1     -10.196   5.991  67.197  1.00  0.00    -0.202 C  
HETATM   13  C   UNL     2     -11.444   7.690  70.913  1.00  0.00    -0.282 C  
HETATM   14  O   UNL     1     -11.179   5.899  66.470  1.00  0.00    -0.132 OA 
HETATM   15  N   UNL     1      -9.047   6.644  66.838  1.00  0.00    -0.131 N  
HETATM   16  H   UNL     1      -8.993   7.009  65.887  1.00  0.00     0.000 HD 
HETATM   17  O   UNL     2     -12.306   6.878  71.238  1.00  0.00    -0.359 OA 
HETATM   18  N   UNL     2     -11.519   8.331  69.697  1.00  0.00    -0.364 N  
HETATM   19  C   UNL     2     -10.501   9.022  69.091  1.00  0.00    -0.225 C  
HETATM   20  H   UNL     2     -12.411   8.287  69.202  1.00  0.00     0.000 HD 
ENDROOT
BRANCH  10  21
HETATM   21  C   UNL     2     -10.197   7.387  73.007  1.00  0.00    -0.286 C  
HETATM   22  C   UNL     2      -8.747   5.873  74.143  1.00  0.00    -0.122 C  
HETATM   23  C   UNL     2      -9.715   5.935  72.986  1.00  0.00    -0.162 C  
HETATM   24  C   UNL     2      -8.179   7.271  74.167  1.00  0.00    -0.156 C  
HETATM   25  O   UNL     2      -9.242   8.142  73.772  1.00  0.00    -0.222 OA 
ENDBRANCH  10  21
TORSDOF 1
ENDMDL
MODEL       90
REMARK 921   NORMALIZED FREE ENERGY PREDICTED BY IDOCK:   -3.86 KCAL/MOL
REMARK 922        TOTAL FREE ENERGY PREDICTED BY IDOCK:   -4.43 KCAL/MOL
REMARK 923 INTER-LIGAND FREE ENERGY PREDICTED BY IDOCK:   -4.10 KCAL/MOL
REMARK 924 INTRA-LIGAND FREE ENERGY PREDICTED BY IDOCK:   -0.33 KCAL/MOL
REMARK 927      BINDING AFFINITY PREDICTED BY RF-SCORE:    0.00 PKD
ROOT
HETATM    1  O   UNL     1      -9.714   3.486  70.253  1.00  0.00    -0.183 OA 
HETATM    2  F   UNL     2     -11.945   6.283  70.001  1.00  0.00    -0.474 F  
HETATM    3  C   UNL     1      -8.871   4.342  70.499  1.00  0.00    -0.091 C  
HETATM    4  C   UNL     2     -11.029   7.258  70.121  1.00  0.00    -0.260 C  
HETATM    5  N   UNL     1      -8.364   5.148  69.511  1.00  0.00    -0.092 N  
HETATM    6  H   UNL     1      -8.703   5.016  68.558  1.00  0.00     0.000 HD 
HETATM    7  C   UNL     1      -7.429   6.118  69.735  1.00  0.00    -0.081 C  
HETATM    8  C   UNL     2     -10.596   7.961  69.077  1.00  0.00    -0.162 C  
HETATM    9  C   UNL     1      -6.968   6.353  70.962  1.00  0.00    -0.068 C  
HETATM   10  N   UNL     2      -9.588   8.905  69.194  1.00  0.00    -0.160 N  
HETATM   11  O   UNL     2     -10.665   6.767  72.411  1.00  0.00    -0.212 OA 
HETATM   12  C   UNL     1      -7.481   5.547  72.084  1.00  0.00    -0.099 C  
HETATM   13  C   UNL     2      -8.995   9.180  70.422  1.00  0.00    -0.229 C  
HETATM   14  O   UNL     1      -7.120   5.774  73.233  1.00  0.00    -0.083 OA 
HETATM   15  N   UNL     1      -8.377   4.566  71.751  1.00  0.00    -0.105 N  
HETATM   16  H   UNL     1      -8.700   3.953  72.499  1.00  0.00     0.000 HD 
HETATM   17  O   UNL     2      -8.013   9.904  70.568  1.00  0.00    -0.246 OA 
HETATM   18  N   UNL     2      -9.541   8.529  71.505  1.00  0.00    -0.204 N  
HETATM   19  C   UNL     2     -10.431   7.487  71.447  1.00  0.00    -0.209 C  
HETATM   20  H   UNL     2      -9.260   8.850  72.432  1.00  0.00     0.000 HD 
ENDROOT
BRANCH  10  21
HETATM   21  C   UNL     2      -9.099   9.603  68.005  1.00  0.00    -0.125 C  
HETATM   22  C   UNL     2      -9.822  10.017  65.771  1.00  0.00    -0.345 C  
HETATM   23  C   UNL     2      -9.429   8.889  66.693  1.00  0.00    -0.261 C  
HETATM   24  C   UNL     2     -10.438  11.015  66.722  1.00  0.00    -0.251 C  
HETATM   25  O   UNL     2      -9.708  10.905  67.946  1.00  0.00    -0.161 OA 
ENDBRANCH  10  21
TORSDOF 1
ENDMDL
MODEL       91
REMARK 921   NORMALIZED FREE ENERGY PREDICTED BY IDOCK:   -3.84 KCAL/MOL
REMARK 922        TOTAL FREE ENERGY PREDICTED BY IDOCK:   -4.41 KCAL/MOL
REMARK 923 INTER-LIGAND FREE ENERGY PREDICTED BY IDOCK:   -4.16 KCAL/MOL
REMARK 924 INTRA-LIGAND FREE ENERGY PREDICTED BY IDOCK:   -0.24 KCAL/MOL
REMARK 927      BINDING AFFINITY PREDICTED BY RF-SCORE:    0.00 PKD
ROOT
HETATM    1  O   UNL     1     -11.999   7.704  70.929  1.00  0.00    -0.291 OA 
HETATM    2  F   UNL     2      -9.155   9.723  70.097  1.00  0.00    -0.210 F  
HETATM    3  C   UNL     1     -11.436   6.853  70.249  1.00  0.00    -0.323 C  
HETATM    4  C   UNL     2      -8.577   8.875  69.229  1.00  0.00    -0.133 C  
HETATM    5  N   UNL     1     -11.412   6.934  68.880  1.00  0.00    -0.540 N  
HETATM    6  H   UNL     1     -11.882   7.723  68.435  1.00  0.00     0.000 HD 
HETATM    7  C   UNL     1     -10.793   6.017  68.080  1.00  0.00    -0.287 C  
HETATM    8  C   UNL     2      -8.643   9.050  67.911  1.00  0.00    -0.125 C  
HETATM    9  C   UNL     1     -10.143   4.980  68.605  1.00  0.00    -0.191 C  
HETATM   10  N   UNL     2      -8.120   8.126  67.021  1.00  0.00    -0.107 N  
HETATM   11  O   UNL     2      -7.973   7.368  70.956  1.00  0.00    -0.095 OA 
HETATM   12  C   UNL     1     -10.100   4.833  70.071  1.00  0.00    -0.238 C  
HETATM   13  C   UNL     2      -7.476   6.976  67.468  1.00  0.00    -0.097 C  
HETATM   14  O   UNL     1      -9.464   3.923  70.589  1.00  0.00    -0.143 OA 
HETATM   15  N   UNL     1     -10.792   5.775  70.784  1.00  0.00    -0.274 N  
HETATM   16  H   UNL     1     -10.831   5.661  71.798  1.00  0.00     0.000 HD 
HETATM   17  O   UNL     2      -7.111   6.060  66.735  1.00  0.00    -0.066 OA 
HETATM   18  N   UNL     2      -7.314   6.877  68.832  1.00  0.00    -0.091 N  
HETATM   19  C   UNL     2      -7.925   7.671  69.769  1.00  0.00    -0.116 C  
HETATM   20  H   UNL     2      -6.686   6.151  69.174  1.00  0.00     0.000 HD 
ENDROOT
BRANCH  10  21
HETATM   21  C   UNL     2      -8.277   8.329  65.581  1.00  0.00    -0.134 C  
HETATM   22  C   UNL     2      -8.501  10.153  64.063  1.00  0.00    -0.185 C  
HETATM   23  C   UNL     2      -9.206   9.490  65.221  1.00  0.00    -0.307 C  
HETATM   24  C   UNL     2      -7.047   9.902  64.380  1.00  0.00    -0.134 C  
HETATM   25  O   UNL     2      -6.990   8.620  65.009  1.00  0.00    -0.074 OA 
ENDBRANCH  10  21
TORSDOF 1
ENDMDL
MODEL       92
REMARK 921   NORMALIZED FREE ENERGY PREDICTED BY IDOCK:   -3.84 KCAL/MOL
REMARK 922        TOTAL FREE ENERGY PREDICTED BY IDOCK:   -4.41 KCAL/MOL
REMARK 923 INTER-LIGAND FREE ENERGY PREDICTED BY IDOCK:   -4.94 KCAL/MOL
REMARK 924 INTRA-LIGAND FREE ENERGY PREDICTED BY IDOCK:    0.53 KCAL/MOL
REMARK 927      BINDING AFFINITY PREDICTED BY RF-SCORE:    0.00 PKD
ROOT
HETATM    1  O   UNL     1     -10.737  19.613  65.881  1.00  0.00    -0.492 OA 
HETATM    2  F   UNL     2     -10.859  16.459  64.177  1.00  0.00    -0.200 F  
HETATM    3  C   UNL     1     -10.298  18.948  66.814  1.00  0.00    -0.414 C  
HETATM    4  C   UNL     2     -10.522  15.677  65.217  1.00  0.00    -0.412 C  
HETATM    5  N   UNL     1     -11.116  18.141  67.562  1.00  0.00    -0.089 N  
HETATM    6  H   UNL     1     -12.108  18.108  67.327  1.00  0.00     0.000 HD 
HETATM    7  C   UNL     1     -10.675  17.379  68.606  1.00  0.00    -0.249 C  
HETATM    8  C   UNL     2     -11.417  14.952  65.884  1.00  0.00    -0.276 C  
HETATM    9  C   UNL     1      -9.387  17.362  68.943  1.00  0.00    -0.183 C  
HETATM   10  N   UNL     2     -11.076  14.217  67.007  1.00  0.00    -0.300 N  
HETATM   11  O   UNL     2      -8.288  16.470  65.211  1.00  0.00     0.662 OA 
HETATM   12  C   UNL     1      -8.436  18.184  68.172  1.00  0.00    -0.273 C  
HETATM   13  C   UNL     2      -9.768  14.184  67.481  1.00  0.00    -0.234 C  
HETATM   14  O   UNL     1      -7.236  18.149  68.420  1.00  0.00    -0.241 OA 
HETATM   15  N   UNL     1      -8.983  18.952  67.179  1.00  0.00    -0.280 N  
HETATM   16  H   UNL     1      -8.356  19.577  66.671  1.00  0.00     0.000 HD 
HETATM   17  O   UNL     2      -9.430  13.662  68.540  1.00  0.00    -0.204 OA 
HETATM   18  N   UNL     2      -8.839  14.843  66.706  1.00  0.00    -0.258 N  
HETATM   19  C   UNL     2      -9.122  15.701  65.675  1.00  0.00     0.058 C  
HETATM   20  H   UNL     2      -7.855  14.678  66.919  1.00  0.00     0.000 HD 
ENDROOT
BRANCH  10  21
HETATM   21  C   UNL     2     -12.108  13.490  67.745  1.00  0.00    -0.280 C  
HETATM   22  C   UNL     2     -12.229  11.787  69.410  1.00  0.00    -0.219 C  
HETATM   23  C   UNL     2     -11.767  12.019  67.992  1.00  0.00    -0.398 C  
HETATM   24  C   UNL     2     -12.014  13.138  70.047  1.00  0.00    -0.321 C  
HETATM   25  O   UNL     2     -12.284  14.107  69.032  1.00  0.00    -0.332 OA 
ENDBRANCH  10  21
TORSDOF 1
ENDMDL
MODEL       93
REMARK 921   NORMALIZED FREE ENERGY PREDICTED BY IDOCK:   -3.81 KCAL/MOL
REMARK 922        TOTAL FREE ENERGY PREDICTED BY IDOCK:   -4.38 KCAL/MOL
REMARK 923 INTER-LIGAND FREE ENERGY PREDICTED BY IDOCK:   -4.03 KCAL/MOL
REMARK 924 INTRA-LIGAND FREE ENERGY PREDICTED BY IDOCK:   -0.34 KCAL/MOL
REMARK 927      BINDING AFFINITY PREDICTED BY RF-SCORE:    0.00 PKD
ROOT
HETATM    1  O   UNL     1     -10.163   3.965  64.951  1.00  0.00    -0.202 OA 
HETATM    2  F   UNL     2     -11.583   6.248  67.325  1.00  0.00    -0.293 F  
HETATM    3  C   UNL     1      -9.130   4.593  65.155  1.00  0.00    -0.155 C  
HETATM    4  C   UNL     2     -10.515   7.051  67.466  1.00  0.00    -0.250 C  
HETATM    5  N   UNL     1      -8.944   5.850  64.635  1.00  0.00    -0.344 N  
HETATM    6  H   UNL     1      -9.690   6.251  64.067  1.00  0.00     0.000 HD 
HETATM    7  C   UNL     1      -7.816   6.591  64.839  1.00  0.00    -0.114 C  
HETATM    8  C   UNL     2     -10.442   8.248  66.890  1.00  0.00    -0.295 C  
HETATM    9  C   UNL     1      -6.821   6.128  65.592  1.00  0.00    -0.053 C  
HETATM   10  N   UNL     2      -9.303   9.033  66.969  1.00  0.00    -0.144 N  
HETATM   11  O   UNL     2      -9.298   5.385  68.633  1.00  0.00    -0.111 OA 
HETATM   12  C   UNL     1      -6.952   4.795  66.209  1.00  0.00    -0.070 C  
HETATM   13  C   UNL     2      -8.183   8.613  67.680  1.00  0.00    -0.110 C  
HETATM   14  O   UNL     1      -6.079   4.363  66.953  1.00  0.00    -0.029 OA 
HETATM   15  N   UNL     1      -8.097   4.110  65.904  1.00  0.00    -0.101 N  
HETATM   16  H   UNL     1      -8.185   3.160  66.267  1.00  0.00     0.000 HD 
HETATM   17  O   UNL     2      -7.104   9.199  67.678  1.00  0.00    -0.081 OA 
HETATM   18  N   UNL     2      -8.326   7.428  68.367  1.00  0.00    -0.125 N  
HETATM   19  C   UNL     2      -9.359   6.537  68.220  1.00  0.00    -0.118 C  
HETATM   20  H   UNL     2      -7.600   7.191  69.043  1.00  0.00     0.000 HD 
ENDROOT
BRANCH  10  21
HETATM   21  C   UNL     2      -9.247  10.312  66.262  1.00  0.00    -0.159 C  
HETATM   22  C   UNL     2     -10.540  11.507  64.654  1.00  0.00    -0.369 C  
HETATM   23  C   UNL     2      -9.739  10.238  64.816  1.00  0.00    -0.397 C  
HETATM   24  C   UNL     2     -11.087  11.725  66.043  1.00  0.00    -0.312 C  
HETATM   25  O   UNL     2     -10.082  11.261  66.948  1.00  0.00    -0.203 OA 
ENDBRANCH  10  21
TORSDOF 1
ENDMDL
MODEL       94
REMARK 921   NORMALIZED FREE ENERGY PREDICTED BY IDOCK:   -3.77 KCAL/MOL
REMARK 922        TOTAL FREE ENERGY PREDICTED BY IDOCK:   -4.34 KCAL/MOL
REMARK 923 INTER-LIGAND FREE ENERGY PREDICTED BY IDOCK:   -3.99 KCAL/MOL
REMARK 924 INTRA-LIGAND FREE ENERGY PREDICTED BY IDOCK:   -0.34 KCAL/MOL
REMARK 927      BINDING AFFINITY PREDICTED BY RF-SCORE:    0.00 PKD
ROOT
HETATM    1  O   UNL     1     -10.599  10.584  65.565  1.00  0.00    -0.187 OA 
HETATM    2  F   UNL     2     -11.368   7.322  66.843  1.00  0.00    -0.390 F  
HETATM    3  C   UNL     1      -9.586  10.475  66.248  1.00  0.00    -0.187 C  
HETATM    4  C   UNL     2     -10.349   7.223  67.715  1.00  0.00    -0.209 C  
HETATM    5  N   UNL     1      -9.629  10.599  67.614  1.00  0.00    -0.160 N  
HETATM    6  H   UNL     1     -10.530  10.791  68.053  1.00  0.00     0.000 HD 
HETATM    7  C   UNL     1      -8.531  10.480  68.417  1.00  0.00    -0.128 C  
HETATM    8  C   UNL     2     -10.513   7.389  69.025  1.00  0.00    -0.210 C  
HETATM    9  C   UNL     1      -7.335  10.205  67.903  1.00  0.00    -0.087 C  
HETATM   10  N   UNL     2      -9.445   7.372  69.906  1.00  0.00    -0.154 N  
HETATM   11  O   UNL     2      -8.756   7.012  65.973  1.00  0.00    -0.144 OA 
HETATM   12  C   UNL     1      -7.207  10.031  66.444  1.00  0.00    -0.103 C  
HETATM   13  C   UNL     2      -8.144   7.155  69.462  1.00  0.00    -0.130 C  
HETATM   14  O   UNL     1      -6.132   9.722  65.944  1.00  0.00    -0.064 OA 
HETATM   15  N   UNL     1      -8.354  10.220  65.720  1.00  0.00    -0.145 N  
HETATM   16  H   UNL     1      -8.281  10.167  64.704  1.00  0.00     0.000 HD 
HETATM   17  O   UNL     2      -7.146   7.259  70.170  1.00  0.00    -0.062 OA 
HETATM   18  N   UNL     2      -8.015   6.867  68.122  1.00  0.00    -0.114 N  
HETATM   19  C   UNL     2      -8.997   7.008  67.174  1.00  0.00    -0.121 C  
HETATM   20  H   UNL     2      -7.109   6.519  67.806  1.00  0.00     0.000 HD 
ENDROOT
BRANCH  10  21
HETATM   21  C   UNL     2      -9.668   7.625  71.329  1.00  0.00    -0.160 C  
HETATM   22  C   UNL     2     -11.508   8.035  72.789  1.00  0.00    -0.420 C  
HETATM   23  C   UNL     2     -10.785   8.633  71.607  1.00  0.00    -0.374 C  
HETATM   24  C   UNL     2     -11.327   6.554  72.566  1.00  0.00    -0.262 C  
HETATM   25  O   UNL     2     -10.038   6.392  71.971  1.00  0.00    -0.178 OA 
ENDBRANCH  10  21
TORSDOF 1
ENDMDL
MODEL       95
REMARK 921   NORMALIZED FREE ENERGY PREDICTED BY IDOCK:   -3.76 KCAL/MOL
REMARK 922        TOTAL FREE ENERGY PREDICTED BY IDOCK:   -4.32 KCAL/MOL
REMARK 923 INTER-LIGAND FREE ENERGY PREDICTED BY IDOCK:   -3.97 KCAL/MOL
REMARK 924 INTRA-LIGAND FREE ENERGY PREDICTED BY IDOCK:   -0.34 KCAL/MOL
REMARK 927      BINDING AFFINITY PREDICTED BY RF-SCORE:    0.00 PKD
ROOT
HETATM    1  O   UNL     1     -10.990   5.118  66.092  1.00  0.00    -0.237 OA 
HETATM    2  F   UNL     2      -8.737   3.495  68.363  1.00  0.00    -0.099 F  
HETATM    3  C   UNL     1     -10.694   6.129  66.720  1.00  0.00    -0.299 C  
HETATM    4  C   UNL     2      -8.498   4.547  69.165  1.00  0.00    -0.079 C  
HETATM    5  N   UNL     1     -11.188   6.359  67.979  1.00  0.00    -0.533 N  
HETATM    6  H   UNL     1     -11.818   5.665  68.384  1.00  0.00     0.000 HD 
HETATM    7  C   UNL     1     -10.884   7.465  68.719  1.00  0.00    -0.043 C  
HETATM    8  C   UNL     2      -9.060   4.670  70.366  1.00  0.00    -0.113 C  
HETATM    9  C   UNL     1     -10.049   8.391  68.252  1.00  0.00    -0.232 C  
HETATM   10  N   UNL     2      -8.878   5.797  71.150  1.00  0.00    -0.135 N  
HETATM   11  O   UNL     2      -7.239   5.658  67.493  1.00  0.00    -0.073 OA 
HETATM   12  C   UNL     1      -9.453   8.207  66.916  1.00  0.00    -0.191 C  
HETATM   13  C   UNL     2      -8.074   6.851  70.725  1.00  0.00    -0.114 C  
HETATM   14  O   UNL     1      -8.638   9.012  66.479  1.00  0.00    -0.116 OA 
HETATM   15  N   UNL     1      -9.860   7.093  66.232  1.00  0.00    -0.431 N  
HETATM   16  H   UNL     1      -9.511   6.974  65.280  1.00  0.00     0.000 HD 
HETATM   17  O   UNL     2      -7.979   7.926  71.311  1.00  0.00    -0.086 OA 
HETATM   18  N   UNL     2      -7.409   6.649  69.537  1.00  0.00    -0.089 N  
HETATM   19  C   UNL     2      -7.650   5.633  68.647  1.00  0.00    -0.088 C  
HETATM   20  H   UNL     2      -6.673   7.314  69.297  1.00  0.00     0.000 HD 
ENDROOT
BRANCH  10  21
HETATM   21  C   UNL     2      -9.570   5.914  72.433  1.00  0.00    -0.155 C  
HETATM   22  C   UNL     2     -11.030   4.601  73.785  1.00  0.00    -0.368 C  
HETATM   23  C   UNL     2     -10.963   5.282  72.440  1.00  0.00    -0.273 C  
HETATM   24  C   UNL     2      -9.591   4.213  74.024  1.00  0.00    -0.106 C  
HETATM   25  O   UNL     2      -8.795   5.248  73.444  1.00  0.00    -0.115 OA 
ENDBRANCH  10  21
TORSDOF 1
ENDMDL
MODEL       96
REMARK 921   NORMALIZED FREE ENERGY PREDICTED BY IDOCK:   -3.74 KCAL/MOL
REMARK 922        TOTAL FREE ENERGY PREDICTED BY IDOCK:   -4.30 KCAL/MOL
REMARK 923 INTER-LIGAND FREE ENERGY PREDICTED BY IDOCK:   -4.00 KCAL/MOL
REMARK 924 INTRA-LIGAND FREE ENERGY PREDICTED BY IDOCK:   -0.30 KCAL/MOL
REMARK 927      BINDING AFFINITY PREDICTED BY RF-SCORE:    0.00 PKD
ROOT
HETATM    1  O   UNL     1      -5.865  11.672  69.747  1.00  0.00    -0.083 OA 
HETATM    2  F   UNL     2      -5.918  10.940  66.236  1.00  0.00    -0.084 F  
HETATM    3  C   UNL     1      -6.870  10.969  69.780  1.00  0.00    -0.116 C  
HETATM    4  C   UNL     2      -7.092  10.287  66.204  1.00  0.00    -0.121 C  
HETATM    5  N   UNL     1      -8.076  11.426  69.312  1.00  0.00    -0.367 N  
HETATM    6  H   UNL     1      -8.121  12.373  68.936  1.00  0.00     0.000 HD 
HETATM    7  C   UNL     1      -9.220  10.680  69.322  1.00  0.00    -0.104 C  
HETATM    8  C   UNL     2      -8.208  10.848  65.744  1.00  0.00    -0.113 C  
HETATM    9  C   UNL     1      -9.217   9.429  69.777  1.00  0.00    -0.209 C  
HETATM   10  N   UNL     2      -9.431  10.200  65.795  1.00  0.00    -0.192 N  
HETATM   11  O   UNL     2      -6.197   8.425  67.366  1.00  0.00    -0.053 OA 
HETATM   12  C   UNL     1      -7.954   8.854  70.275  1.00  0.00    -0.115 C  
HETATM   13  C   UNL     2      -9.546   8.912  66.311  1.00  0.00    -0.260 C  
HETATM   14  O   UNL     1      -7.903   7.687  70.648  1.00  0.00    -0.094 OA 
HETATM   15  N   UNL     1      -6.874   9.696  70.271  1.00  0.00    -0.092 N  
HETATM   16  H   UNL     1      -6.003   9.343  70.669  1.00  0.00     0.000 HD 
HETATM   17  O   UNL     2     -10.615   8.339  66.504  1.00  0.00    -0.193 OA 
HETATM   18  N   UNL     2      -8.362   8.308  66.668  1.00  0.00    -0.108 N  
HETATM   19  C   UNL     2      -7.146   8.932  66.780  1.00  0.00    -0.081 C  
HETATM   20  H   UNL     2      -8.392   7.307  66.867  1.00  0.00     0.000 HD 
ENDROOT
BRANCH  10  21
HETATM   21  C   UNL     2     -10.640  10.885  65.339  1.00  0.00    -0.173 C  
HETATM   22  C   UNL     2     -11.717  12.986  65.667  1.00  0.00    -0.418 C  
HETATM   23  C   UNL     2     -11.304  11.743  66.417  1.00  0.00    -0.361 C  
HETATM   24  C   UNL     2     -10.648  13.097  64.608  1.00  0.00    -0.392 C  
HETATM   25  O   UNL     2     -10.299  11.758  64.249  1.00  0.00    -0.270 OA 
ENDBRANCH  10  21
TORSDOF 1
ENDMDL
MODEL       97
REMARK 921   NORMALIZED FREE ENERGY PREDICTED BY IDOCK:   -3.70 KCAL/MOL
REMARK 922        TOTAL FREE ENERGY PREDICTED BY IDOCK:   -4.26 KCAL/MOL
REMARK 923 INTER-LIGAND FREE ENERGY PREDICTED BY IDOCK:   -3.92 KCAL/MOL
REMARK 924 INTRA-LIGAND FREE ENERGY PREDICTED BY IDOCK:   -0.34 KCAL/MOL
REMARK 927      BINDING AFFINITY PREDICTED BY RF-SCORE:    0.00 PKD
ROOT
HETATM    1  O   UNL     1     -13.143   6.745  71.359  1.00  0.00    -0.289 OA 
HETATM    2  F   UNL     2     -10.654   4.482  70.115  1.00  0.00    -0.226 F  
HETATM    3  C   UNL     1     -12.219   7.552  71.375  1.00  0.00    -0.335 C  
HETATM    4  C   UNL     2      -9.588   5.288  70.255  1.00  0.00    -0.179 C  
HETATM    5  N   UNL     1     -11.239   7.496  72.334  1.00  0.00    -0.286 N  
HETATM    6  H   UNL     1     -11.299   6.764  73.043  1.00  0.00     0.000 HD 
HETATM    7  C   UNL     1     -10.189   8.367  72.391  1.00  0.00    -0.329 C  
HETATM    8  C   UNL     2      -8.713   5.147  71.248  1.00  0.00    -0.128 C  
HETATM    9  C   UNL     1     -10.046   9.326  71.479  1.00  0.00    -0.306 C  
HETATM   10  N   UNL     2      -7.666   6.035  71.436  1.00  0.00    -0.102 N  
HETATM   11  O   UNL     2     -10.302   6.696  68.487  1.00  0.00    -0.167 OA 
HETATM   12  C   UNL     1     -11.043   9.439  70.400  1.00  0.00    -0.261 C  
HETATM   13  C   UNL     2      -7.466   7.110  70.574  1.00  0.00    -0.087 C  
HETATM   14  O   UNL     1     -10.912  10.275  69.513  1.00  0.00    -0.226 OA 
HETATM   15  N   UNL     1     -12.086   8.553  70.458  1.00  0.00    -0.482 N  
HETATM   16  H   UNL     1     -12.823   8.650  69.758  1.00  0.00     0.000 HD 
HETATM   17  O   UNL     2      -6.642   8.001  70.763  1.00  0.00    -0.037 OA 
HETATM   18  N   UNL     2      -8.310   7.165  69.488  1.00  0.00    -0.131 N  
HETATM   19  C   UNL     2      -9.445   6.415  69.317  1.00  0.00    -0.135 C  
HETATM   20  H   UNL     2      -8.069   7.822  68.745  1.00  0.00     0.000 HD 
ENDROOT
BRANCH  10  21
HETATM   21  C   UNL     2      -6.771   5.877  72.581  1.00  0.00    -0.069 C  
HETATM   22  C   UNL     2      -6.339   4.263  74.283  1.00  0.00    -0.047 C  
HETATM   23  C   UNL     2      -7.423   5.186  73.780  1.00  0.00    -0.087 C  
HETATM   24  C   UNL     2      -5.600   3.909  73.015  1.00  0.00     0.000 C  
HETATM   25  O   UNL     2      -5.646   5.073  72.186  1.00  0.00    -0.008 OA 
ENDBRANCH  10  21
TORSDOF 1
ENDMDL
MODEL       98
REMARK 921   NORMALIZED FREE ENERGY PREDICTED BY IDOCK:   -3.66 KCAL/MOL
REMARK 922        TOTAL FREE ENERGY PREDICTED BY IDOCK:   -4.22 KCAL/MOL
REMARK 923 INTER-LIGAND FREE ENERGY PREDICTED BY IDOCK:   -3.91 KCAL/MOL
REMARK 924 INTRA-LIGAND FREE ENERGY PREDICTED BY IDOCK:   -0.31 KCAL/MOL
REMARK 927      BINDING AFFINITY PREDICTED BY RF-SCORE:    0.00 PKD
ROOT
HETATM    1  O   UNL     1     -10.591   9.927  67.449  1.00  0.00    -0.253 OA 
HETATM    2  F   UNL     2      -7.345   8.639  66.632  1.00  0.00    -0.077 F  
HETATM    3  C   UNL     1     -10.759   8.827  67.963  1.00  0.00    -0.090 C  
HETATM    4  C   UNL     2      -7.539   7.377  67.051  1.00  0.00    -0.106 C  
HETATM    5  N   UNL     1     -10.973   7.707  67.199  1.00  0.00    -0.514 N  
HETATM    6  H   UNL     1     -10.994   7.813  66.184  1.00  0.00     0.000 HD 
HETATM    7  C   UNL     1     -11.160   6.461  67.724  1.00  0.00    -0.276 C  
HETATM    8  C   UNL     2      -7.762   6.372  66.208  1.00  0.00    -0.099 C  
HETATM    9  C   UNL     1     -11.118   6.259  69.039  1.00  0.00    -0.446 C  
HETATM   10  N   UNL     2      -8.047   5.091  66.652  1.00  0.00    -0.107 N  
HETATM   11  O   UNL     2      -7.555   8.036  69.328  1.00  0.00    -0.092 OA 
HETATM   12  C   UNL     1     -10.868   7.407  69.929  1.00  0.00    -0.246 C  
HETATM   13  C   UNL     2      -8.091   4.789  68.010  1.00  0.00    -0.089 C  
HETATM   14  O   UNL     1     -10.768   7.247  71.141  1.00  0.00    -0.226 OA 
HETATM   15  N   UNL     1     -10.745   8.623  69.312  1.00  0.00    -0.358 N  
HETATM   16  H   UNL     1     -10.633   9.443  69.910  1.00  0.00     0.000 HD 
HETATM   17  O   UNL     2      -8.466   3.712  68.465  1.00  0.00    -0.083 OA 
HETATM   18  N   UNL     2      -7.739   5.815  68.858  1.00  0.00    -0.089 N  
HETATM   19  C   UNL     2      -7.588   7.131  68.502  1.00  0.00    -0.115 C  
HETATM   20  H   UNL     2      -7.577   5.575  69.836  1.00  0.00     0.000 HD 
ENDROOT
BRANCH  10  21
HETATM   21  C   UNL     2      -8.351   4.034  65.687  1.00  0.00    -0.109 C  
HETATM   22  C   UNL     2      -9.694   3.747  63.738  1.00  0.00    -0.160 C  
HETATM   23  C   UNL     2      -9.807   4.032  65.216  1.00  0.00    -0.199 C  
HETATM   24  C   UNL     2      -8.373   4.386  63.384  1.00  0.00    -0.104 C  
HETATM   25  O   UNL     2      -7.527   4.214  64.523  1.00  0.00    -0.070 OA 
ENDBRANCH  10  21
TORSDOF 1
ENDMDL
MODEL       99
REMARK 921   NORMALIZED FREE ENERGY PREDICTED BY IDOCK:   -3.66 KCAL/MOL
REMARK 922        TOTAL FREE ENERGY PREDICTED BY IDOCK:   -4.22 KCAL/MOL
REMARK 923 INTER-LIGAND FREE ENERGY PREDICTED BY IDOCK:   -3.87 KCAL/MOL
REMARK 924 INTRA-LIGAND FREE ENERGY PREDICTED BY IDOCK:   -0.35 KCAL/MOL
REMARK 927      BINDING AFFINITY PREDICTED BY RF-SCORE:    0.00 PKD
ROOT
HETATM    1  O   UNL     1     -11.524   6.063  69.160  1.00  0.00    -0.316 OA 
HETATM    2  F   UNL     2     -11.156   8.965  67.084  1.00  0.00    -0.263 F  
HETATM    3  C   UNL     1     -10.641   6.587  69.831  1.00  0.00    -0.233 C  
HETATM    4  C   UNL     2     -10.091   9.499  67.706  1.00  0.00    -0.198 C  
HETATM    5  N   UNL     1      -9.335   6.594  69.411  1.00  0.00    -0.147 N  
HETATM    6  H   UNL     1      -9.111   6.145  68.523  1.00  0.00     0.000 HD 
HETATM    7  C   UNL     1      -8.318   7.168  70.119  1.00  0.00    -0.137 C  
HETATM    8  C   UNL     2      -8.860   9.421  67.206  1.00  0.00    -0.128 C  
HETATM    9  C   UNL     1      -8.554   7.789  71.273  1.00  0.00    -0.127 C  
HETATM   10  N   UNL     2      -7.757   9.898  67.894  1.00  0.00    -0.090 N  
HETATM   11  O   UNL     2     -11.375  10.075  69.614  1.00  0.00    -0.242 OA 
HETATM   12  C   UNL     1      -9.936   7.848  71.782  1.00  0.00    -0.177 C  
HETATM   13  C   UNL     2      -7.889  10.508  69.139  1.00  0.00    -0.138 C  
HETATM   14  O   UNL     1     -10.197   8.460  72.812  1.00  0.00    -0.292 OA 
HETATM   15  N   UNL     1     -10.876   7.199  71.028  1.00  0.00    -0.236 N  
HETATM   16  H   UNL     1     -11.830   7.172  71.389  1.00  0.00     0.000 HD 
HETATM   17  O   UNL     2      -6.943  10.829  69.853  1.00  0.00    -0.149 OA 
HETATM   18  N   UNL     2      -9.181  10.686  69.579  1.00  0.00    -0.411 N  
HETATM   19  C   UNL     2     -10.300  10.117  69.026  1.00  0.00    -0.212 C  
HETATM   20  H   UNL     2      -9.318  11.293  70.387  1.00  0.00     0.000 HD 
ENDROOT
BRANCH  10  21
HETATM   21  C   UNL     2      -6.417   9.728  67.334  1.00  0.00    -0.069 C  
HETATM   22  C   UNL     2      -5.406   8.686  65.443  1.00  0.00    -0.035 C  
HETATM   23  C   UNL     2      -6.188   8.358  66.692  1.00  0.00    -0.054 C  
HETATM   24  C   UNL     2      -5.933  10.052  65.078  1.00  0.00    -0.107 C  
HETATM   25  O   UNL     2      -6.209  10.718  66.312  1.00  0.00    -0.105 OA 
ENDBRANCH  10  21
TORSDOF 1
ENDMDL
MODEL      100
REMARK 921   NORMALIZED FREE ENERGY PREDICTED BY IDOCK:   -3.63 KCAL/MOL
REMARK 922        TOTAL FREE ENERGY PREDICTED BY IDOCK:   -4.18 KCAL/MOL
REMARK 923 INTER-LIGAND FREE ENERGY PREDICTED BY IDOCK:   -3.86 KCAL/MOL
REMARK 924 INTRA-LIGAND FREE ENERGY PREDICTED BY IDOCK:   -0.32 KCAL/MOL
REMARK 927      BINDING AFFINITY PREDICTED BY RF-SCORE:    0.00 PKD
ROOT
HETATM    1  O   UNL     1     -11.708   8.393  71.153  1.00  0.00    -0.276 OA 
HETATM    2  F   UNL     2      -8.269   9.323  71.564  1.00  0.00    -0.170 F  
HETATM    3  C   UNL     1     -11.392   8.226  69.980  1.00  0.00     0.000 C  
HETATM    4  C   UNL     2      -7.916   9.295  70.267  1.00  0.00    -0.146 C  
HETATM    5  N   UNL     1     -11.180   9.290  69.139  1.00  0.00    -0.442 N  
HETATM    6  H   UNL     1     -11.298  10.232  69.514  1.00  0.00     0.000 HD 
HETATM    7  C   UNL     1     -10.822   9.156  67.829  1.00  0.00    -0.092 C  
HETATM    8  C   UNL     2      -7.763  10.402  69.545  1.00  0.00    -0.156 C  
HETATM    9  C   UNL     1     -10.630   7.953  67.292  1.00  0.00    -0.365 C  
HETATM   10  N   UNL     2      -7.485  10.362  68.188  1.00  0.00    -0.089 N  
HETATM   11  O   UNL     2      -8.070   6.931  70.180  1.00  0.00    -0.122 OA 
HETATM   12  C   UNL     1     -10.812   6.758  68.135  1.00  0.00    -0.228 C  
HETATM   13  C   UNL     2      -7.329   9.152  67.518  1.00  0.00    -0.084 C  
HETATM   14  O   UNL     1     -10.590   5.638  67.689  1.00  0.00    -0.226 OA 
HETATM   15  N   UNL     1     -11.222   6.993  69.420  1.00  0.00    -0.473 N  
HETATM   16  H   UNL     1     -11.416   6.181  70.007  1.00  0.00     0.000 HD 
HETATM   17  O   UNL     2      -7.214   9.049  66.299  1.00  0.00    -0.088 OA 
HETATM   18  N   UNL     2      -7.372   8.026  68.308  1.00  0.00    -0.093 N  
HETATM   19  C   UNL     2      -7.782   7.981  69.616  1.00  0.00    -0.102 C  
HETATM   20  H   UNL     2      -7.073   7.148  67.883  1.00  0.00     0.000 HD 
ENDROOT
BRANCH  10  21
HETATM   21  C   UNL     2      -7.393  11.605  67.424  1.00  0.00    -0.128 C  
HETATM   22  C   UNL     2      -8.517  13.705  67.313  1.00  0.00    -0.203 C  
HETATM   23  C   UNL     2      -8.751  12.230  67.098  1.00  0.00    -0.193 C  
HETATM   24  C   UNL     2      -7.484  13.714  68.413  1.00  0.00    -0.123 C  
HETATM   25  O   UNL     2      -6.654  12.571  68.192  1.00  0.00    -0.064 OA 
ENDBRANCH  10  21
TORSDOF 1
ENDMDL
MODEL      101
REMARK 921   NORMALIZED FREE ENERGY PREDICTED BY IDOCK:   -3.58 KCAL/MOL
REMARK 922        TOTAL FREE ENERGY PREDICTED BY IDOCK:   -4.13 KCAL/MOL
REMARK 923 INTER-LIGAND FREE ENERGY PREDICTED BY IDOCK:   -3.78 KCAL/MOL
REMARK 924 INTRA-LIGAND FREE ENERGY PREDICTED BY IDOCK:   -0.35 KCAL/MOL
REMARK 927      BINDING AFFINITY PREDICTED BY RF-SCORE:    0.00 PKD
ROOT
HETATM    1  O   UNL     1     -10.199  10.617  64.035  1.00  0.00    -0.341 OA 
HETATM    2  F   UNL     2      -7.801   8.270  65.303  1.00  0.00    -0.095 F  
HETATM    3  C   UNL     1     -10.213  11.033  65.189  1.00  0.00    -0.291 C  
HETATM    4  C   UNL     2      -7.895   8.598  66.603  1.00  0.00    -0.097 C  
HETATM    5  N   UNL     1     -10.847  10.341  66.190  1.00  0.00     0.031 N  
HETATM    6  H   UNL     1     -11.315   9.467  65.950  1.00  0.00     0.000 HD 
HETATM    7  C   UNL     1     -10.886  10.760  67.489  1.00  0.00    -0.288 C  
HETATM    8  C   UNL     2      -8.562   7.852  67.480  1.00  0.00    -0.122 C  
HETATM    9  C   UNL     1     -10.272  11.880  67.865  1.00  0.00    -0.203 C  
HETATM   10  N   UNL     2      -8.728   8.241  68.799  1.00  0.00    -0.136 N  
HETATM   11  O   UNL     2      -6.822  10.682  66.252  1.00  0.00    -0.118 OA 
HETATM   12  C   UNL     1      -9.545  12.670  66.853  1.00  0.00    -0.232 C  
HETATM   13  C   UNL     2      -8.180   9.428  69.278  1.00  0.00    -0.111 C  
HETATM   14  O   UNL     1      -8.923  13.676  67.175  1.00  0.00    -0.213 OA 
HETATM   15  N   UNL     1      -9.608  12.195  65.571  1.00  0.00    -0.390 N  
HETATM   16  H   UNL     1      -9.166  12.756  64.841  1.00  0.00     0.000 HD 
HETATM   17  O   UNL     2      -8.401   9.890  70.394  1.00  0.00    -0.153 OA 
HETATM   18  N   UNL     2      -7.393  10.121  68.385  1.00  0.00    -0.080 N  
HETATM   19  C   UNL     2      -7.304   9.875  67.038  1.00  0.00    -0.091 C  
HETATM   20  H   UNL     2      -6.828  10.884  68.757  1.00  0.00     0.000 HD 
ENDROOT
BRANCH  10  21
HETATM   21  C   UNL     2      -9.527   7.421  69.708  1.00  0.00    -0.159 C  
HETATM   22  C   UNL     2     -10.931   5.497  69.588  1.00  0.00    -0.155 C  
HETATM   23  C   UNL     2     -10.837   6.921  69.095  1.00  0.00    -0.262 C  
HETATM   24  C   UNL     2      -9.481   5.091  69.689  1.00  0.00    -0.143 C  
HETATM   25  O   UNL     2      -8.763   6.262  70.084  1.00  0.00    -0.135 OA 
ENDBRANCH  10  21
TORSDOF 1
ENDMDL
MODEL      102
REMARK 921   NORMALIZED FREE ENERGY PREDICTED BY IDOCK:   -3.57 KCAL/MOL
REMARK 922        TOTAL FREE ENERGY PREDICTED BY IDOCK:   -4.12 KCAL/MOL
REMARK 923 INTER-LIGAND FREE ENERGY PREDICTED BY IDOCK:   -3.82 KCAL/MOL
REMARK 924 INTRA-LIGAND FREE ENERGY PREDICTED BY IDOCK:   -0.31 KCAL/MOL
REMARK 927      BINDING AFFINITY PREDICTED BY RF-SCORE:    0.00 PKD
ROOT
HETATM    1  O   UNL     1     -11.926  10.754  68.166  1.00  0.00    -0.527 OA 
HETATM    2  F   UNL     2     -12.151   7.809  70.201  1.00  0.00    -0.017 F  
HETATM    3  C   UNL     1     -10.801  10.337  67.910  1.00  0.00    -0.284 C  
HETATM    4  C   UNL     2     -10.880   7.395  70.063  1.00  0.00    -0.252 C  
HETATM    5  N   UNL     1      -9.782  10.425  68.824  1.00  0.00    -0.174 N  
HETATM    6  H   UNL     1      -9.981  10.853  69.729  1.00  0.00     0.000 HD 
HETATM    7  C   UNL     1      -8.516   9.971  68.589  1.00  0.00    -0.118 C  
HETATM    8  C   UNL     2      -9.970   7.558  71.021  1.00  0.00    -0.186 C  
HETATM    9  C   UNL     1      -8.204   9.382  67.436  1.00  0.00    -0.121 C  
HETATM   10  N   UNL     2      -8.642   7.208  70.839  1.00  0.00    -0.136 N  
HETATM   11  O   UNL     2     -11.221   6.793  67.796  1.00  0.00    -0.226 OA 
HETATM   12  C   UNL     1      -9.250   9.226  66.409  1.00  0.00    -0.180 C  
HETATM   13  C   UNL     2      -8.200   6.642  69.646  1.00  0.00    -0.127 C  
HETATM   14  O   UNL     1      -9.011   8.639  65.359  1.00  0.00    -0.189 OA 
HETATM   15  N   UNL     1     -10.472   9.758  66.719  1.00  0.00    -0.215 N  
HETATM   16  H   UNL     1     -11.196   9.719  66.000  1.00  0.00     0.000 HD 
HETATM   17  O   UNL     2      -7.020   6.434  69.376  1.00  0.00    -0.066 OA 
HETATM   18  N   UNL     2      -9.180   6.373  68.717  1.00  0.00    -0.127 N  
HETATM   19  C   UNL     2     -10.477   6.819  68.770  1.00  0.00    -0.208 C  
HETATM   20  H   UNL     2      -8.920   5.791  67.921  1.00  0.00     0.000 HD 
ENDROOT
BRANCH  10  21
HETATM   21  C   UNL     2      -7.666   7.469  71.896  1.00  0.00    -0.085 C  
HETATM   22  C   UNL     2      -7.662   7.848  74.250  1.00  0.00    -0.246 C  
HETATM   23  C   UNL     2      -8.159   8.452  72.959  1.00  0.00    -0.162 C  
HETATM   24  C   UNL     2      -7.695   6.369  73.950  1.00  0.00    -0.087 C  
HETATM   25  O   UNL     2      -7.363   6.233  72.566  1.00  0.00    -0.084 OA 
ENDBRANCH  10  21
TORSDOF 1
ENDMDL
MODEL      103
REMARK 921   NORMALIZED FREE ENERGY PREDICTED BY IDOCK:   -3.56 KCAL/MOL
REMARK 922        TOTAL FREE ENERGY PREDICTED BY IDOCK:   -4.11 KCAL/MOL
REMARK 923 INTER-LIGAND FREE ENERGY PREDICTED BY IDOCK:   -3.78 KCAL/MOL
REMARK 924 INTRA-LIGAND FREE ENERGY PREDICTED BY IDOCK:   -0.34 KCAL/MOL
REMARK 927      BINDING AFFINITY PREDICTED BY RF-SCORE:    0.00 PKD
ROOT
HETATM    1  O   UNL     1      -7.204   7.666  65.775  1.00  0.00    -0.063 OA 
HETATM    2  F   UNL     2      -8.415   9.871  68.332  1.00  0.00    -0.106 F  
HETATM    3  C   UNL     1      -7.935   6.843  66.315  1.00  0.00    -0.108 C  
HETATM    4  C   UNL     2      -9.112   8.964  69.038  1.00  0.00    -0.137 C  
HETATM    5  N   UNL     1      -7.596   6.263  67.512  1.00  0.00    -0.095 N  
HETATM    6  H   UNL     1      -6.712   6.531  67.944  1.00  0.00     0.000 HD 
HETATM    7  C   UNL     1      -8.378   5.347  68.154  1.00  0.00    -0.098 C  
HETATM    8  C   UNL     2      -8.665   8.455  70.183  1.00  0.00    -0.136 C  
HETATM    9  C   UNL     1      -9.554   4.978  67.650  1.00  0.00    -0.173 C  
HETATM   10  N   UNL     2      -9.348   7.458  70.860  1.00  0.00    -0.155 N  
HETATM   11  O   UNL     2     -10.759   8.772  67.344  1.00  0.00    -0.267 OA 
HETATM   12  C   UNL     1     -10.004   5.573  66.378  1.00  0.00    -0.172 C  
HETATM   13  C   UNL     2     -10.556   6.957  70.383  1.00  0.00    -0.219 C  
HETATM   14  O   UNL     1     -11.104   5.298  65.915  1.00  0.00    -0.057 OA 
HETATM   15  N   UNL     1      -9.127   6.442  65.786  1.00  0.00    -0.343 N  
HETATM   16  H   UNL     1      -9.387   6.821  64.874  1.00  0.00     0.000 HD 
HETATM   17  O   UNL     2     -11.139   5.988  70.863  1.00  0.00    -0.291 OA 
HETATM   18  N   UNL     2     -11.058   7.583  69.264  1.00  0.00    -0.442 N  
HETATM   19  C   UNL     2     -10.375   8.467  68.467  1.00  0.00    -0.200 C  
HETATM   20  H   UNL     2     -12.021   7.370  69.005  1.00  0.00     0.000 HD 
ENDROOT
BRANCH  10  21
HETATM   21  C   UNL     2      -8.782   6.882  72.079  1.00  0.00    -0.125 C  
HETATM   22  C   UNL     2      -7.051   7.387  73.639  1.00  0.00    -0.095 C  
HETATM   23  C   UNL     2      -7.264   7.039  72.186  1.00  0.00    -0.077 C  
HETATM   24  C   UNL     2      -8.311   8.145  73.980  1.00  0.00    -0.247 C  
HETATM   25  O   UNL     2      -9.360   7.542  73.219  1.00  0.00    -0.173 OA 
ENDBRANCH  10  21
TORSDOF 1
ENDMDL
MODEL      104
REMARK 921   NORMALIZED FREE ENERGY PREDICTED BY IDOCK:   -3.56 KCAL/MOL
REMARK 922        TOTAL FREE ENERGY PREDICTED BY IDOCK:   -4.11 KCAL/MOL
REMARK 923 INTER-LIGAND FREE ENERGY PREDICTED BY IDOCK:   -3.76 KCAL/MOL
REMARK 924 INTRA-LIGAND FREE ENERGY PREDICTED BY IDOCK:   -0.35 KCAL/MOL
REMARK 927      BINDING AFFINITY PREDICTED BY RF-SCORE:    0.00 PKD
ROOT
HETATM    1  O   UNL     1      -9.717   9.556  65.412  1.00  0.00    -0.294 OA 
HETATM    2  F   UNL     2      -8.537   6.846  67.445  1.00  0.00    -0.119 F  
HETATM    3  C   UNL     1      -9.122  10.257  66.224  1.00  0.00    -0.154 C  
HETATM    4  C   UNL     2      -7.998   7.581  68.433  1.00  0.00    -0.123 C  
HETATM    5  N   UNL     1      -9.624  10.476  67.482  1.00  0.00    -0.159 N  
HETATM    6  H   UNL     1     -10.514  10.042  67.728  1.00  0.00     0.000 HD 
HETATM    7  C   UNL     1      -8.997  11.243  68.421  1.00  0.00    -0.167 C  
HETATM    8  C   UNL     2      -8.597   7.739  69.611  1.00  0.00    -0.135 C  
HETATM    9  C   UNL     1      -7.821  11.813  68.165  1.00  0.00    -0.135 C  
HETATM   10  N   UNL     2      -8.079   8.568  70.593  1.00  0.00    -0.107 N  
HETATM   11  O   UNL     2      -6.230   8.328  67.043  1.00  0.00    -0.053 OA 
HETATM   12  C   UNL     1      -7.201  11.607  66.844  1.00  0.00    -0.125 C  
HETATM   13  C   UNL     2      -6.887   9.260  70.400  1.00  0.00    -0.075 C  
HETATM   14  O   UNL     1      -6.094  12.071  66.594  1.00  0.00    -0.178 OA 
HETATM   15  N   UNL     1      -7.931  10.865  65.953  1.00  0.00    -0.266 N  
HETATM   16  H   UNL     1      -7.553  10.759  65.011  1.00  0.00     0.000 HD 
HETATM   17  O   UNL     2      -6.447  10.106  71.174  1.00  0.00    -0.324 OA 
HETATM   18  N   UNL     2      -6.226   8.988  69.224  1.00  0.00    -0.041 N  
HETATM   19  C   UNL     2      -6.743   8.299  68.156  1.00  0.00    -0.065 C  
HETATM   20  H   UNL     2      -5.268   9.328  69.139  1.00  0.00     0.000 HD 
ENDROOT
BRANCH  10  21
HETATM   21  C   UNL     2      -8.808   8.761  71.846  1.00  0.00    -0.154 C  
HETATM   22  C   UNL     2     -10.742   7.877  72.925  1.00  0.00    -0.440 C  
HETATM   23  C   UNL     2     -10.327   8.650  71.697  1.00  0.00    -0.366 C  
HETATM   24  C   UNL     2      -9.545   6.992  73.172  1.00  0.00    -0.166 C  
HETATM   25  O   UNL     2      -8.398   7.752  72.785  1.00  0.00    -0.113 OA 
ENDBRANCH  10  21
TORSDOF 1
ENDMDL
MODEL      105
REMARK 921   NORMALIZED FREE ENERGY PREDICTED BY IDOCK:   -3.54 KCAL/MOL
REMARK 922        TOTAL FREE ENERGY PREDICTED BY IDOCK:   -4.09 KCAL/MOL
REMARK 923 INTER-LIGAND FREE ENERGY PREDICTED BY IDOCK:   -3.82 KCAL/MOL
REMARK 924 INTRA-LIGAND FREE ENERGY PREDICTED BY IDOCK:   -0.27 KCAL/MOL
REMARK 927      BINDING AFFINITY PREDICTED BY RF-SCORE:    0.00 PKD
ROOT
HETATM    1  O   UNL     1      -5.304   9.896  67.356  1.00  0.00    -0.038 OA 
HETATM    2  F   UNL     2      -8.296   9.069  65.559  1.00  0.00    -0.109 F  
HETATM    3  C   UNL     1      -6.017   9.773  68.347  1.00  0.00    -0.046 C  
HETATM    4  C   UNL     2      -9.142   9.069  66.604  1.00  0.00    -0.160 C  
HETATM    5  N   UNL     1      -6.941  10.729  68.684  1.00  0.00    -0.066 N  
HETATM    6  H   UNL     1      -7.021  11.554  68.089  1.00  0.00     0.000 HD 
HETATM    7  C   UNL     1      -7.761  10.636  69.772  1.00  0.00    -0.004 C  
HETATM    8  C   UNL     2      -9.983  10.073  66.840  1.00  0.00    -0.209 C  
HETATM    9  C   UNL     1      -7.718   9.571  70.570  1.00  0.00    -0.177 C  
HETATM   10  N   UNL     2     -10.789  10.106  67.966  1.00  0.00    -0.258 N  
HETATM   11  O   UNL     2      -8.200   7.081  67.487  1.00  0.00    -0.115 OA 
HETATM   12  C   UNL     1      -6.769   8.486  70.264  1.00  0.00    -0.039 C  
HETATM   13  C   UNL     2     -10.774   9.071  68.897  1.00  0.00    -0.123 C  
HETATM   14  O   UNL     1      -6.743   7.467  70.945  1.00  0.00    -0.043 OA 
HETATM   15  N   UNL     1      -5.956   8.695  69.182  1.00  0.00    -0.042 N  
HETATM   16  H   UNL     1      -5.247   7.988  68.985  1.00  0.00     0.000 HD 
HETATM   17  O   UNL     2     -11.363   9.103  69.974  1.00  0.00    -0.204 OA 
HETATM   18  N   UNL     2      -9.987   7.989  68.569  1.00  0.00    -0.186 N  
HETATM   19  C   UNL     2      -9.062   7.950  67.557  1.00  0.00    -0.133 C  
HETATM   20  H   UNL     2     -10.102   7.144  69.129  1.00  0.00     0.000 HD 
ENDROOT
BRANCH  10  21
HETATM   21  C   UNL     2     -11.648  11.263  68.217  1.00  0.00    -0.300 C  
HETATM   22  C   UNL     2     -11.422  13.629  68.404  1.00  0.00    -0.346 C  
HETATM   23  C   UNL     2     -10.985  12.347  69.069  1.00  0.00    -0.247 C  
HETATM   24  C   UNL     2     -11.542  13.220  66.956  1.00  0.00    -0.359 C  
HETATM   25  O   UNL     2     -11.998  11.865  66.959  1.00  0.00    -0.615 OA 
ENDBRANCH  10  21
TORSDOF 1
ENDMDL
MODEL      106
REMARK 921   NORMALIZED FREE ENERGY PREDICTED BY IDOCK:   -3.41 KCAL/MOL
REMARK 922        TOTAL FREE ENERGY PREDICTED BY IDOCK:   -3.95 KCAL/MOL
REMARK 923 INTER-LIGAND FREE ENERGY PREDICTED BY IDOCK:   -3.71 KCAL/MOL
REMARK 924 INTRA-LIGAND FREE ENERGY PREDICTED BY IDOCK:   -0.24 KCAL/MOL
REMARK 927      BINDING AFFINITY PREDICTED BY RF-SCORE:    0.00 PKD
ROOT
HETATM    1  O   UNL     1      -8.211   3.987  68.847  1.00  0.00    -0.073 OA 
HETATM    2  F   UNL     2      -8.409   6.371  71.519  1.00  0.00    -0.119 F  
HETATM    3  C   UNL     1      -8.761   4.865  68.191  1.00  0.00    -0.102 C  
HETATM    4  C   UNL     2      -9.140   7.301  70.880  1.00  0.00    -0.151 C  
HETATM    5  N   UNL     1     -10.094   5.149  68.353  1.00  0.00    -0.159 N  
HETATM    6  H   UNL     1     -10.623   4.604  69.034  1.00  0.00     0.000 HD 
HETATM    7  C   UNL     1     -10.749   6.120  67.652  1.00  0.00    -0.308 C  
HETATM    8  C   UNL     2     -10.440   7.466  71.108  1.00  0.00    -0.209 C  
HETATM    9  C   UNL     1     -10.104   6.879  66.768  1.00  0.00    -0.264 C  
HETATM   10  N   UNL     2     -11.204   8.366  70.384  1.00  0.00    -0.244 N  
HETATM   11  O   UNL     2      -7.332   7.882  69.461  1.00  0.00    -0.082 OA 
HETATM   12  C   UNL     1      -8.663   6.655  66.553  1.00  0.00    -0.135 C  
HETATM   13  C   UNL     2     -10.638   9.162  69.393  1.00  0.00    -0.223 C  
HETATM   14  O   UNL     1      -8.026   7.371  65.789  1.00  0.00    -0.104 OA 
HETATM   15  N   UNL     1      -8.108   5.625  67.265  1.00  0.00    -0.102 N  
HETATM   16  H   UNL     1      -7.126   5.409  67.088  1.00  0.00     0.000 HD 
HETATM   17  O   UNL     2     -11.282   9.878  68.631  1.00  0.00    -0.175 OA 
HETATM   18  N   UNL     2      -9.271   9.060  69.258  1.00  0.00    -0.144 N  
HETATM   19  C   UNL     2      -8.480   8.098  69.833  1.00  0.00    -0.125 C  
HETATM   20  H   UNL     2      -8.807   9.761  68.680  1.00  0.00     0.000 HD 
ENDROOT
BRANCH  10  21
HETATM   21  C   UNL     2     -12.643   8.464  70.626  1.00  0.00     0.343 C  
HETATM   22  C   UNL     2     -14.163   8.128  72.432  1.00  0.00    -0.259 C  
HETATM   23  C   UNL     2     -13.185   7.380  71.560  1.00  0.00    -0.426 C  
HETATM   24  C   UNL     2     -13.548   9.505  72.504  1.00  0.00    -0.305 C  
HETATM   25  O   UNL     2     -12.929   9.734  71.236  1.00  0.00    -0.348 OA 
ENDBRANCH  10  21
TORSDOF 1
ENDMDL
MODEL      107
REMARK 921   NORMALIZED FREE ENERGY PREDICTED BY IDOCK:   -3.37 KCAL/MOL
REMARK 922        TOTAL FREE ENERGY PREDICTED BY IDOCK:   -3.91 KCAL/MOL
REMARK 923 INTER-LIGAND FREE ENERGY PREDICTED BY IDOCK:   -3.65 KCAL/MOL
REMARK 924 INTRA-LIGAND FREE ENERGY PREDICTED BY IDOCK:   -0.27 KCAL/MOL
REMARK 927      BINDING AFFINITY PREDICTED BY RF-SCORE:    0.00 PKD
ROOT
HETATM    1  O   UNL     1     -11.577  11.022  67.439  1.00  0.00    -0.525 OA 
HETATM    2  F   UNL     2      -8.135  11.145  66.438  1.00  0.00    -0.150 F  
HETATM    3  C   UNL     1     -11.202  10.107  68.165  1.00  0.00    -0.180 C  
HETATM    4  C   UNL     2      -7.712  10.057  67.105  1.00  0.00    -0.092 C  
HETATM    5  N   UNL     1     -10.907   8.867  67.656  1.00  0.00    -0.487 N  
HETATM    6  H   UNL     1     -11.012   8.720  66.652  1.00  0.00     0.000 HD 
HETATM    7  C   UNL     1     -10.481   7.820  68.421  1.00  0.00    -0.166 C  
HETATM    8  C   UNL     2      -7.480   8.895  66.499  1.00  0.00    -0.088 C  
HETATM    9  C   UNL     1     -10.302   7.960  69.733  1.00  0.00    -0.219 C  
HETATM   10  N   UNL     2      -7.129   7.756  67.206  1.00  0.00    -0.083 N  
HETATM   11  O   UNL     2      -7.944  11.137  69.202  1.00  0.00    -0.125 OA 
HETATM   12  C   UNL     1     -10.573   9.269  70.355  1.00  0.00    -0.248 C  
HETATM   13  C   UNL     2      -6.978   7.781  68.589  1.00  0.00    -0.067 C  
HETATM   14  O   UNL     1     -10.366   9.448  71.550  1.00  0.00    -0.327 OA 
HETATM   15  N   UNL     1     -11.045  10.241  69.513  1.00  0.00    -0.248 N  
HETATM   16  H   UNL     1     -11.299  11.138  69.929  1.00  0.00     0.000 HD 
HETATM   17  O   UNL     2      -6.800   6.783  69.282  1.00  0.00    -0.057 OA 
HETATM   18  N   UNL     2      -7.105   9.020  69.178  1.00  0.00    -0.062 N  
HETATM   19  C   UNL     2      -7.588  10.150  68.569  1.00  0.00    -0.088 C  
HETATM   20  H   UNL     2      -6.814   9.103  70.152  1.00  0.00     0.000 HD 
ENDROOT
BRANCH  10  21
HETATM   21  C   UNL     2      -6.951   6.487  66.503  1.00  0.00    -0.067 C  
HETATM   22  C   UNL     2      -8.204   5.077  65.044  1.00  0.00    -0.133 C  
HETATM   23  C   UNL     2      -8.217   5.630  66.448  1.00  0.00    -0.107 C  
HETATM   24  C   UNL     2      -7.529   6.181  64.266  1.00  0.00    -0.080 C  
HETATM   25  O   UNL     2      -6.560   6.756  65.145  1.00  0.00    -0.047 OA 
ENDBRANCH  10  21
TORSDOF 1
ENDMDL
MODEL      108
REMARK 921   NORMALIZED FREE ENERGY PREDICTED BY IDOCK:   -3.37 KCAL/MOL
REMARK 922        TOTAL FREE ENERGY PREDICTED BY IDOCK:   -3.91 KCAL/MOL
REMARK 923 INTER-LIGAND FREE ENERGY PREDICTED BY IDOCK:   -3.58 KCAL/MOL
REMARK 924 INTRA-LIGAND FREE ENERGY PREDICTED BY IDOCK:   -0.33 KCAL/MOL
REMARK 927      BINDING AFFINITY PREDICTED BY RF-SCORE:    0.00 PKD
ROOT
HETATM    1  O   UNL     1      -6.945   4.237  73.571  1.00  0.00    -0.057 OA 
HETATM    2  F   UNL     2      -6.903   7.319  71.737  1.00  0.00    -0.056 F  
HETATM    3  C   UNL     1      -7.783   3.901  72.741  1.00  0.00    -0.074 C  
HETATM    4  C   UNL     2      -7.919   7.046  70.900  1.00  0.00    -0.097 C  
HETATM    5  N   UNL     1      -9.065   4.389  72.784  1.00  0.00    -0.120 N  
HETATM    6  H   UNL     1      -9.309   5.040  73.530  1.00  0.00     0.000 HD 
HETATM    7  C   UNL     1     -10.031   4.050  71.880  1.00  0.00    -0.176 C  
HETATM    8  C   UNL     2      -9.134   7.567  71.059  1.00  0.00    -0.148 C  
HETATM    9  C   UNL     1      -9.764   3.224  70.871  1.00  0.00    -0.187 C  
HETATM   10  N   UNL     2     -10.197   7.214  70.245  1.00  0.00    -0.196 N  
HETATM   11  O   UNL     2      -6.642   5.432  69.724  1.00  0.00    -0.042 OA 
HETATM   12  C   UNL     1      -8.402   2.675  70.739  1.00  0.00    -0.053 C  
HETATM   13  C   UNL     2     -10.037   6.309  69.199  1.00  0.00    -0.168 C  
HETATM   14  O   UNL     1      -8.107   1.957  69.790  1.00  0.00    -0.042 OA 
HETATM   15  N   UNL     1      -7.519   3.033  71.722  1.00  0.00    -0.046 N  
HETATM   16  H   UNL     1      -6.587   2.618  71.689  1.00  0.00     0.000 HD 
HETATM   17  O   UNL     2     -10.963   5.858  68.529  1.00  0.00    -0.281 OA 
HETATM   18  N   UNL     2      -8.748   5.878  68.979  1.00  0.00    -0.114 N  
HETATM   19  C   UNL     2      -7.685   6.069  69.823  1.00  0.00    -0.096 C  
HETATM   20  H   UNL     2      -8.569   5.371  68.112  1.00  0.00     0.000 HD 
ENDROOT
BRANCH  10  21
HETATM   21  C   UNL     2     -11.528   7.762  70.502  1.00  0.00    -0.205 C  
HETATM   22  C   UNL     2     -12.723   8.733  72.322  1.00  0.00    -0.466 C  
HETATM   23  C   UNL     2     -12.065   7.442  71.898  1.00  0.00    -0.341 C  
HETATM   24  C   UNL     2     -11.878   9.772  71.627  1.00  0.00    -0.354 C  
HETATM   25  O   UNL     2     -11.474   9.194  70.384  1.00  0.00    -0.259 OA 
ENDBRANCH  10  21
TORSDOF 1
ENDMDL
MODEL      109
REMARK 921   NORMALIZED FREE ENERGY PREDICTED BY IDOCK:   -3.33 KCAL/MOL
REMARK 922        TOTAL FREE ENERGY PREDICTED BY IDOCK:   -3.86 KCAL/MOL
REMARK 923 INTER-LIGAND FREE ENERGY PREDICTED BY IDOCK:   -3.62 KCAL/MOL
REMARK 924 INTRA-LIGAND FREE ENERGY PREDICTED BY IDOCK:   -0.24 KCAL/MOL
REMARK 927      BINDING AFFINITY PREDICTED BY RF-SCORE:    0.00 PKD
ROOT
HETATM    1  O   UNL     1     -11.403   4.186  64.587  1.00  0.00    -0.309 OA 
HETATM    2  F   UNL     2     -11.468   6.962  66.858  1.00  0.00    -0.456 F  
HETATM    3  C   UNL     1     -10.212   4.141  64.874  1.00  0.00    -0.204 C  
HETATM    4  C   UNL     2     -10.145   7.040  67.087  1.00  0.00    -0.217 C  
HETATM    5  N   UNL     1      -9.323   5.062  64.379  1.00  0.00    -0.355 N  
HETATM    6  H   UNL     1      -9.678   5.788  63.756  1.00  0.00     0.000 HD 
HETATM    7  C   UNL     1      -7.990   5.057  64.673  1.00  0.00    -0.102 C  
HETATM    8  C   UNL     2      -9.379   7.972  66.525  1.00  0.00    -0.205 C  
HETATM    9  C   UNL     1      -7.475   4.149  65.499  1.00  0.00    -0.077 C  
HETATM   10  N   UNL     2      -8.005   7.993  66.697  1.00  0.00    -0.101 N  
HETATM   11  O   UNL     2     -10.146   5.024  68.334  1.00  0.00    -0.157 OA 
HETATM   12  C   UNL     1      -8.368   3.138  66.095  1.00  0.00    -0.101 C  
HETATM   13  C   UNL     2      -7.360   7.048  67.491  1.00  0.00    -0.092 C  
HETATM   14  O   UNL     1      -7.938   2.322  66.902  1.00  0.00    -0.070 OA 
HETATM   15  N   UNL     1      -9.678   3.194  65.698  1.00  0.00    -0.385 N  
HETATM   16  H   UNL     1     -10.304   2.468  66.047  1.00  0.00     0.000 HD 
HETATM   17  O   UNL     2      -6.140   6.935  67.575  1.00  0.00    -0.029 OA 
HETATM   18  N   UNL     2      -8.185   6.170  68.157  1.00  0.00    -0.114 N  
HETATM   19  C   UNL     2      -9.526   5.999  67.924  1.00  0.00    -0.112 C  
HETATM   20  H   UNL     2      -7.762   5.596  68.886  1.00  0.00     0.000 HD 
ENDROOT
BRANCH  10  21
HETATM   21  C   UNL     2      -7.197   8.997  66.005  1.00  0.00    -0.093 C  
HETATM   22  C   UNL     2      -6.762   9.682  63.763  1.00  0.00    -0.112 C  
HETATM   23  C   UNL     2      -6.596   8.501  64.688  1.00  0.00    -0.066 C  
HETATM   24  C   UNL     2      -8.027  10.324  64.279  1.00  0.00    -0.132 C  
HETATM   25  O   UNL     2      -8.026  10.130  65.695  1.00  0.00    -0.134 OA 
ENDBRANCH  10  21
TORSDOF 1
ENDMDL
MODEL      110
REMARK 921   NORMALIZED FREE ENERGY PREDICTED BY IDOCK:   -3.29 KCAL/MOL
REMARK 922        TOTAL FREE ENERGY PREDICTED BY IDOCK:   -3.83 KCAL/MOL
REMARK 923 INTER-LIGAND FREE ENERGY PREDICTED BY IDOCK:   -3.49 KCAL/MOL
REMARK 924 INTRA-LIGAND FREE ENERGY PREDICTED BY IDOCK:   -0.33 KCAL/MOL
REMARK 927      BINDING AFFINITY PREDICTED BY RF-SCORE:    0.00 PKD
ROOT
HETATM    1  O   UNL     1     -10.829   8.450  67.058  1.00  0.00    -0.224 OA 
HETATM    2  F   UNL     2      -8.510   9.520  69.577  1.00  0.00    -0.113 F  
HETATM    3  C   UNL     1      -9.988   8.885  66.279  1.00  0.00    -0.266 C  
HETATM    4  C   UNL     2      -7.634  10.138  68.767  1.00  0.00    -0.089 C  
HETATM    5  N   UNL     1      -9.817  10.234  66.093  1.00  0.00    -0.213 N  
HETATM    6  H   UNL     1     -10.413  10.873  66.619  1.00  0.00     0.000 HD 
HETATM    7  C   UNL     1      -8.892  10.767  65.242  1.00  0.00    -0.187 C  
HETATM    8  C   UNL     2      -7.579  11.463  68.655  1.00  0.00    -0.130 C  
HETATM    9  C   UNL     1      -8.069   9.983  64.548  1.00  0.00    -0.156 C  
HETATM   10  N   UNL     2      -6.733  12.089  67.754  1.00  0.00    -0.086 N  
HETATM   11  O   UNL     2      -6.885   8.083  67.853  1.00  0.00    -0.069 OA 
HETATM   12  C   UNL     1      -8.171   8.521  64.709  1.00  0.00    -0.162 C  
HETATM   13  C   UNL     2      -5.878  11.356  66.936  1.00  0.00    -0.121 C  
HETATM   14  O   UNL     1      -7.393   7.773  64.129  1.00  0.00    -0.078 OA 
HETATM   15  N   UNL     1      -9.163   8.083  65.545  1.00  0.00    -0.406 N  
HETATM   16  H   UNL     1      -9.295   7.074  65.627  1.00  0.00     0.000 HD 
HETATM   17  O   UNL     2      -5.205  11.842  66.030  1.00  0.00    -0.294 OA 
HETATM   18  N   UNL     2      -5.866   9.997  67.155  1.00  0.00    -0.050 N  
HETATM   19  C   UNL     2      -6.769   9.301  67.918  1.00  0.00    -0.071 C  
HETATM   20  H   UNL     2      -5.120   9.461  66.711  1.00  0.00     0.000 HD 
ENDROOT
BRANCH  10  21
HETATM   21  C   UNL     2      -6.758  13.545  67.619  1.00  0.00    -0.167 C  
HETATM   22  C   UNL     2      -8.244  15.345  68.106  1.00  0.00    -0.144 C  
HETATM   23  C   UNL     2      -8.133  14.105  67.251  1.00  0.00    -0.188 C  
HETATM   24  C   UNL     2      -7.448  14.967  69.331  1.00  0.00    -0.196 C  
HETATM   25  O   UNL     2      -6.379  14.136  68.874  1.00  0.00    -0.082 OA 
ENDBRANCH  10  21
TORSDOF 1
ENDMDL
MODEL      111
REMARK 921   NORMALIZED FREE ENERGY PREDICTED BY IDOCK:   -3.29 KCAL/MOL
REMARK 922        TOTAL FREE ENERGY PREDICTED BY IDOCK:   -3.82 KCAL/MOL
REMARK 923 INTER-LIGAND FREE ENERGY PREDICTED BY IDOCK:   -3.48 KCAL/MOL
REMARK 924 INTRA-LIGAND FREE ENERGY PREDICTED BY IDOCK:   -0.35 KCAL/MOL
REMARK 927      BINDING AFFINITY PREDICTED BY RF-SCORE:    0.00 PKD
ROOT
HETATM    1  O   UNL     1     -12.205  10.722  68.470  1.00  0.00    -0.470 OA 
HETATM    2  F   UNL     2     -10.709   7.862  66.905  1.00  0.00    -0.386 F  
HETATM    3  C   UNL     1     -11.092  11.220  68.335  1.00  0.00    -0.240 C  
HETATM    4  C   UNL     2      -9.444   8.315  66.870  1.00  0.00    -0.186 C  
HETATM    5  N   UNL     1     -10.043  10.850  69.137  1.00  0.00    -0.312 N  
HETATM    6  H   UNL     1     -10.210  10.148  69.859  1.00  0.00     0.000 HD 
HETATM    7  C   UNL     1      -8.786  11.371  69.022  1.00  0.00     0.091 C  
HETATM    8  C   UNL     2      -8.513   7.893  67.723  1.00  0.00    -0.125 C  
HETATM    9  C   UNL     1      -8.502  12.271  68.083  1.00  0.00    -0.176 C  
HETATM   10  N   UNL     2      -7.235   8.427  67.738  1.00  0.00    -0.086 N  
HETATM   11  O   UNL     2      -9.963   9.921  65.206  1.00  0.00    -0.318 OA 
HETATM   12  C   UNL     1      -9.570  12.704  67.164  1.00  0.00    -0.207 C  
HETATM   13  C   UNL     2      -6.856   9.420  66.838  1.00  0.00    -0.080 C  
HETATM   14  O   UNL     1      -9.329  13.489  66.253  1.00  0.00    -0.225 OA 
HETATM   15  N   UNL     1     -10.807  12.163  67.392  1.00  0.00    -0.236 N  
HETATM   16  H   UNL     1     -11.577  12.493  66.809  1.00  0.00     0.000 HD 
HETATM   17  O   UNL     2      -5.787  10.023  66.887  1.00  0.00    -0.050 OA 
HETATM   18  N   UNL     2      -7.797   9.753  65.890  1.00  0.00    -0.106 N  
HETATM   19  C   UNL     2      -9.115   9.375  65.903  1.00  0.00    -0.195 C  
HETATM   20  H   UNL     2      -7.486  10.331  65.109  1.00  0.00     0.000 HD 
ENDROOT
BRANCH  10  21
HETATM   21  C   UNL     2      -6.267   7.979  68.738  1.00  0.00    -0.040 C  
HETATM   22  C   UNL     2      -6.240   6.605  70.687  1.00  0.00    -0.035 C  
HETATM   23  C   UNL     2      -6.845   7.880  70.151  1.00  0.00    -0.045 C  
HETATM   24  C   UNL     2      -6.101   5.764  69.441  1.00  0.00    -0.031 C  
HETATM   25  O   UNL     2      -5.796   6.669  68.378  1.00  0.00    -0.019 OA 
ENDBRANCH  10  21
TORSDOF 1
ENDMDL
MODEL      112
REMARK 921   NORMALIZED FREE ENERGY PREDICTED BY IDOCK:   -3.29 KCAL/MOL
REMARK 922        TOTAL FREE ENERGY PREDICTED BY IDOCK:   -3.82 KCAL/MOL
REMARK 923 INTER-LIGAND FREE ENERGY PREDICTED BY IDOCK:   -3.51 KCAL/MOL
REMARK 924 INTRA-LIGAND FREE ENERGY PREDICTED BY IDOCK:   -0.31 KCAL/MOL
REMARK 927      BINDING AFFINITY PREDICTED BY RF-SCORE:    0.00 PKD
ROOT
HETATM    1  O   UNL     1     -12.744   6.808  72.125  1.00  0.00    -0.232 OA 
HETATM    2  F   UNL     2     -11.866   6.797  68.648  1.00  0.00    -0.026 F  
HETATM    3  C   UNL     1     -11.531   6.796  72.302  1.00  0.00    -0.276 C  
HETATM    4  C   UNL     2     -10.539   6.636  68.796  1.00  0.00    -0.236 C  
HETATM    5  N   UNL     1     -10.791   5.658  72.098  1.00  0.00    -0.237 N  
HETATM    6  H   UNL     1     -11.278   4.814  71.798  1.00  0.00     0.000 HD 
HETATM    7  C   UNL     1      -9.439   5.596  72.276  1.00  0.00    -0.144 C  
HETATM    8  C   UNL     2      -9.936   5.468  68.590  1.00  0.00    -0.166 C  
HETATM    9  C   UNL     1      -8.747   6.673  72.643  1.00  0.00    -0.127 C  
HETATM   10  N   UNL     2      -8.583   5.289  68.828  1.00  0.00    -0.091 N  
HETATM   11  O   UNL     2     -10.273   8.831  69.651  1.00  0.00    -0.198 OA 
HETATM   12  C   UNL     1      -9.464   7.943  72.859  1.00  0.00    -0.257 C  
HETATM   13  C   UNL     2      -7.782   6.336  69.275  1.00  0.00    -0.100 C  
HETATM   14  O   UNL     1      -8.852   8.966  73.142  1.00  0.00    -0.214 OA 
HETATM   15  N   UNL     1     -10.824   7.891  72.705  1.00  0.00    -0.362 N  
HETATM   16  H   UNL     1     -11.351   8.741  72.909  1.00  0.00     0.000 HD 
HETATM   17  O   UNL     2      -6.613   6.208  69.629  1.00  0.00    -0.043 OA 
HETATM   18  N   UNL     2      -8.403   7.561  69.365  1.00  0.00    -0.130 N  
HETATM   19  C   UNL     2      -9.755   7.782  69.286  1.00  0.00    -0.165 C  
HETATM   20  H   UNL     2      -7.805   8.377  69.503  1.00  0.00     0.000 HD 
ENDROOT
BRANCH  10  21
HETATM   21  C   UNL     2      -7.979   3.969  68.651  1.00  0.00    -0.071 C  
HETATM   22  C   UNL     2      -8.474   1.704  69.207  1.00  0.00    -0.079 C  
HETATM   23  C   UNL     2      -8.175   3.037  69.848  1.00  0.00    -0.067 C  
HETATM   24  C   UNL     2      -9.183   2.106  67.937  1.00  0.00    -0.189 C  
HETATM   25  O   UNL     2      -8.579   3.330  67.511  1.00  0.00    -0.093 OA 
ENDBRANCH  10  21
TORSDOF 1
ENDMDL
MODEL      113
REMARK 921   NORMALIZED FREE ENERGY PREDICTED BY IDOCK:   -3.28 KCAL/MOL
REMARK 922        TOTAL FREE ENERGY PREDICTED BY IDOCK:   -3.82 KCAL/MOL
REMARK 923 INTER-LIGAND FREE ENERGY PREDICTED BY IDOCK:   -3.47 KCAL/MOL
REMARK 924 INTRA-LIGAND FREE ENERGY PREDICTED BY IDOCK:   -0.35 KCAL/MOL
REMARK 927      BINDING AFFINITY PREDICTED BY RF-SCORE:    0.00 PKD
ROOT
HETATM    1  O   UNL     1      -9.182  10.131  70.008  1.00  0.00    -0.166 OA 
HETATM    2  F   UNL     2     -10.868   8.455  67.322  1.00  0.00    -0.357 F  
HETATM    3  C   UNL     1      -8.560  10.681  69.106  1.00  0.00    -0.128 C  
HETATM    4  C   UNL     2     -10.112   8.923  66.313  1.00  0.00    -0.214 C  
HETATM    5  N   UNL     1      -7.589  10.017  68.401  1.00  0.00    -0.082 N  
HETATM    6  H   UNL     1      -7.391   9.047  68.648  1.00  0.00     0.000 HD 
HETATM    7  C   UNL     1      -6.873  10.584  67.385  1.00  0.00    -0.076 C  
HETATM    8  C   UNL     2      -9.179   8.184  65.719  1.00  0.00    -0.034 C  
HETATM    9  C   UNL     1      -7.105  11.837  67.002  1.00  0.00    -0.132 C  
HETATM   10  N   UNL     2      -8.346   8.701  64.740  1.00  0.00    -0.160 N  
HETATM   11  O   UNL     2     -11.002  11.109  66.536  1.00  0.00    -0.271 OA 
HETATM   12  C   UNL     1      -8.151  12.613  67.693  1.00  0.00    -0.173 C  
HETATM   13  C   UNL     2      -8.465  10.020  64.312  1.00  0.00    -0.175 C  
HETATM   14  O   UNL     1      -8.428  13.750  67.329  1.00  0.00    -0.186 OA 
HETATM   15  N   UNL     1      -8.777  11.975  68.730  1.00  0.00    -0.369 N  
HETATM   16  H   UNL     1      -9.461  12.511  69.265  1.00  0.00     0.000 HD 
HETATM   17  O   UNL     2      -7.676  10.571  63.549  1.00  0.00    -0.101 OA 
HETATM   18  N   UNL     2      -9.514  10.728  64.854  1.00  0.00    -0.224 N  
HETATM   19  C   UNL     2     -10.280  10.333  65.921  1.00  0.00    -0.223 C  
HETATM   20  H   UNL     2      -9.742  11.625  64.424  1.00  0.00     0.000 HD 
ENDROOT
BRANCH  10  21
HETATM   21  C   UNL     2      -7.291   7.868  64.165  1.00  0.00    -0.097 C  
HETATM   22  C   UNL     2      -6.547   5.607  64.298  1.00  0.00    -0.044 C  
HETATM   23  C   UNL     2      -6.711   6.846  65.144  1.00  0.00    -0.050 C  
HETATM   24  C   UNL     2      -7.680   5.736  63.309  1.00  0.00    -0.089 C  
HETATM   25  O   UNL     2      -7.830   7.134  63.052  1.00  0.00    -0.120 OA 
ENDBRANCH  10  21
TORSDOF 1
ENDMDL
MODEL      114
REMARK 921   NORMALIZED FREE ENERGY PREDICTED BY IDOCK:   -3.28 KCAL/MOL
REMARK 922        TOTAL FREE ENERGY PREDICTED BY IDOCK:   -3.82 KCAL/MOL
REMARK 923 INTER-LIGAND FREE ENERGY PREDICTED BY IDOCK:   -3.51 KCAL/MOL
REMARK 924 INTRA-LIGAND FREE ENERGY PREDICTED BY IDOCK:   -0.31 KCAL/MOL
REMARK 927      BINDING AFFINITY PREDICTED BY RF-SCORE:    0.00 PKD
ROOT
HETATM    1  O   UNL     1     -12.552   6.632  71.164  1.00  0.00    -0.303 OA 
HETATM    2  F   UNL     2     -10.068   4.258  72.193  1.00  0.00    -0.218 F  
HETATM    3  C   UNL     1     -11.654   7.072  70.454  1.00  0.00    -0.295 C  
HETATM    4  C   UNL     2      -9.021   4.797  71.544  1.00  0.00    -0.134 C  
HETATM    5  N   UNL     1     -10.621   7.805  70.981  1.00  0.00    -0.212 N  
HETATM    6  H   UNL     1     -10.618   7.980  71.986  1.00  0.00     0.000 HD 
HETATM    7  C   UNL     1      -9.597   8.311  70.234  1.00  0.00    -0.168 C  
HETATM    8  C   UNL     2      -8.088   5.512  72.168  1.00  0.00    -0.111 C  
HETATM    9  C   UNL     1      -9.535   8.093  68.922  1.00  0.00    -0.151 C  
HETATM   10  N   UNL     2      -7.060   6.137  71.480  1.00  0.00    -0.076 N  
HETATM   11  O   UNL     2      -9.877   4.149  69.431  1.00  0.00    -0.197 OA 
HETATM   12  C   UNL     1     -10.594   7.294  68.280  1.00  0.00    -0.172 C  
HETATM   13  C   UNL     2      -6.942   6.024  70.097  1.00  0.00    -0.069 C  
HETATM   14  O   UNL     1     -10.539   7.027  67.085  1.00  0.00    -0.269 OA 
HETATM   15  N   UNL     1     -11.604   6.874  69.104  1.00  0.00    -0.542 N  
HETATM   16  H   UNL     1     -12.382   6.372  68.675  1.00  0.00     0.000 HD 
HETATM   17  O   UNL     2      -6.137   6.657  69.419  1.00  0.00    -0.024 OA 
HETATM   18  N   UNL     2      -7.847   5.182  69.491  1.00  0.00    -0.075 N  
HETATM   19  C   UNL     2      -8.967   4.651  70.080  1.00  0.00    -0.089 C  
HETATM   20  H   UNL     2      -7.669   4.931  68.518  1.00  0.00     0.000 HD 
ENDROOT
BRANCH  10  21
HETATM   21  C   UNL     2      -6.097   6.967  72.201  1.00  0.00    -0.041 C  
HETATM   22  C   UNL     2      -6.127   8.686  73.854  1.00  0.00    -0.130 C  
HETATM   23  C   UNL     2      -6.580   8.399  72.443  1.00  0.00    -0.095 C  
HETATM   24  C   UNL     2      -6.200   7.324  74.502  1.00  0.00    -0.082 C  
HETATM   25  O   UNL     2      -5.846   6.379  73.489  1.00  0.00    -0.052 OA 
ENDBRANCH  10  21
TORSDOF 1
ENDMDL
MODEL      115
REMARK 921   NORMALIZED FREE ENERGY PREDICTED BY IDOCK:   -3.28 KCAL/MOL
REMARK 922        TOTAL FREE ENERGY PREDICTED BY IDOCK:   -3.81 KCAL/MOL
REMARK 923 INTER-LIGAND FREE ENERGY PREDICTED BY IDOCK:   -4.08 KCAL/MOL
REMARK 924 INTRA-LIGAND FREE ENERGY PREDICTED BY IDOCK:    0.26 KCAL/MOL
REMARK 927      BINDING AFFINITY PREDICTED BY RF-SCORE:    0.00 PKD
ROOT
HETATM    1  O   UNL     1      -5.802  11.161  66.184  1.00  0.00    -0.144 OA 
HETATM    2  F   UNL     2      -9.178  12.227  65.606  1.00  0.00    -0.184 F  
HETATM    3  C   UNL     1      -5.882  11.873  67.180  1.00  0.00    -0.144 C  
HETATM    4  C   UNL     2      -9.257  13.128  66.601  1.00  0.00    -0.215 C  
HETATM    5  N   UNL     1      -5.840  13.241  67.085  1.00  0.00     0.098 N  
HETATM    6  H   UNL     1      -5.736  13.657  66.159  1.00  0.00     0.000 HD 
HETATM    7  C   UNL     1      -5.931  14.075  68.162  1.00  0.00    -0.126 C  
HETATM    8  C   UNL     2      -9.180  14.438  66.384  1.00  0.00    -0.213 C  
HETATM    9  C   UNL     1      -6.093  13.589  69.391  1.00  0.00    -0.103 C  
HETATM   10  N   UNL     2      -9.175  15.355  67.422  1.00  0.00    -0.194 N  
HETATM   11  O   UNL     2      -9.258  11.435  68.260  1.00  0.00    -0.170 OA 
HETATM   12  C   UNL     1      -6.173  12.129  69.576  1.00  0.00    -0.124 C  
HETATM   13  C   UNL     2      -9.276  14.946  68.749  1.00  0.00    -0.193 C  
HETATM   14  O   UNL     1      -6.378  11.651  70.686  1.00  0.00    -0.257 OA 
HETATM   15  N   UNL     1      -6.021  11.376  68.443  1.00  0.00    -0.045 N  
HETATM   16  H   UNL     1      -6.010  10.361  68.552  1.00  0.00     0.000 HD 
HETATM   17  O   UNL     2      -9.146  15.695  69.714  1.00  0.00    -0.240 OA 
HETATM   18  N   UNL     2      -9.477  13.598  68.940  1.00  0.00    -0.408 N  
HETATM   19  C   UNL     2      -9.348  12.625  67.982  1.00  0.00    -0.209 C  
HETATM   20  H   UNL     2      -9.743  13.296  69.878  1.00  0.00     0.000 HD 
ENDROOT
BRANCH  10  21
HETATM   21  C   UNL     2      -9.021  16.781  67.137  1.00  0.00    -0.204 C  
HETATM   22  C   UNL     2      -7.261  18.387  67.036  1.00  0.00    -0.218 C  
HETATM   23  C   UNL     2      -7.967  17.471  68.006  1.00  0.00    -0.234 C  
HETATM   24  C   UNL     2      -7.358  17.623  65.738  1.00  0.00    -0.045 C  
HETATM   25  O   UNL     2      -8.614  16.942  65.767  1.00  0.00    -0.505 OA 
ENDBRANCH  10  21
TORSDOF 1
ENDMDL
MODEL      116
REMARK 921   NORMALIZED FREE ENERGY PREDICTED BY IDOCK:   -3.28 KCAL/MOL
REMARK 922        TOTAL FREE ENERGY PREDICTED BY IDOCK:   -3.81 KCAL/MOL
REMARK 923 INTER-LIGAND FREE ENERGY PREDICTED BY IDOCK:   -3.47 KCAL/MOL
REMARK 924 INTRA-LIGAND FREE ENERGY PREDICTED BY IDOCK:   -0.35 KCAL/MOL
REMARK 927      BINDING AFFINITY PREDICTED BY RF-SCORE:    0.00 PKD
ROOT
HETATM    1  O   UNL     1     -10.455   3.202  64.394  1.00  0.00    -0.077 OA 
HETATM    2  F   UNL     2      -9.909   2.045  67.745  1.00  0.00    -0.179 F  
HETATM    3  C   UNL     1      -9.725   4.129  64.730  1.00  0.00    -0.184 C  
HETATM    4  C   UNL     2      -9.228   3.113  68.197  1.00  0.00    -0.195 C  
HETATM    5  N   UNL     1     -10.175   5.127  65.557  1.00  0.00    -0.419 N  
HETATM    6  H   UNL     1     -11.140   5.083  65.886  1.00  0.00     0.000 HD 
HETATM    7  C   UNL     1      -9.401   6.176  65.964  1.00  0.00    -0.057 C  
HETATM    8  C   UNL     2      -9.785   4.032  68.982  1.00  0.00    -0.091 C  
HETATM    9  C   UNL     1      -8.127   6.272  65.587  1.00  0.00    -0.129 C  
HETATM   10  N   UNL     2      -9.104   5.173  69.373  1.00  0.00    -0.105 N  
HETATM   11  O   UNL     2      -7.331   2.580  66.880  1.00  0.00    -0.059 OA 
HETATM   12  C   UNL     1      -7.559   5.226  64.717  1.00  0.00    -0.083 C  
HETATM   13  C   UNL     2      -7.788   5.400  68.980  1.00  0.00    -0.090 C  
HETATM   14  O   UNL     1      -6.377   5.255  64.397  1.00  0.00    -0.028 OA 
HETATM   15  N   UNL     1      -8.428   4.245  64.322  1.00  0.00    -0.105 N  
HETATM   16  H   UNL     1      -8.077   3.543  63.670  1.00  0.00     0.000 HD 
HETATM   17  O   UNL     2      -7.178   6.447  69.182  1.00  0.00    -0.084 OA 
HETATM   18  N   UNL     2      -7.195   4.380  68.270  1.00  0.00    -0.060 N  
HETATM   19  C   UNL     2      -7.845   3.299  67.730  1.00  0.00    -0.075 C  
HETATM   20  H   UNL     2      -6.186   4.432  68.134  1.00  0.00     0.000 HD 
ENDROOT
BRANCH  10  21
HETATM   21  C   UNL     2      -9.780   6.188  70.180  1.00  0.00    -0.163 C  
HETATM   22  C   UNL     2     -11.888   6.481  71.255  1.00  0.00    -0.385 C  
HETATM   23  C   UNL     2     -11.276   6.311  69.886  1.00  0.00    -0.498 C  
HETATM   24  C   UNL     2     -10.951   5.684  72.131  1.00  0.00    -0.250 C  
HETATM   25  O   UNL     2      -9.646   5.843  71.570  1.00  0.00    -0.153 OA 
ENDBRANCH  10  21
TORSDOF 1
ENDMDL
MODEL      117
REMARK 921   NORMALIZED FREE ENERGY PREDICTED BY IDOCK:   -3.25 KCAL/MOL
REMARK 922        TOTAL FREE ENERGY PREDICTED BY IDOCK:   -3.78 KCAL/MOL
REMARK 923 INTER-LIGAND FREE ENERGY PREDICTED BY IDOCK:   -3.46 KCAL/MOL
REMARK 924 INTRA-LIGAND FREE ENERGY PREDICTED BY IDOCK:   -0.33 KCAL/MOL
REMARK 927      BINDING AFFINITY PREDICTED BY RF-SCORE:    0.00 PKD
ROOT
HETATM    1  O   UNL     1     -10.204   5.329  70.200  1.00  0.00    -0.237 OA 
HETATM    2  F   UNL     2      -8.150   8.175  70.939  1.00  0.00    -0.085 F  
HETATM    3  C   UNL     1     -10.078   5.698  69.038  1.00  0.00    -0.195 C  
HETATM    4  C   UNL     2      -8.108   8.696  69.701  1.00  0.00    -0.112 C  
HETATM    5  N   UNL     1     -10.754   6.792  68.559  1.00  0.00    -0.265 N  
HETATM    6  H   UNL     1     -11.373   7.294  69.196  1.00  0.00     0.000 HD 
HETATM    7  C   UNL     1     -10.642   7.246  67.276  1.00  0.00    -0.325 C  
HETATM    8  C   UNL     2      -8.833   9.754  69.347  1.00  0.00    -0.182 C  
HETATM    9  C   UNL     1      -9.830   6.646  66.407  1.00  0.00    -0.101 C  
HETATM   10  N   UNL     2      -8.850  10.231  68.047  1.00  0.00    -0.122 N  
HETATM   11  O   UNL     2      -6.731   6.937  68.907  1.00  0.00    -0.055 OA 
HETATM   12  C   UNL     1      -9.048   5.477  66.850  1.00  0.00    -0.115 C  
HETATM   13  C   UNL     2      -8.085   9.635  67.048  1.00  0.00    -0.113 C  
HETATM   14  O   UNL     1      -8.250   4.936  66.093  1.00  0.00    -0.107 OA 
HETATM   15  N   UNL     1      -9.268   5.069  68.138  1.00  0.00    -0.115 N  
HETATM   16  H   UNL     1      -8.786   4.225  68.451  1.00  0.00     0.000 HD 
HETATM   17  O   UNL     2      -8.158   9.926  65.857  1.00  0.00    -0.115 OA 
HETATM   18  N   UNL     2      -7.253   8.620  67.463  1.00  0.00    -0.080 N  
HETATM   19  C   UNL     2      -7.289   8.006  68.689  1.00  0.00    -0.089 C  
HETATM   20  H   UNL     2      -6.548   8.296  66.800  1.00  0.00     0.000 HD 
ENDROOT
BRANCH  10  21
HETATM   21  C   UNL     2      -9.715  11.355  67.692  1.00  0.00    -0.172 C  
HETATM   22  C   UNL     2     -11.863  12.197  68.294  1.00  0.00    -0.361 C  
HETATM   23  C   UNL     2     -11.203  10.999  67.656  1.00  0.00    -0.373 C  
HETATM   24  C   UNL     2     -10.817  12.660  69.278  1.00  0.00     0.009 C  
HETATM   25  O   UNL     2      -9.550  12.397  68.669  1.00  0.00    -0.147 OA 
ENDBRANCH  10  21
TORSDOF 1
ENDMDL
MODEL      118
REMARK 921   NORMALIZED FREE ENERGY PREDICTED BY IDOCK:   -3.24 KCAL/MOL
REMARK 922        TOTAL FREE ENERGY PREDICTED BY IDOCK:   -3.78 KCAL/MOL
REMARK 923 INTER-LIGAND FREE ENERGY PREDICTED BY IDOCK:   -3.45 KCAL/MOL
REMARK 924 INTRA-LIGAND FREE ENERGY PREDICTED BY IDOCK:   -0.32 KCAL/MOL
REMARK 927      BINDING AFFINITY PREDICTED BY RF-SCORE:    0.00 PKD
ROOT
HETATM    1  O   UNL     1      -8.063   9.753  70.753  1.00  0.00    -0.271 OA 
HETATM    2  F   UNL     2      -6.042   6.897  69.961  1.00  0.00    -0.022 F  
HETATM    3  C   UNL     1      -8.918   8.916  71.021  1.00  0.00    -0.241 C  
HETATM    4  C   UNL     2      -6.993   5.957  70.102  1.00  0.00    -0.069 C  
HETATM    5  N   UNL     1      -9.586   8.237  70.032  1.00  0.00    -0.167 N  
HETATM    6  H   UNL     1      -9.356   8.449  69.061  1.00  0.00     0.000 HD 
HETATM    7  C   UNL     1     -10.541   7.293  70.279  1.00  0.00    -0.229 C  
HETATM    8  C   UNL     2      -7.588   5.384  69.059  1.00  0.00    -0.085 C  
HETATM    9  C   UNL     1     -10.864   6.956  71.526  1.00  0.00    -0.257 C  
HETATM   10  N   UNL     2      -8.627   4.480  69.211  1.00  0.00    -0.078 N  
HETATM   11  O   UNL     2      -7.050   6.232  72.455  1.00  0.00    -0.080 OA 
HETATM   12  C   UNL     1     -10.174   7.622  72.646  1.00  0.00    -0.265 C  
HETATM   13  C   UNL     2      -9.083   4.109  70.473  1.00  0.00    -0.109 C  
HETATM   14  O   UNL     1     -10.408   7.297  73.805  1.00  0.00    -0.360 OA 
HETATM   15  N   UNL     1      -9.271   8.589  72.298  1.00  0.00    -0.264 N  
HETATM   16  H   UNL     1      -8.825   9.109  73.055  1.00  0.00     0.000 HD 
HETATM   17  O   UNL     2     -10.080   3.420  70.671  1.00  0.00     0.050 OA 
HETATM   18  N   UNL     2      -8.374   4.622  71.535  1.00  0.00    -0.102 N  
HETATM   19  C   UNL     2      -7.439   5.623  71.465  1.00  0.00    -0.096 C  
HETATM   20  H   UNL     2      -8.560   4.223  72.455  1.00  0.00     0.000 HD 
ENDROOT
BRANCH  10  21
HETATM   21  C   UNL     2      -9.294   3.928  68.033  1.00  0.00    -0.174 C  
HETATM   22  C   UNL     2     -10.011   4.681  65.887  1.00  0.00    -0.256 C  
HETATM   23  C   UNL     2     -10.259   4.905  67.359  1.00  0.00    -0.173 C  
HETATM   24  C   UNL     2      -8.549   4.307  65.857  1.00  0.00    -0.114 C  
HETATM   25  O   UNL     2      -8.299   3.571  67.058  1.00  0.00    -0.093 OA 
ENDBRANCH  10  21
TORSDOF 1
ENDMDL
MODEL      119
REMARK 921   NORMALIZED FREE ENERGY PREDICTED BY IDOCK:   -3.21 KCAL/MOL
REMARK 922        TOTAL FREE ENERGY PREDICTED BY IDOCK:   -3.74 KCAL/MOL
REMARK 923 INTER-LIGAND FREE ENERGY PREDICTED BY IDOCK:   -3.44 KCAL/MOL
REMARK 924 INTRA-LIGAND FREE ENERGY PREDICTED BY IDOCK:   -0.31 KCAL/MOL
REMARK 927      BINDING AFFINITY PREDICTED BY RF-SCORE:    0.00 PKD
ROOT
HETATM    1  O   UNL     1      -7.289   7.000  67.216  1.00  0.00    -0.086 OA 
HETATM    2  F   UNL     2      -9.663   8.703  69.296  1.00  0.00    -0.164 F  
HETATM    3  C   UNL     1      -7.588   6.022  67.892  1.00  0.00    -0.097 C  
HETATM    4  C   UNL     2      -9.911   7.696  70.152  1.00  0.00    -0.186 C  
HETATM    5  N   UNL     1      -7.139   5.880  69.181  1.00  0.00    -0.067 N  
HETATM    6  H   UNL     1      -6.541   6.611  69.567  1.00  0.00     0.000 HD 
HETATM    7  C   UNL     1      -7.449   4.813  69.975  1.00  0.00    -0.055 C  
HETATM    8  C   UNL     2      -9.395   7.659  71.378  1.00  0.00    -0.140 C  
HETATM    9  C   UNL     1      -8.246   3.841  69.533  1.00  0.00    -0.067 C  
HETATM   10  N   UNL     2      -9.584   6.576  72.221  1.00  0.00    -0.148 N  
HETATM   11  O   UNL     2     -11.080   6.457  68.503  1.00  0.00    -0.318 OA 
HETATM   12  C   UNL     1      -8.791   3.931  68.167  1.00  0.00    -0.110 C  
HETATM   13  C   UNL     2     -10.348   5.480  71.832  1.00  0.00    -0.216 C  
HETATM   14  O   UNL     1      -9.571   3.083  67.749  1.00  0.00    -0.196 OA 
HETATM   15  N   UNL     1      -8.382   5.011  67.432  1.00  0.00    -0.106 N  
HETATM   16  H   UNL     1      -8.695   5.065  66.463  1.00  0.00     0.000 HD 
HETATM   17  O   UNL     2     -10.443   4.440  72.478  1.00  0.00    -0.188 OA 
HETATM   18  N   UNL     2     -10.970   5.595  70.608  1.00  0.00    -0.235 N  
HETATM   19  C   UNL     2     -10.715   6.561  69.668  1.00  0.00    -0.269 C  
HETATM   20  H   UNL     2     -11.682   4.900  70.381  1.00  0.00     0.000 HD 
ENDROOT
BRANCH  10  21
HETATM   21  C   UNL     2      -8.941   6.552  73.534  1.00  0.00    -0.125 C  
HETATM   22  C   UNL     2      -6.783   6.972  74.458  1.00  0.00    -0.090 C  
HETATM   23  C   UNL     2      -7.497   6.048  73.502  1.00  0.00    -0.093 C  
HETATM   24  C   UNL     2      -7.553   8.261  74.300  1.00  0.00    -0.212 C  
HETATM   25  O   UNL     2      -8.913   7.888  74.065  1.00  0.00    -0.267 OA 
ENDBRANCH  10  21
TORSDOF 1
ENDMDL
MODEL      120
REMARK 921   NORMALIZED FREE ENERGY PREDICTED BY IDOCK:   -3.21 KCAL/MOL
REMARK 922        TOTAL FREE ENERGY PREDICTED BY IDOCK:   -3.73 KCAL/MOL
REMARK 923 INTER-LIGAND FREE ENERGY PREDICTED BY IDOCK:   -3.81 KCAL/MOL
REMARK 924 INTRA-LIGAND FREE ENERGY PREDICTED BY IDOCK:    0.08 KCAL/MOL
REMARK 927      BINDING AFFINITY PREDICTED BY RF-SCORE:    0.00 PKD
ROOT
HETATM    1  O   UNL     1      -7.824  11.607  65.708  1.00  0.00     0.278 OA 
HETATM    2  F   UNL     2     -11.390  11.731  66.074  1.00  0.00    -0.357 F  
HETATM    3  C   UNL     1      -7.851  11.136  66.840  1.00  0.00    -0.152 C  
HETATM    4  C   UNL     2     -11.453  11.357  67.363  1.00  0.00    -0.251 C  
HETATM    5  N   UNL     1      -8.096  11.924  67.935  1.00  0.00    -0.138 N  
HETATM    6  H   UNL     1      -8.252  12.921  67.787  1.00  0.00     0.000 HD 
HETATM    7  C   UNL     1      -8.141  11.446  69.214  1.00  0.00     0.187 C  
HETATM    8  C   UNL     2     -11.676  12.225  68.347  1.00  0.00    -0.337 C  
HETATM    9  C   UNL     1      -7.970  10.149  69.465  1.00  0.00    -0.170 C  
HETATM   10  N   UNL     2     -11.654  11.846  69.679  1.00  0.00    -0.316 N  
HETATM   11  O   UNL     2     -10.809   9.135  66.848  1.00  0.00    -0.147 OA 
HETATM   12  C   UNL     1      -7.726   9.230  68.339  1.00  0.00    -0.090 C  
HETATM   13  C   UNL     2     -11.420  10.525  70.052  1.00  0.00    -0.316 C  
HETATM   14  O   UNL     1      -7.620   8.024  68.529  1.00  0.00    -0.099 OA 
HETATM   15  N   UNL     1      -7.647   9.812  67.102  1.00  0.00    -0.092 N  
HETATM   16  H   UNL     1      -7.418   9.207  66.313  1.00  0.00     0.000 HD 
HETATM   17  O   UNL     2     -11.257  10.154  71.211  1.00  0.00    -0.290 OA 
HETATM   18  N   UNL     2     -11.312   9.626  69.015  1.00  0.00    -0.460 N  
HETATM   19  C   UNL     2     -11.181   9.946  67.688  1.00  0.00     0.043 C  
HETATM   20  H   UNL     2     -11.332   8.634  69.255  1.00  0.00     0.000 HD 
ENDROOT
BRANCH  10  21
HETATM   21  C   UNL     2     -11.837  12.849  70.728  1.00  0.00     0.185 C  
HETATM   22  C   UNL     2     -13.374  14.592  71.263  1.00  0.00    -0.430 C  
HETATM   23  C   UNL     2     -12.369  14.187  70.212  1.00  0.00    -0.421 C  
HETATM   24  C   UNL     2     -13.893  13.260  71.746  1.00  0.00    -0.087 C  
HETATM   25  O   UNL     2     -12.788  12.354  71.686  1.00  0.00    -0.348 OA 
ENDBRANCH  10  21
TORSDOF 1
ENDMDL
MODEL      121
REMARK 921   NORMALIZED FREE ENERGY PREDICTED BY IDOCK:   -3.15 KCAL/MOL
REMARK 922        TOTAL FREE ENERGY PREDICTED BY IDOCK:   -3.68 KCAL/MOL
REMARK 923 INTER-LIGAND FREE ENERGY PREDICTED BY IDOCK:   -3.38 KCAL/MOL
REMARK 924 INTRA-LIGAND FREE ENERGY PREDICTED BY IDOCK:   -0.29 KCAL/MOL
REMARK 927      BINDING AFFINITY PREDICTED BY RF-SCORE:    0.00 PKD
ROOT
HETATM    1  O   UNL     1      -9.894   3.700  71.063  1.00  0.00    -0.182 OA 
HETATM    2  F   UNL     2     -11.776   6.060  69.125  1.00  0.00    -0.408 F  
HETATM    3  C   UNL     1      -9.145   4.652  71.262  1.00  0.00    -0.134 C  
HETATM    4  C   UNL     2     -10.910   7.085  69.196  1.00  0.00    -0.195 C  
HETATM    5  N   UNL     1      -8.297   5.108  70.285  1.00  0.00    -0.096 N  
HETATM    6  H   UNL     1      -8.298   4.631  69.383  1.00  0.00     0.000 HD 
HETATM    7  C   UNL     1      -7.450   6.166  70.455  1.00  0.00    -0.090 C  
HETATM    8  C   UNL     2     -10.117   7.420  68.182  1.00  0.00    -0.179 C  
HETATM    9  C   UNL     1      -7.422   6.841  71.602  1.00  0.00    -0.087 C  
HETATM   10  N   UNL     2      -9.166   8.422  68.292  1.00  0.00    -0.135 N  
HETATM   11  O   UNL     2     -11.369   7.437  71.495  1.00  0.00    -0.248 OA 
HETATM   12  C   UNL     1      -8.323   6.430  72.695  1.00  0.00    -0.122 C  
HETATM   13  C   UNL     2      -9.013   9.146  69.470  1.00  0.00    -0.151 C  
HETATM   14  O   UNL     1      -8.363   7.064  73.743  1.00  0.00    -0.124 OA 
HETATM   15  N   UNL     1      -9.096   5.328  72.446  1.00  0.00    -0.134 N  
HETATM   16  H   UNL     1      -9.682   4.985  73.207  1.00  0.00     0.000 HD 
HETATM   17  O   UNL     2      -8.107   9.950  69.673  1.00  0.00    -0.132 OA 
HETATM   18  N   UNL     2      -9.924   8.865  70.463  1.00  0.00    -0.189 N  
HETATM   19  C   UNL     2     -10.789   7.800  70.478  1.00  0.00    -0.241 C  
HETATM   20  H   UNL     2      -9.960   9.504  71.258  1.00  0.00     0.000 HD 
ENDROOT
BRANCH  10  21
HETATM   21  C   UNL     2      -8.272   8.707  67.171  1.00  0.00    -0.107 C  
HETATM   22  C   UNL     2      -6.831   7.502  65.703  1.00  0.00    -0.056 C  
HETATM   23  C   UNL     2      -7.005   7.849  67.161  1.00  0.00    -0.074 C  
HETATM   24  C   UNL     2      -8.256   7.452  65.208  1.00  0.00    -0.127 C  
HETATM   25  O   UNL     2      -8.970   8.450  65.940  1.00  0.00    -0.172 OA 
ENDBRANCH  10  21
TORSDOF 1
ENDMDL
MODEL      122
REMARK 921   NORMALIZED FREE ENERGY PREDICTED BY IDOCK:   -3.13 KCAL/MOL
REMARK 922        TOTAL FREE ENERGY PREDICTED BY IDOCK:   -3.66 KCAL/MOL
REMARK 923 INTER-LIGAND FREE ENERGY PREDICTED BY IDOCK:   -3.31 KCAL/MOL
REMARK 924 INTRA-LIGAND FREE ENERGY PREDICTED BY IDOCK:   -0.35 KCAL/MOL
REMARK 927      BINDING AFFINITY PREDICTED BY RF-SCORE:    0.00 PKD
ROOT
HETATM    1  O   UNL     1     -12.015   6.498  70.219  1.00  0.00    -0.394 OA 
HETATM    2  F   UNL     2     -11.135   5.491  66.891  1.00  0.00    -0.299 F  
HETATM    3  C   UNL     1     -10.951   7.107  70.180  1.00  0.00    -0.267 C  
HETATM    4  C   UNL     2      -9.900   6.021  66.861  1.00  0.00    -0.158 C  
HETATM    5  N   UNL     1      -9.750   6.453  70.284  1.00  0.00    -0.167 N  
HETATM    6  H   UNL     1      -9.761   5.439  70.400  1.00  0.00     0.000 HD 
HETATM    7  C   UNL     1      -8.541   7.085  70.241  1.00  0.00    -0.140 C  
HETATM    8  C   UNL     2      -8.803   5.280  66.997  1.00  0.00    -0.109 C  
HETATM    9  C   UNL     1      -8.464   8.403  70.067  1.00  0.00    -0.125 C  
HETATM   10  N   UNL     2      -7.538   5.843  67.052  1.00  0.00    -0.098 N  
HETATM   11  O   UNL     2     -10.749   8.233  66.797  1.00  0.00    -0.267 OA 
HETATM   12  C   UNL     1      -9.710   9.177  69.922  1.00  0.00    -0.191 C  
HETATM   13  C   UNL     2      -7.354   7.219  66.944  1.00  0.00    -0.092 C  
HETATM   14  O   UNL     1      -9.674  10.383  69.704  1.00  0.00    -0.205 OA 
HETATM   15  N   UNL     1     -10.872   8.461  70.030  1.00  0.00    -0.257 N  
HETATM   16  H   UNL     1     -11.749   8.982  69.995  1.00  0.00     0.000 HD 
HETATM   17  O   UNL     2      -6.280   7.787  67.117  1.00  0.00    -0.050 OA 
HETATM   18  N   UNL     2      -8.491   7.951  66.683  1.00  0.00    -0.126 N  
HETATM   19  C   UNL     2      -9.779   7.485  66.759  1.00  0.00    -0.216 C  
HETATM   20  H   UNL     2      -8.364   8.926  66.411  1.00  0.00     0.000 HD 
ENDROOT
BRANCH  10  21
HETATM   21  C   UNL     2      -6.368   4.994  67.270  1.00  0.00    -0.040 C  
HETATM   22  C   UNL     2      -5.855   2.666  67.326  1.00  0.00    -0.023 C  
HETATM   23  C   UNL     2      -6.676   3.710  68.043  1.00  0.00    -0.046 C  
HETATM   24  C   UNL     2      -5.847   3.178  65.906  1.00  0.00    -0.019 C  
HETATM   25  O   UNL     2      -5.831   4.604  65.994  1.00  0.00    -0.021 OA 
ENDBRANCH  10  21
TORSDOF 1
ENDMDL
MODEL      123
REMARK 921   NORMALIZED FREE ENERGY PREDICTED BY IDOCK:   -3.13 KCAL/MOL
REMARK 922        TOTAL FREE ENERGY PREDICTED BY IDOCK:   -3.65 KCAL/MOL
REMARK 923 INTER-LIGAND FREE ENERGY PREDICTED BY IDOCK:   -4.17 KCAL/MOL
REMARK 924 INTRA-LIGAND FREE ENERGY PREDICTED BY IDOCK:    0.51 KCAL/MOL
REMARK 927      BINDING AFFINITY PREDICTED BY RF-SCORE:    0.00 PKD
ROOT
HETATM    1  O   UNL     1     -11.033  14.725  69.396  1.00  0.00    -0.250 OA 
HETATM    2  F   UNL     2     -11.829  11.475  70.688  1.00  0.00    -0.405 F  
HETATM    3  C   UNL     1     -10.350  14.099  68.592  1.00  0.00    -0.243 C  
HETATM    4  C   UNL     2     -10.982  10.763  69.924  1.00  0.00    -0.239 C  
HETATM    5  N   UNL     1      -9.157  13.531  68.960  1.00  0.00    -0.343 N  
HETATM    6  H   UNL     1      -8.845  13.645  69.924  1.00  0.00     0.000 HD 
HETATM    7  C   UNL     1      -8.364  12.821  68.104  1.00  0.00    -0.172 C  
HETATM    8  C   UNL     2      -9.834  10.280  70.392  1.00  0.00     0.316 C  
HETATM    9  C   UNL     1      -8.732  12.618  66.841  1.00  0.00    -0.175 C  
HETATM   10  N   UNL     2      -8.927   9.623  69.577  1.00  0.00    -0.179 N  
HETATM   11  O   UNL     2     -12.269  11.151  67.971  1.00  0.00    -0.584 OA 
HETATM   12  C   UNL     1     -10.014  13.174  66.372  1.00  0.00    -0.282 C  
HETATM   13  C   UNL     2      -9.188   9.414  68.226  1.00  0.00    -0.130 C  
HETATM   14  O   UNL     1     -10.409  12.959  65.232  1.00  0.00    -0.291 OA 
HETATM   15  N   UNL     1     -10.712  13.913  67.289  1.00  0.00    -0.282 N  
HETATM   16  H   UNL     1     -11.572  14.362  66.973  1.00  0.00     0.000 HD 
HETATM   17  O   UNL     2      -8.373   8.959  67.428  1.00  0.00    -0.108 OA 
HETATM   18  N   UNL     2     -10.432   9.815  67.793  1.00  0.00    -0.229 N  
HETATM   19  C   UNL     2     -11.314  10.594  68.499  1.00  0.00    -0.284 C  
HETATM   20  H   UNL     2     -10.724   9.507  66.865  1.00  0.00     0.000 HD 
ENDROOT
BRANCH  10  21
HETATM   21  C   UNL     2      -7.649   9.169  70.123  1.00  0.00    -0.093 C  
HETATM   22  C   UNL     2      -5.846   7.752  69.470  1.00  0.00    -0.023 C  
HETATM   23  C   UNL     2      -7.320   7.712  69.791  1.00  0.00    -0.081 C  
HETATM   24  C   UNL     2      -5.679   9.130  68.879  1.00  0.00    -0.040 C  
HETATM   25  O   UNL     2      -6.594   9.979  69.576  1.00  0.00    -0.046 OA 
ENDBRANCH  10  21
TORSDOF 1
ENDMDL
MODEL      124
REMARK 921   NORMALIZED FREE ENERGY PREDICTED BY IDOCK:   -3.11 KCAL/MOL
REMARK 922        TOTAL FREE ENERGY PREDICTED BY IDOCK:   -3.64 KCAL/MOL
REMARK 923 INTER-LIGAND FREE ENERGY PREDICTED BY IDOCK:   -3.29 KCAL/MOL
REMARK 924 INTRA-LIGAND FREE ENERGY PREDICTED BY IDOCK:   -0.35 KCAL/MOL
REMARK 927      BINDING AFFINITY PREDICTED BY RF-SCORE:    0.00 PKD
ROOT
HETATM    1  O   UNL     1     -11.196  11.396  68.261  1.00  0.00    -0.220 OA 
HETATM    2  F   UNL     2     -10.373   8.977  65.744  1.00  0.00    -0.295 F  
HETATM    3  C   UNL     1     -10.091  11.115  68.713  1.00  0.00    -0.201 C  
HETATM    4  C   UNL     2      -9.225   8.535  66.285  1.00  0.00    -0.207 C  
HETATM    5  N   UNL     1      -9.871   9.933  69.376  1.00  0.00    -0.203 N  
HETATM    6  H   UNL     1     -10.655   9.290  69.489  1.00  0.00     0.000 HD 
HETATM    7  C   UNL     1      -8.659   9.573  69.892  1.00  0.00    -0.204 C  
HETATM    8  C   UNL     2      -9.141   7.373  66.928  1.00  0.00    -0.141 C  
HETATM    9  C   UNL     1      -7.595  10.360  69.753  1.00  0.00    -0.141 C  
HETATM   10  N   UNL     2      -7.977   6.964  67.558  1.00  0.00    -0.111 N  
HETATM   11  O   UNL     2      -8.103  10.565  65.798  1.00  0.00    -0.150 OA 
HETATM   12  C   UNL     1      -7.742  11.638  69.031  1.00  0.00    -0.002 C  
HETATM   13  C   UNL     2      -6.825   7.745  67.526  1.00  0.00    -0.069 C  
HETATM   14  O   UNL     1      -6.771  12.360  68.837  1.00  0.00    -0.087 OA 
HETATM   15  N   UNL     1      -9.006  11.933  68.596  1.00  0.00    -0.358 N  
HETATM   16  H   UNL     1      -9.147  12.839  68.149  1.00  0.00     0.000 HD 
HETATM   17  O   UNL     2      -5.809   7.503  68.172  1.00  0.00    -0.029 OA 
HETATM   18  N   UNL     2      -6.900   8.883  66.755  1.00  0.00    -0.075 N  
HETATM   19  C   UNL     2      -8.048   9.419  66.228  1.00  0.00    -0.111 C  
HETATM   20  H   UNL     2      -6.026   9.371  66.558  1.00  0.00     0.000 HD 
ENDROOT
BRANCH  10  21
HETATM   21  C   UNL     2      -7.953   5.710  68.309  1.00  0.00    -0.100 C  
HETATM   22  C   UNL     2      -9.415   3.876  68.742  1.00  0.00    -0.224 C  
HETATM   23  C   UNL     2      -9.290   5.363  68.968  1.00  0.00    -0.163 C  
HETATM   24  C   UNL     2      -8.700   3.687  67.426  1.00  0.00    -0.115 C  
HETATM   25  O   UNL     2      -7.629   4.634  67.412  1.00  0.00    -0.083 OA 
ENDBRANCH  10  21
TORSDOF 1
ENDMDL
MODEL      125
REMARK 921   NORMALIZED FREE ENERGY PREDICTED BY IDOCK:   -3.09 KCAL/MOL
REMARK 922        TOTAL FREE ENERGY PREDICTED BY IDOCK:   -3.61 KCAL/MOL
REMARK 923 INTER-LIGAND FREE ENERGY PREDICTED BY IDOCK:   -3.46 KCAL/MOL
REMARK 924 INTRA-LIGAND FREE ENERGY PREDICTED BY IDOCK:   -0.15 KCAL/MOL
REMARK 927      BINDING AFFINITY PREDICTED BY RF-SCORE:    0.00 PKD
ROOT
HETATM    1  O   UNL     1      -8.513  14.137  68.501  1.00  0.00    -0.162 OA 
HETATM    2  F   UNL     2      -7.411  10.981  69.799  1.00  0.00    -0.137 F  
HETATM    3  C   UNL     1      -9.181  13.447  67.737  1.00  0.00    -0.211 C  
HETATM    4  C   UNL     2      -8.009  10.191  68.891  1.00  0.00    -0.110 C  
HETATM    5  N   UNL     1      -8.602  12.782  66.686  1.00  0.00    -0.420 N  
HETATM    6  H   UNL     1      -7.596  12.879  66.549  1.00  0.00     0.000 HD 
HETATM    7  C   UNL     1      -9.301  11.998  65.813  1.00  0.00    -0.125 C  
HETATM    8  C   UNL     2      -7.340   9.616  67.895  1.00  0.00    -0.082 C  
HETATM    9  C   UNL     1     -10.612  11.815  65.957  1.00  0.00    -0.302 C  
HETATM   10  N   UNL     2      -7.977   8.875  66.913  1.00  0.00    -0.101 N  
HETATM   11  O   UNL     2     -10.164  10.670  69.755  1.00  0.00    -0.183 OA 
HETATM   12  C   UNL     1     -11.306  12.475  67.078  1.00  0.00    -0.328 C  
HETATM   13  C   UNL     2      -9.355   8.676  66.937  1.00  0.00    -0.170 C  
HETATM   14  O   UNL     1     -12.501  12.283  67.273  1.00  0.00    -0.152 OA 
HETATM   15  N   UNL     1     -10.529  13.280  67.867  1.00  0.00    -0.235 N  
HETATM   16  H   UNL     1     -10.996  13.798  68.612  1.00  0.00     0.000 HD 
HETATM   17  O   UNL     2      -9.991   8.145  66.031  1.00  0.00    -0.058 OA 
HETATM   18  N   UNL     2     -10.008   9.179  68.040  1.00  0.00    -0.169 N  
HETATM   19  C   UNL     2      -9.472  10.037  68.966  1.00  0.00    -0.187 C  
HETATM   20  H   UNL     2     -10.976   8.887  68.181  1.00  0.00     0.000 HD 
ENDROOT
BRANCH  10  21
HETATM   21  C   UNL     2      -7.207   8.318  65.802  1.00  0.00    -0.072 C  
HETATM   22  C   UNL     2      -6.014   9.117  63.898  1.00  0.00    -0.079 C  
HETATM   23  C   UNL     2      -7.405   9.066  64.482  1.00  0.00    -0.099 C  
HETATM   24  C   UNL     2      -5.146   9.174  65.131  1.00  0.00    -0.037 C  
HETATM   25  O   UNL     2      -5.807   8.386  66.124  1.00  0.00    -0.042 OA 
ENDBRANCH  10  21
TORSDOF 1
ENDMDL
MODEL      126
REMARK 921   NORMALIZED FREE ENERGY PREDICTED BY IDOCK:   -3.07 KCAL/MOL
REMARK 922        TOTAL FREE ENERGY PREDICTED BY IDOCK:   -3.59 KCAL/MOL
REMARK 923 INTER-LIGAND FREE ENERGY PREDICTED BY IDOCK:   -3.28 KCAL/MOL
REMARK 924 INTRA-LIGAND FREE ENERGY PREDICTED BY IDOCK:   -0.31 KCAL/MOL
REMARK 927      BINDING AFFINITY PREDICTED BY RF-SCORE:    0.00 PKD
ROOT
HETATM    1  O   UNL     1     -12.019  10.027  69.973  1.00  0.00    -0.186 OA 
HETATM    2  F   UNL     2     -11.628   6.630  68.891  1.00  0.00    -0.268 F  
HETATM    3  C   UNL     1     -10.799  10.073  69.852  1.00  0.00    -0.285 C  
HETATM    4  C   UNL     2     -10.284   6.594  68.885  1.00  0.00    -0.177 C  
HETATM    5  N   UNL     1      -9.968   9.474  70.764  1.00  0.00    -0.283 N  
HETATM    6  H   UNL     1     -10.390   8.989  71.556  1.00  0.00     0.000 HD 
HETATM    7  C   UNL     1      -8.606   9.493  70.670  1.00  0.00    -0.124 C  
HETATM    8  C   UNL     2      -9.583   5.997  69.846  1.00  0.00    -0.158 C  
HETATM    9  C   UNL     1      -7.999  10.089  69.645  1.00  0.00    -0.176 C  
HETATM   10  N   UNL     2      -8.199   6.039  69.880  1.00  0.00    -0.117 N  
HETATM   11  O   UNL     2     -10.159   8.023  66.999  1.00  0.00    -0.222 OA 
HETATM   12  C   UNL     1      -8.823  10.736  68.607  1.00  0.00    -0.152 C  
HETATM   13  C   UNL     2      -7.471   6.693  68.889  1.00  0.00    -0.096 C  
HETATM   14  O   UNL     1      -8.299  11.245  67.623  1.00  0.00    -0.119 OA 
HETATM   15  N   UNL     1     -10.175  10.708  68.817  1.00  0.00    -0.181 N  
HETATM   16  H   UNL     1     -10.764  11.202  68.146  1.00  0.00     0.000 HD 
HETATM   17  O   UNL     2      -6.258   6.878  68.933  1.00  0.00    -0.025 OA 
HETATM   18  N   UNL     2      -8.211   7.198  67.844  1.00  0.00    -0.118 N  
HETATM   19  C   UNL     2      -9.577   7.319  67.816  1.00  0.00    -0.138 C  
HETATM   20  H   UNL     2      -7.699   7.509  67.019  1.00  0.00     0.000 HD 
ENDROOT
BRANCH  10  21
HETATM   21  C   UNL     2      -7.476   5.426  70.993  1.00  0.00    -0.088 C  
HETATM   22  C   UNL     2      -7.624   5.342  73.371  1.00  0.00    -0.096 C  
HETATM   23  C   UNL     2      -7.396   6.312  72.238  1.00  0.00    -0.092 C  
HETATM   24  C   UNL     2      -8.543   4.321  72.746  1.00  0.00    -0.101 C  
HETATM   25  O   UNL     2      -8.149   4.214  71.375  1.00  0.00    -0.074 OA 
ENDBRANCH  10  21
TORSDOF 1
ENDMDL
MODEL      127
REMARK 921   NORMALIZED FREE ENERGY PREDICTED BY IDOCK:   -3.05 KCAL/MOL
REMARK 922        TOTAL FREE ENERGY PREDICTED BY IDOCK:   -3.57 KCAL/MOL
REMARK 923 INTER-LIGAND FREE ENERGY PREDICTED BY IDOCK:   -3.24 KCAL/MOL
REMARK 924 INTRA-LIGAND FREE ENERGY PREDICTED BY IDOCK:   -0.33 KCAL/MOL
REMARK 927      BINDING AFFINITY PREDICTED BY RF-SCORE:    0.00 PKD
ROOT
HETATM    1  O   UNL     1      -9.295   4.898  62.546  1.00  0.00    -0.094 OA 
HETATM    2  F   UNL     2     -11.311   4.583  65.495  1.00  0.00    -0.272 F  
HETATM    3  C   UNL     1      -8.377   5.058  63.343  1.00  0.00    -0.119 C  
HETATM    4  C   UNL     2     -10.365   4.897  66.397  1.00  0.00    -0.288 C  
HETATM    5  N   UNL     1      -8.229   6.233  64.035  1.00  0.00    -0.293 N  
HETATM    6  H   UNL     1      -8.903   6.980  63.867  1.00  0.00     0.000 HD 
HETATM    7  C   UNL     1      -7.228   6.456  64.937  1.00  0.00    -0.067 C  
HETATM    8  C   UNL     2     -10.312   6.088  66.988  1.00  0.00    -0.240 C  
HETATM    9  C   UNL     1      -6.335   5.509  65.216  1.00  0.00    -0.038 C  
HETATM   10  N   UNL     2      -9.284   6.435  67.850  1.00  0.00    -0.115 N  
HETATM   11  O   UNL     2      -9.208   2.861  66.033  1.00  0.00    -0.146 OA 
HETATM   12  C   UNL     1      -6.439   4.207  64.533  1.00  0.00    -0.042 C  
HETATM   13  C   UNL     2      -8.265   5.538  68.158  1.00  0.00    -0.096 C  
HETATM   14  O   UNL     1      -5.667   3.294  64.807  1.00  0.00    -0.013 OA 
HETATM   15  N   UNL     1      -7.444   4.098  63.610  1.00  0.00    -0.054 N  
HETATM   16  H   UNL     1      -7.500   3.229  63.078  1.00  0.00     0.000 HD 
HETATM   17  O   UNL     2      -7.263   5.828  68.806  1.00  0.00    -0.077 OA 
HETATM   18  N   UNL     2      -8.407   4.274  67.631  1.00  0.00    -0.098 N  
HETATM   19  C   UNL     2      -9.309   3.906  66.664  1.00  0.00    -0.186 C  
HETATM   20  H   UNL     2      -7.787   3.548  67.989  1.00  0.00     0.000 HD 
ENDROOT
BRANCH  10  21
HETATM   21  C   UNL     2      -9.233   7.779  68.423  1.00  0.00    -0.137 C  
HETATM   22  C   UNL     2     -10.699   9.636  68.720  1.00  0.00    -0.234 C  
HETATM   23  C   UNL     2     -10.043   8.813  67.638  1.00  0.00    -0.273 C  
HETATM   24  C   UNL     2     -10.890   8.626  69.825  1.00  0.00    -0.183 C  
HETATM   25  O   UNL     2      -9.771   7.739  69.756  1.00  0.00    -0.174 OA 
ENDBRANCH  10  21
TORSDOF 1
ENDMDL
MODEL      128
REMARK 921   NORMALIZED FREE ENERGY PREDICTED BY IDOCK:   -2.99 KCAL/MOL
REMARK 922        TOTAL FREE ENERGY PREDICTED BY IDOCK:   -3.51 KCAL/MOL
REMARK 923 INTER-LIGAND FREE ENERGY PREDICTED BY IDOCK:   -4.20 KCAL/MOL
REMARK 924 INTRA-LIGAND FREE ENERGY PREDICTED BY IDOCK:    0.69 KCAL/MOL
REMARK 927      BINDING AFFINITY PREDICTED BY RF-SCORE:    0.00 PKD
ROOT
HETATM    1  O   UNL     1      -9.588  16.409  65.457  1.00  0.00    -0.491 OA 
HETATM    2  F   UNL     2      -7.295  14.997  67.826  1.00  0.00    -0.112 F  
HETATM    3  C   UNL     1     -10.191  15.351  65.601  1.00  0.00    -0.376 C  
HETATM    4  C   UNL     2      -7.842  13.772  67.901  1.00  0.00    -0.159 C  
HETATM    5  N   UNL     1      -9.732  14.186  65.041  1.00  0.00    -0.517 N  
HETATM    6  H   UNL     1      -8.872  14.220  64.493  1.00  0.00     0.000 HD 
HETATM    7  C   UNL     1     -10.364  12.983  65.177  1.00  0.00    -0.304 C  
HETATM    8  C   UNL     2      -7.312  12.715  67.291  1.00  0.00    -0.104 C  
HETATM    9  C   UNL     1     -11.476  12.873  65.901  1.00  0.00    -0.387 C  
HETATM   10  N   UNL     2      -7.929  11.475  67.301  1.00  0.00    -0.145 N  
HETATM   11  O   UNL     2      -9.741  14.589  69.061  1.00  0.00    -0.200 OA 
HETATM   12  C   UNL     1     -12.022  14.075  66.558  1.00  0.00    -0.444 C  
HETATM   13  C   UNL     2      -9.129  11.270  67.976  1.00  0.00    -0.156 C  
HETATM   14  O   UNL     1     -13.012  13.999  67.277  1.00  0.00     0.564 OA 
HETATM   15  N   UNL     1     -11.346  15.242  66.320  1.00  0.00    -0.226 N  
HETATM   16  H   UNL     1     -11.738  16.099  66.711  1.00  0.00     0.000 HD 
HETATM   17  O   UNL     2      -9.788  10.235  67.913  1.00  0.00    -0.154 OA 
HETATM   18  N   UNL     2      -9.594  12.345  68.700  1.00  0.00    -0.394 N  
HETATM   19  C   UNL     2      -9.120  13.629  68.620  1.00  0.00    -0.035 C  
HETATM   20  H   UNL     2     -10.360  12.171  69.352  1.00  0.00     0.000 HD 
ENDROOT
BRANCH  10  21
HETATM   21  C   UNL     2      -7.342  10.360  66.559  1.00  0.00    -0.119 C  
HETATM   22  C   UNL     2      -7.292   7.980  66.682  1.00  0.00    -0.088 C  
HETATM   23  C   UNL     2      -6.870   9.209  67.449  1.00  0.00    -0.077 C  
HETATM   24  C   UNL     2      -8.542   8.449  65.979  1.00  0.00    -0.146 C  
HETATM   25  O   UNL     2      -8.330   9.826  65.661  1.00  0.00    -0.127 OA 
ENDBRANCH  10  21
TORSDOF 1
ENDMDL
MODEL      129
REMARK 921   NORMALIZED FREE ENERGY PREDICTED BY IDOCK:   -2.98 KCAL/MOL
REMARK 922        TOTAL FREE ENERGY PREDICTED BY IDOCK:   -3.50 KCAL/MOL
REMARK 923 INTER-LIGAND FREE ENERGY PREDICTED BY IDOCK:   -3.15 KCAL/MOL
REMARK 924 INTRA-LIGAND FREE ENERGY PREDICTED BY IDOCK:   -0.35 KCAL/MOL
REMARK 927      BINDING AFFINITY PREDICTED BY RF-SCORE:    0.00 PKD
ROOT
HETATM    1  O   UNL     1     -10.035   9.383  70.671  1.00  0.00    -0.248 OA 
HETATM    2  F   UNL     2     -11.252   8.745  67.358  1.00  0.00    -0.173 F  
HETATM    3  C   UNL     1      -8.931   9.325  70.141  1.00  0.00    -0.214 C  
HETATM    4  C   UNL     2     -10.065   8.529  66.767  1.00  0.00    -0.299 C  
HETATM    5  N   UNL     1      -8.386   8.126  69.757  1.00  0.00    -0.122 N  
HETATM    6  H   UNL     1      -8.922   7.275  69.929  1.00  0.00     0.000 HD 
HETATM    7  C   UNL     1      -7.164   8.010  69.158  1.00  0.00    -0.077 C  
HETATM    8  C   UNL     2      -9.632   7.308  66.462  1.00  0.00    -0.149 C  
HETATM    9  C   UNL     1      -6.431   9.088  68.887  1.00  0.00    -0.048 C  
HETATM   10  N   UNL     2      -8.371   7.086  65.933  1.00  0.00    -0.135 N  
HETATM   11  O   UNL     2      -9.457  10.813  66.937  1.00  0.00    -0.165 OA 
HETATM   12  C   UNL     1      -6.957  10.418  69.244  1.00  0.00    -0.080 C  
HETATM   13  C   UNL     2      -7.501   8.141  65.670  1.00  0.00    -0.081 C  
HETATM   14  O   UNL     1      -6.333  11.434  68.959  1.00  0.00    -0.053 OA 
HETATM   15  N   UNL     1      -8.166  10.426  69.887  1.00  0.00    -0.365 N  
HETATM   16  H   UNL     1      -8.524  11.329  70.201  1.00  0.00     0.000 HD 
HETATM   17  O   UNL     2      -6.330   8.002  65.328  1.00  0.00    -0.045 OA 
HETATM   18  N   UNL     2      -8.016   9.401  65.880  1.00  0.00    -0.105 N  
HETATM   19  C   UNL     2      -9.189   9.689  66.531  1.00  0.00    -0.158 C  
HETATM   20  H   UNL     2      -7.478  10.189  65.520  1.00  0.00     0.000 HD 
ENDROOT
BRANCH  10  21
HETATM   21  C   UNL     2      -7.915   5.721  65.677  1.00  0.00    -0.116 C  
HETATM   22  C   UNL     2      -8.733   3.498  65.955  1.00  0.00    -0.122 C  
HETATM   23  C   UNL     2      -8.342   4.719  66.752  1.00  0.00    -0.106 C  
HETATM   24  C   UNL     2      -9.256   4.101  64.673  1.00  0.00    -0.151 C  
HETATM   25  O   UNL     2      -8.469   5.269  64.430  1.00  0.00    -0.139 OA 
ENDBRANCH  10  21
TORSDOF 1
ENDMDL
MODEL      130
REMARK 921   NORMALIZED FREE ENERGY PREDICTED BY IDOCK:   -2.92 KCAL/MOL
REMARK 922        TOTAL FREE ENERGY PREDICTED BY IDOCK:   -3.43 KCAL/MOL
REMARK 923 INTER-LIGAND FREE ENERGY PREDICTED BY IDOCK:   -3.11 KCAL/MOL
REMARK 924 INTRA-LIGAND FREE ENERGY PREDICTED BY IDOCK:   -0.32 KCAL/MOL
REMARK 927      BINDING AFFINITY PREDICTED BY RF-SCORE:    0.00 PKD
ROOT
HETATM    1  O   UNL     1      -9.395   4.712  65.703  1.00  0.00    -0.145 OA 
HETATM    2  F   UNL     2     -11.712   6.177  68.017  1.00  0.00    -0.175 F  
HETATM    3  C   UNL     1      -8.545   5.181  66.453  1.00  0.00    -0.112 C  
HETATM    4  C   UNL     2     -10.818   6.829  68.781  1.00  0.00    -0.231 C  
HETATM    5  N   UNL     1      -8.271   6.525  66.469  1.00  0.00    -0.111 N  
HETATM    6  H   UNL     1      -8.791   7.132  65.835  1.00  0.00     0.000 HD 
HETATM    7  C   UNL     1      -7.339   7.095  67.288  1.00  0.00    -0.091 C  
HETATM    8  C   UNL     2     -10.625   8.143  68.688  1.00  0.00    -0.109 C  
HETATM    9  C   UNL     1      -6.647   6.357  68.154  1.00  0.00    -0.066 C  
HETATM   10  N   UNL     2      -9.642   8.793  69.416  1.00  0.00    -0.161 N  
HETATM   11  O   UNL     2      -9.987   4.808  69.698  1.00  0.00    -0.210 OA 
HETATM   12  C   UNL     1      -6.900   4.906  68.217  1.00  0.00    -0.056 C  
HETATM   13  C   UNL     2      -8.822   8.102  70.302  1.00  0.00    -0.141 C  
HETATM   14  O   UNL     1      -6.322   4.206  69.040  1.00  0.00    -0.030 OA 
HETATM   15  N   UNL     1      -7.816   4.422  67.321  1.00  0.00    -0.096 N  
HETATM   16  H   UNL     1      -7.964   3.413  67.301  1.00  0.00     0.000 HD 
HETATM   17  O   UNL     2      -7.852   8.595  70.873  1.00  0.00    -0.093 OA 
HETATM   18  N   UNL     2      -9.120   6.768  70.471  1.00  0.00    -0.155 N  
HETATM   19  C   UNL     2      -9.973   6.034  69.687  1.00  0.00    -0.170 C  
HETATM   20  H   UNL     2      -8.667   6.284  71.246  1.00  0.00     0.000 HD 
ENDROOT
BRANCH  10  21
HETATM   21  C   UNL     2      -9.423  10.227  69.229  1.00  0.00    -0.215 C  
HETATM   22  C   UNL     2      -9.537  11.822  67.460  1.00  0.00    -0.179 C  
HETATM   23  C   UNL     2      -8.787  10.582  67.884  1.00  0.00    -0.133 C  
HETATM   24  C   UNL     2     -10.903  11.596  68.061  1.00  0.00    -0.215 C  
HETATM   25  O   UNL     2     -10.690  10.905  69.293  1.00  0.00    -0.214 OA 
ENDBRANCH  10  21
TORSDOF 1
ENDMDL
MODEL      131
REMARK 921   NORMALIZED FREE ENERGY PREDICTED BY IDOCK:   -2.88 KCAL/MOL
REMARK 922        TOTAL FREE ENERGY PREDICTED BY IDOCK:   -3.39 KCAL/MOL
REMARK 923 INTER-LIGAND FREE ENERGY PREDICTED BY IDOCK:   -3.98 KCAL/MOL
REMARK 924 INTRA-LIGAND FREE ENERGY PREDICTED BY IDOCK:    0.60 KCAL/MOL
REMARK 927      BINDING AFFINITY PREDICTED BY RF-SCORE:    0.00 PKD
ROOT
HETATM    1  O   UNL     1     -10.986  10.893  69.063  1.00  0.00    -0.201 OA 
HETATM    2  F   UNL     2     -11.012   8.071  66.849  1.00  0.00    -0.387 F  
HETATM    3  C   UNL     1     -10.073  10.290  69.617  1.00  0.00    -0.224 C  
HETATM    4  C   UNL     2     -10.119   7.313  67.510  1.00  0.00    -0.193 C  
HETATM    5  N   UNL     1     -10.316   9.191  70.401  1.00  0.00    -0.207 N  
HETATM    6  H   UNL     1     -11.282   8.886  70.518  1.00  0.00     0.000 HD 
HETATM    7  C   UNL     1      -9.333   8.484  71.033  1.00  0.00    -0.185 C  
HETATM    8  C   UNL     2     -10.482   6.278  68.263  1.00  0.00    -0.228 C  
HETATM    9  C   UNL     1      -8.053   8.820  70.896  1.00  0.00    -0.174 C  
HETATM   10  N   UNL     2      -9.565   5.557  69.010  1.00  0.00    -0.128 N  
HETATM   11  O   UNL     2      -8.325   8.743  66.914  1.00  0.00    -0.107 OA 
HETATM   12  C   UNL     1      -7.705   9.975  70.049  1.00  0.00    -0.169 C  
HETATM   13  C   UNL     2      -8.208   5.868  68.986  1.00  0.00    -0.103 C  
HETATM   14  O   UNL     1      -6.533  10.278  69.857  1.00  0.00    -0.067 OA 
HETATM   15  N   UNL     1      -8.762  10.650  69.500  1.00  0.00    -0.388 N  
HETATM   16  H   UNL     1      -8.552  11.491  68.960  1.00  0.00     0.000 HD 
HETATM   17  O   UNL     2      -7.369   5.355  69.722  1.00  0.00    -0.062 OA 
HETATM   18  N   UNL     2      -7.843   6.863  68.108  1.00  0.00    -0.112 N  
HETATM   19  C   UNL     2      -8.702   7.709  67.453  1.00  0.00    -0.124 C  
HETATM   20  H   UNL     2      -6.845   6.982  67.928  1.00  0.00     0.000 HD 
ENDROOT
BRANCH  10  21
HETATM   21  C   UNL     2     -10.021   4.470  69.876  1.00  0.00    -0.203 C  
HETATM   22  C   UNL     2      -9.186   3.199  71.712  1.00  0.00    -0.180 C  
HETATM   23  C   UNL     2      -8.916   3.481  70.254  1.00  0.00    -0.173 C  
HETATM   24  C   UNL     2      -9.774   4.504  72.193  1.00  0.00    -0.163 C  
HETATM   25  O   UNL     2     -10.529   5.030  71.099  1.00  0.00    -0.205 OA 
ENDBRANCH  10  21
TORSDOF 1
ENDMDL
MODEL      132
REMARK 921   NORMALIZED FREE ENERGY PREDICTED BY IDOCK:   -2.85 KCAL/MOL
REMARK 922        TOTAL FREE ENERGY PREDICTED BY IDOCK:   -3.36 KCAL/MOL
REMARK 923 INTER-LIGAND FREE ENERGY PREDICTED BY IDOCK:   -3.01 KCAL/MOL
REMARK 924 INTRA-LIGAND FREE ENERGY PREDICTED BY IDOCK:   -0.35 KCAL/MOL
REMARK 927      BINDING AFFINITY PREDICTED BY RF-SCORE:    0.00 PKD
ROOT
HETATM    1  O   UNL     1      -6.130   7.523  73.012  1.00  0.00    -0.054 OA 
HETATM    2  F   UNL     2      -6.042   8.255  69.502  1.00  0.00    -0.034 F  
HETATM    3  C   UNL     1      -7.148   6.902  72.728  1.00  0.00    -0.074 C  
HETATM    4  C   UNL     2      -7.227   7.711  69.173  1.00  0.00    -0.080 C  
HETATM    5  N   UNL     1      -8.324   7.550  72.443  1.00  0.00    -0.104 N  
HETATM    6  H   UNL     1      -8.333   8.569  72.477  1.00  0.00     0.000 HD 
HETATM    7  C   UNL     1      -9.481   6.903  72.117  1.00  0.00    -0.138 C  
HETATM    8  C   UNL     2      -8.310   8.449  68.940  1.00  0.00    -0.119 C  
HETATM    9  C   UNL     1      -9.522   5.575  72.033  1.00  0.00    -0.171 C  
HETATM   10  N   UNL     2      -9.547   7.879  68.688  1.00  0.00    -0.153 N  
HETATM   11  O   UNL     2      -6.420   5.510  69.521  1.00  0.00    -0.038 OA 
HETATM   12  C   UNL     1      -8.294   4.805  72.300  1.00  0.00    -0.116 C  
HETATM   13  C   UNL     2      -9.710   6.497  68.641  1.00  0.00    -0.127 C  
HETATM   14  O   UNL     1      -8.283   3.585  72.177  1.00  0.00    -0.070 OA 
HETATM   15  N   UNL     1      -7.199   5.539  72.669  1.00  0.00    -0.088 N  
HETATM   16  H   UNL     1      -6.353   5.027  72.919  1.00  0.00     0.000 HD 
HETATM   17  O   UNL     2     -10.797   5.933  68.554  1.00  0.00    -0.267 OA 
HETATM   18  N   UNL     2      -8.555   5.758  68.765  1.00  0.00    -0.109 N  
HETATM   19  C   UNL     2      -7.333   6.243  69.157  1.00  0.00    -0.089 C  
HETATM   20  H   UNL     2      -8.613   4.764  68.546  1.00  0.00     0.000 HD 
ENDROOT
BRANCH  10  21
HETATM   21  C   UNL     2     -10.721   8.731  68.505  1.00  0.00    -0.060 C  
HETATM   22  C   UNL     2     -11.268  11.047  68.644  1.00  0.00    -0.322 C  
HETATM   23  C   UNL     2     -10.797   9.894  69.496  1.00  0.00    -0.274 C  
HETATM   24  C   UNL     2     -10.669  10.723  67.297  1.00  0.00    -0.274 C  
HETATM   25  O   UNL     2     -10.685   9.298  67.184  1.00  0.00    -0.251 OA 
ENDBRANCH  10  21
TORSDOF 1
ENDMDL
MODEL      133
REMARK 921   NORMALIZED FREE ENERGY PREDICTED BY IDOCK:   -2.83 KCAL/MOL
REMARK 922        TOTAL FREE ENERGY PREDICTED BY IDOCK:   -3.34 KCAL/MOL
REMARK 923 INTER-LIGAND FREE ENERGY PREDICTED BY IDOCK:   -3.86 KCAL/MOL
REMARK 924 INTRA-LIGAND FREE ENERGY PREDICTED BY IDOCK:    0.51 KCAL/MOL
REMARK 927      BINDING AFFINITY PREDICTED BY RF-SCORE:    0.00 PKD
ROOT
HETATM    1  O   UNL     1      -8.979   5.292  65.544  1.00  0.00    -0.157 OA 
HETATM    2  F   UNL     2     -10.167   5.251  68.928  1.00  0.00    -0.219 F  
HETATM    3  C   UNL     1      -8.609   6.428  65.821  1.00  0.00    -0.148 C  
HETATM    4  C   UNL     2      -9.909   6.536  69.227  1.00  0.00    -0.148 C  
HETATM    5  N   UNL     1      -9.501   7.464  65.926  1.00  0.00    -0.403 N  
HETATM    6  H   UNL     1     -10.489   7.269  65.762  1.00  0.00     0.000 HD 
HETATM    7  C   UNL     1      -9.139   8.743  66.237  1.00  0.00    -0.193 C  
HETATM    8  C   UNL     2     -10.864   7.461  69.276  1.00  0.00    -0.137 C  
HETATM    9  C   UNL     1      -7.868   9.052  66.486  1.00  0.00    -0.100 C  
HETATM   10  N   UNL     2     -10.580   8.799  69.498  1.00  0.00    -0.227 N  
HETATM   11  O   UNL     2      -7.568   6.166  69.227  1.00  0.00    -0.093 OA 
HETATM   12  C   UNL     1      -6.848   7.989  66.419  1.00  0.00    -0.062 C  
HETATM   13  C   UNL     2      -9.275   9.236  69.707  1.00  0.00    -0.181 C  
HETATM   14  O   UNL     1      -5.679   8.228  66.696  1.00  0.00    -0.038 OA 
HETATM   15  N   UNL     1      -7.303   6.752  66.049  1.00  0.00    -0.074 N  
HETATM   16  H   UNL     1      -6.609   6.013  65.934  1.00  0.00     0.000 HD 
HETATM   17  O   UNL     2      -8.946  10.417  69.777  1.00  0.00    -0.118 OA 
HETATM   18  N   UNL     2      -8.321   8.246  69.772  1.00  0.00    -0.121 N  
HETATM   19  C   UNL     2      -8.505   6.932  69.421  1.00  0.00    -0.133 C  
HETATM   20  H   UNL     2      -7.396   8.512  70.110  1.00  0.00     0.000 HD 
ENDROOT
BRANCH  10  21
HETATM   21  C   UNL     2     -11.657   9.788  69.476  1.00  0.00     0.070 C  
HETATM   22  C   UNL     2     -11.979  12.070  70.088  1.00  0.00    -0.401 C  
HETATM   23  C   UNL     2     -11.659  10.722  70.687  1.00  0.00    -0.388 C  
HETATM   24  C   UNL     2     -11.360  11.970  68.715  1.00  0.00    -0.278 C  
HETATM   25  O   UNL     2     -11.511  10.609  68.305  1.00  0.00    -0.306 OA 
ENDBRANCH  10  21
TORSDOF 1
ENDMDL
MODEL      134
REMARK 921   NORMALIZED FREE ENERGY PREDICTED BY IDOCK:   -2.67 KCAL/MOL
REMARK 922        TOTAL FREE ENERGY PREDICTED BY IDOCK:   -3.17 KCAL/MOL
REMARK 923 INTER-LIGAND FREE ENERGY PREDICTED BY IDOCK:   -2.82 KCAL/MOL
REMARK 924 INTRA-LIGAND FREE ENERGY PREDICTED BY IDOCK:   -0.35 KCAL/MOL
REMARK 927      BINDING AFFINITY PREDICTED BY RF-SCORE:    0.00 PKD
ROOT
HETATM    1  O   UNL     1      -6.007   4.059  69.182  1.00  0.00    -0.021 OA 
HETATM    2  F   UNL     2      -9.004   4.477  67.257  1.00  0.00    -0.109 F  
HETATM    3  C   UNL     1      -6.582   4.772  69.997  1.00  0.00    -0.036 C  
HETATM    4  C   UNL     2      -9.608   5.376  68.053  1.00  0.00    -0.127 C  
HETATM    5  N   UNL     1      -6.720   6.121  69.793  1.00  0.00    -0.050 N  
HETATM    6  H   UNL     1      -6.327   6.523  68.943  1.00  0.00     0.000 HD 
HETATM    7  C   UNL     1      -7.356   6.955  70.668  1.00  0.00    -0.074 C  
HETATM    8  C   UNL     2      -9.658   6.672  67.757  1.00  0.00    -0.123 C  
HETATM    9  C   UNL     1      -7.911   6.483  71.783  1.00  0.00    -0.103 C  
HETATM   10  N   UNL     2     -10.205   7.604  68.624  1.00  0.00    -0.195 N  
HETATM   11  O   UNL     2      -9.997   3.759  69.742  1.00  0.00    -0.101 OA 
HETATM   12  C   UNL     1      -7.828   5.038  72.064  1.00  0.00    -0.110 C  
HETATM   13  C   UNL     2     -10.754   7.221  69.844  1.00  0.00    -0.242 C  
HETATM   14  O   UNL     1      -8.376   4.562  73.052  1.00  0.00    -0.098 OA 
HETATM   15  N   UNL     1      -7.127   4.294  71.154  1.00  0.00    -0.036 N  
HETATM   16  H   UNL     1      -7.002   3.301  71.356  1.00  0.00     0.000 HD 
HETATM   17  O   UNL     2     -11.132   8.007  70.708  1.00  0.00    -0.251 OA 
HETATM   18  N   UNL     2     -10.801   5.864  70.074  1.00  0.00    -0.332 N  
HETATM   19  C   UNL     2     -10.156   4.904  69.336  1.00  0.00    -0.200 C  
HETATM   20  H   UNL     2     -11.364   5.545  70.863  1.00  0.00     0.000 HD 
ENDROOT
BRANCH  10  21
HETATM   21  C   UNL     2     -10.175   9.026  68.283  1.00  0.00    -0.204 C  
HETATM   22  C   UNL     2      -9.209  10.427  66.613  1.00  0.00    -0.178 C  
HETATM   23  C   UNL     2      -8.825   9.500  67.740  1.00  0.00    -0.119 C  
HETATM   24  C   UNL     2     -10.497   9.819  66.115  1.00  0.00    -0.058 C  
HETATM   25  O   UNL     2     -11.157   9.282  67.264  1.00  0.00    -0.054 OA 
ENDBRANCH  10  21
TORSDOF 1
ENDMDL
MODEL      135
REMARK 921   NORMALIZED FREE ENERGY PREDICTED BY IDOCK:   -2.66 KCAL/MOL
REMARK 922        TOTAL FREE ENERGY PREDICTED BY IDOCK:   -3.16 KCAL/MOL
REMARK 923 INTER-LIGAND FREE ENERGY PREDICTED BY IDOCK:   -3.78 KCAL/MOL
REMARK 924 INTRA-LIGAND FREE ENERGY PREDICTED BY IDOCK:    0.63 KCAL/MOL
REMARK 927      BINDING AFFINITY PREDICTED BY RF-SCORE:    0.00 PKD
ROOT
HETATM    1  O   UNL     1      -8.851  10.690  69.425  1.00  0.00    -0.127 OA 
HETATM    2  F   UNL     2      -6.426   8.668  71.126  1.00  0.00    -0.037 F  
HETATM    3  C   UNL     1      -9.626   9.786  69.719  1.00  0.00    -0.230 C  
HETATM    4  C   UNL     2      -7.204   7.593  71.340  1.00  0.00    -0.066 C  
HETATM    5  N   UNL     1      -9.601   8.582  69.061  1.00  0.00    -0.165 N  
HETATM    6  H   UNL     1      -8.922   8.457  68.310  1.00  0.00     0.000 HD 
HETATM    7  C   UNL     1     -10.438   7.544  69.355  1.00  0.00    -0.222 C  
HETATM    8  C   UNL     2      -7.100   6.482  70.614  1.00  0.00    -0.069 C  
HETATM    9  C   UNL     1     -11.328   7.642  70.341  1.00  0.00    -0.235 C  
HETATM   10  N   UNL     2      -7.963   5.412  70.784  1.00  0.00    -0.097 N  
HETATM   11  O   UNL     2      -8.512   8.742  72.948  1.00  0.00    -0.409 OA 
HETATM   12  C   UNL     1     -11.402   8.894  71.115  1.00  0.00    -0.291 C  
HETATM   13  C   UNL     2      -8.970   5.439  71.745  1.00  0.00    -0.135 C  
HETATM   14  O   UNL     1     -12.170   8.998  72.064  1.00  0.00    -0.350 OA 
HETATM   15  N   UNL     1     -10.558   9.894  70.710  1.00  0.00    -0.344 N  
HETATM   16  H   UNL     1     -10.632  10.792  71.189  1.00  0.00     0.000 HD 
HETATM   17  O   UNL     2      -9.843   4.582  71.853  1.00  0.00    -0.166 OA 
HETATM   18  N   UNL     2      -8.980   6.546  72.563  1.00  0.00    -0.136 N  
HETATM   19  C   UNL     2      -8.259   7.696  72.363  1.00  0.00    -0.112 C  
HETATM   20  H   UNL     2      -9.577   6.508  73.389  1.00  0.00     0.000 HD 
ENDROOT
BRANCH  10  21
HETATM   21  C   UNL     2      -7.852   4.240  69.916  1.00  0.00    -0.052 C  
HETATM   22  C   UNL     2      -9.206   2.394  69.250  1.00  0.00    -0.193 C  
HETATM   23  C   UNL     2      -8.552   2.997  70.469  1.00  0.00    -0.111 C  
HETATM   24  C   UNL     2      -9.518   3.611  68.413  1.00  0.00    -0.150 C  
HETATM   25  O   UNL     2      -8.457   4.540  68.647  1.00  0.00    -0.084 OA 
ENDBRANCH  10  21
TORSDOF 1
ENDMDL
MODEL      136
REMARK 921   NORMALIZED FREE ENERGY PREDICTED BY IDOCK:   -2.64 KCAL/MOL
REMARK 922        TOTAL FREE ENERGY PREDICTED BY IDOCK:   -3.13 KCAL/MOL
REMARK 923 INTER-LIGAND FREE ENERGY PREDICTED BY IDOCK:   -2.82 KCAL/MOL
REMARK 924 INTRA-LIGAND FREE ENERGY PREDICTED BY IDOCK:   -0.31 KCAL/MOL
REMARK 927      BINDING AFFINITY PREDICTED BY RF-SCORE:    0.00 PKD
ROOT
HETATM    1  O   UNL     1      -7.926   6.067  64.088  1.00  0.00    -0.116 OA 
HETATM    2  F   UNL     2     -10.340   8.008  65.897  1.00  0.00    -0.003 F  
HETATM    3  C   UNL     1      -7.881   5.398  65.115  1.00  0.00    -0.095 C  
HETATM    4  C   UNL     2     -10.214   7.393  67.086  1.00  0.00    -0.277 C  
HETATM    5  N   UNL     1      -7.240   5.857  66.238  1.00  0.00    -0.078 N  
HETATM    6  H   UNL     1      -6.792   6.773  66.198  1.00  0.00     0.000 HD 
HETATM    7  C   UNL     1      -7.167   5.153  67.406  1.00  0.00    -0.074 C  
HETATM    8  C   UNL     2      -9.542   7.934  68.100  1.00  0.00    -0.152 C  
HETATM    9  C   UNL     1      -7.753   3.963  67.524  1.00  0.00    -0.075 C  
HETATM   10  N   UNL     2      -9.343   7.257  69.292  1.00  0.00    -0.154 N  
HETATM   11  O   UNL     2     -11.256   5.422  66.283  1.00  0.00    -0.043 OA 
HETATM   12  C   UNL     1      -8.485   3.410  66.371  1.00  0.00    -0.109 C  
HETATM   13  C   UNL     2      -9.860   5.980  69.494  1.00  0.00    -0.161 C  
HETATM   14  O   UNL     1      -9.083   2.344  66.463  1.00  0.00    -0.134 OA 
HETATM   15  N   UNL     1      -8.457   4.167  65.230  1.00  0.00    -0.112 N  
HETATM   16  H   UNL     1      -8.903   3.778  64.398  1.00  0.00     0.000 HD 
HETATM   17  O   UNL     2      -9.608   5.280  70.471  1.00  0.00    -0.158 OA 
HETATM   18  N   UNL     2     -10.652   5.493  68.478  1.00  0.00    -0.173 N  
HETATM   19  C   UNL     2     -10.773   6.039  67.226  1.00  0.00    -0.318 C  
HETATM   20  H   UNL     2     -11.195   4.652  68.675  1.00  0.00     0.000 HD 
ENDROOT
BRANCH  10  21
HETATM   21  C   UNL     2      -8.540   7.865  70.352  1.00  0.00    -0.132 C  
HETATM   22  C   UNL     2      -6.448   8.989  70.568  1.00  0.00    -0.051 C  
HETATM   23  C   UNL     2      -7.035   7.653  70.183  1.00  0.00    -0.051 C  
HETATM   24  C   UNL     2      -7.528   9.953  70.139  1.00  0.00    -0.170 C  
HETATM   25  O   UNL     2      -8.772   9.284  70.357  1.00  0.00    -0.189 OA 
ENDBRANCH  10  21
TORSDOF 1
ENDMDL
MODEL      137
REMARK 921   NORMALIZED FREE ENERGY PREDICTED BY IDOCK:   -2.62 KCAL/MOL
REMARK 922        TOTAL FREE ENERGY PREDICTED BY IDOCK:   -3.11 KCAL/MOL
REMARK 923 INTER-LIGAND FREE ENERGY PREDICTED BY IDOCK:   -2.76 KCAL/MOL
REMARK 924 INTRA-LIGAND FREE ENERGY PREDICTED BY IDOCK:   -0.35 KCAL/MOL
REMARK 927      BINDING AFFINITY PREDICTED BY RF-SCORE:    0.00 PKD
ROOT
HETATM    1  O   UNL     1     -12.252   7.394  69.974  1.00  0.00     0.226 OA 
HETATM    2  F   UNL     2     -12.224  10.383  67.992  1.00  0.00     0.114 F  
HETATM    3  C   UNL     1     -11.036   7.548  69.996  1.00  0.00    -0.240 C  
HETATM    4  C   UNL     2     -10.891  10.507  67.868  1.00  0.00    -0.282 C  
HETATM    5  N   UNL     1     -10.262   7.271  68.898  1.00  0.00    -0.188 N  
HETATM    6  H   UNL     1     -10.724   6.927  68.056  1.00  0.00     0.000 HD 
HETATM    7  C   UNL     1      -8.906   7.431  68.871  1.00  0.00    -0.131 C  
HETATM    8  C   UNL     2     -10.246  10.181  66.751  1.00  0.00    -0.228 C  
HETATM    9  C   UNL     1      -8.252   7.901  69.931  1.00  0.00    -0.120 C  
HETATM   10  N   UNL     2      -8.865  10.229  66.660  1.00  0.00    -0.136 N  
HETATM   11  O   UNL     2     -10.638  11.093  70.151  1.00  0.00     0.144 OA 
HETATM   12  C   UNL     1      -9.014   8.246  71.144  1.00  0.00    -0.158 C  
HETATM   13  C   UNL     2      -8.083  10.645  67.734  1.00  0.00    -0.111 C  
HETATM   14  O   UNL     1      -8.451   8.733  72.118  1.00  0.00    -0.351 OA 
HETATM   15  N   UNL     1     -10.360   8.002  71.091  1.00  0.00    -0.196 N  
HETATM   16  H   UNL     1     -10.902   8.174  71.939  1.00  0.00     0.000 HD 
HETATM   17  O   UNL     2      -6.857  10.583  67.760  1.00  0.00    -0.072 OA 
HETATM   18  N   UNL     2      -8.778  11.091  68.836  1.00  0.00    -0.285 N  
HETATM   19  C   UNL     2     -10.124  10.939  69.049  1.00  0.00    -0.196 C  
HETATM   20  H   UNL     2      -8.244  11.576  69.558  1.00  0.00     0.000 HD 
ENDROOT
BRANCH  10  21
HETATM   21  C   UNL     2      -8.198   9.797  65.432  1.00  0.00    -0.131 C  
HETATM   22  C   UNL     2      -8.782   8.743  63.375  1.00  0.00     0.021 C  
HETATM   23  C   UNL     2      -8.747   8.488  64.862  1.00  0.00    -0.090 C  
HETATM   24  C   UNL     2      -9.049  10.227  63.306  1.00  0.00    -0.265 C  
HETATM   25  O   UNL     2      -8.375  10.808  64.425  1.00  0.00    -0.088 OA 
ENDBRANCH  10  21
TORSDOF 1
ENDMDL
MODEL      138
REMARK 921   NORMALIZED FREE ENERGY PREDICTED BY IDOCK:   -2.60 KCAL/MOL
REMARK 922        TOTAL FREE ENERGY PREDICTED BY IDOCK:   -3.10 KCAL/MOL
REMARK 923 INTER-LIGAND FREE ENERGY PREDICTED BY IDOCK:   -2.76 KCAL/MOL
REMARK 924 INTRA-LIGAND FREE ENERGY PREDICTED BY IDOCK:   -0.34 KCAL/MOL
REMARK 927      BINDING AFFINITY PREDICTED BY RF-SCORE:    0.00 PKD
ROOT
HETATM    1  O   UNL     1     -10.184   4.537  70.931  1.00  0.00    -0.191 OA 
HETATM    2  F   UNL     2     -10.354   8.113  71.152  1.00  0.00    -0.203 F  
HETATM    3  C   UNL     1      -9.112   4.749  70.375  1.00  0.00    -0.119 C  
HETATM    4  C   UNL     2      -9.261   8.393  70.421  1.00  0.00    -0.153 C  
HETATM    5  N   UNL     1      -9.056   5.215  69.086  1.00  0.00    -0.099 N  
HETATM    6  H   UNL     1      -9.935   5.379  68.593  1.00  0.00     0.000 HD 
HETATM    7  C   UNL     1      -7.888   5.471  68.426  1.00  0.00    -0.088 C  
HETATM    8  C   UNL     2      -9.336   8.820  69.163  1.00  0.00    -0.149 C  
HETATM    9  C   UNL     1      -6.712   5.300  69.026  1.00  0.00    -0.053 C  
HETATM   10  N   UNL     2      -8.205   9.023  68.389  1.00  0.00    -0.115 N  
HETATM   11  O   UNL     2      -7.809   7.585  72.111  1.00  0.00    -0.089 OA 
HETATM   12  C   UNL     1      -6.686   4.825  70.421  1.00  0.00    -0.036 C  
HETATM   13  C   UNL     2      -6.929   8.811  68.902  1.00  0.00    -0.062 C  
HETATM   14  O   UNL     1      -5.623   4.709  71.022  1.00  0.00    -0.010 OA 
HETATM   15  N   UNL     1      -7.905   4.547  70.979  1.00  0.00    -0.071 N  
HETATM   16  H   UNL     1      -7.912   4.158  71.922  1.00  0.00     0.000 HD 
HETATM   17  O   UNL     2      -5.901   8.845  68.232  1.00  0.00    -0.041 OA 
HETATM   18  N   UNL     2      -6.874   8.486  70.239  1.00  0.00    -0.039 N  
HETATM   19  C   UNL     2      -7.943   8.131  71.022  1.00  0.00    -0.095 C  
HETATM   20  H   UNL     2      -5.957   8.512  70.687  1.00  0.00     0.000 HD 
ENDROOT
BRANCH  10  21
HETATM   21  C   UNL     2      -8.341   9.428  66.990  1.00  0.00    -0.127 C  
HETATM   22  C   UNL     2     -10.048  10.241  65.538  1.00  0.00    -0.351 C  
HETATM   23  C   UNL     2      -9.678   9.031  66.361  1.00  0.00    -0.337 C  
HETATM   24  C   UNL     2      -9.444  11.373  66.332  1.00  0.00    -0.204 C  
HETATM   25  O   UNL     2      -8.240  10.860  66.907  1.00  0.00    -0.126 OA 
ENDBRANCH  10  21
TORSDOF 1
ENDMDL
MODEL      139
REMARK 921   NORMALIZED FREE ENERGY PREDICTED BY IDOCK:   -2.58 KCAL/MOL
REMARK 922        TOTAL FREE ENERGY PREDICTED BY IDOCK:   -3.07 KCAL/MOL
REMARK 923 INTER-LIGAND FREE ENERGY PREDICTED BY IDOCK:   -2.74 KCAL/MOL
REMARK 924 INTRA-LIGAND FREE ENERGY PREDICTED BY IDOCK:   -0.34 KCAL/MOL
REMARK 927      BINDING AFFINITY PREDICTED BY RF-SCORE:    0.00 PKD
ROOT
HETATM    1  O   UNL     1      -6.023   8.257  68.336  1.00  0.00    -0.039 OA 
HETATM    2  F   UNL     2      -6.263   4.681  68.199  1.00  0.00    -0.030 F  
HETATM    3  C   UNL     1      -7.161   8.225  67.881  1.00  0.00    -0.095 C  
HETATM    4  C   UNL     2      -7.447   4.602  67.567  1.00  0.00    -0.078 C  
HETATM    5  N   UNL     1      -7.396   7.907  66.567  1.00  0.00    -0.086 N  
HETATM    6  H   UNL     1      -6.595   7.701  65.970  1.00  0.00     0.000 HD 
HETATM    7  C   UNL     1      -8.644   7.852  66.015  1.00  0.00    -0.150 C  
HETATM    8  C   UNL     2      -7.546   4.305  66.273  1.00  0.00    -0.089 C  
HETATM    9  C   UNL     1      -9.728   8.087  66.752  1.00  0.00    -0.305 C  
HETATM   10  N   UNL     2      -8.761   4.311  65.609  1.00  0.00    -0.118 N  
HETATM   11  O   UNL     2      -8.623   5.381  69.471  1.00  0.00    -0.101 OA 
HETATM   12  C   UNL     1      -9.563   8.411  68.180  1.00  0.00    -0.143 C  
HETATM   13  C   UNL     2      -9.947   4.607  66.275  1.00  0.00    -0.247 C  
HETATM   14  O   UNL     1     -10.542   8.578  68.900  1.00  0.00    -0.213 OA 
HETATM   15  N   UNL     1      -8.272   8.493  68.627  1.00  0.00    -0.121 N  
HETATM   16  H   UNL     1      -8.128   8.776  69.597  1.00  0.00     0.000 HD 
HETATM   17  O   UNL     2     -11.032   4.757  65.719  1.00  0.00    -0.255 OA 
HETATM   18  N   UNL     2      -9.835   4.792  67.635  1.00  0.00    -0.165 N  
HETATM   19  C   UNL     2      -8.661   4.942  68.328  1.00  0.00    -0.101 C  
HETATM   20  H   UNL     2     -10.701   4.819  68.174  1.00  0.00     0.000 HD 
ENDROOT
BRANCH  10  21
HETATM   21  C   UNL     2      -8.810   4.044  64.172  1.00  0.00    -0.127 C  
HETATM   22  C   UNL     2      -7.374   3.169  62.483  1.00  0.00    -0.048 C  
HETATM   23  C   UNL     2      -7.490   4.321  63.450  1.00  0.00    -0.054 C  
HETATM   24  C   UNL     2      -8.064   2.050  63.225  1.00  0.00    -0.072 C  
HETATM   25  O   UNL     2      -9.125   2.657  63.966  1.00  0.00    -0.102 OA 
ENDBRANCH  10  21
TORSDOF 1
ENDMDL
MODEL      140
REMARK 921   NORMALIZED FREE ENERGY PREDICTED BY IDOCK:   -2.57 KCAL/MOL
REMARK 922        TOTAL FREE ENERGY PREDICTED BY IDOCK:   -3.06 KCAL/MOL
REMARK 923 INTER-LIGAND FREE ENERGY PREDICTED BY IDOCK:   -2.78 KCAL/MOL
REMARK 924 INTRA-LIGAND FREE ENERGY PREDICTED BY IDOCK:   -0.27 KCAL/MOL
REMARK 927      BINDING AFFINITY PREDICTED BY RF-SCORE:    0.00 PKD
ROOT
HETATM    1  O   UNL     1     -11.503   4.328  64.821  1.00  0.00    -0.229 OA 
HETATM    2  F   UNL     2     -10.873   5.346  68.202  1.00  0.00    -0.238 F  
HETATM    3  C   UNL     1     -10.293   4.127  64.790  1.00  0.00    -0.188 C  
HETATM    4  C   UNL     2      -9.530   5.279  68.165  1.00  0.00    -0.123 C  
HETATM    5  N   UNL     1      -9.399   5.165  64.717  1.00  0.00    -0.360 N  
HETATM    6  H   UNL     1      -9.765   6.116  64.684  1.00  0.00     0.000 HD 
HETATM    7  C   UNL     1      -8.045   4.992  64.685  1.00  0.00    -0.118 C  
HETATM    8  C   UNL     2      -8.765   6.363  68.069  1.00  0.00    -0.115 C  
HETATM    9  C   UNL     1      -7.509   3.775  64.750  1.00  0.00    -0.073 C  
HETATM   10  N   UNL     2      -7.388   6.281  67.944  1.00  0.00    -0.086 N  
HETATM   11  O   UNL     2      -9.557   2.911  68.066  1.00  0.00    -0.195 OA 
HETATM   12  C   UNL     1      -8.401   2.607  64.856  1.00  0.00    -0.089 C  
HETATM   13  C   UNL     2      -6.734   5.052  67.937  1.00  0.00    -0.051 C  
HETATM   14  O   UNL     1      -7.941   1.477  64.974  1.00  0.00    -0.070 OA 
HETATM   15  N   UNL     1      -9.743   2.879  64.828  1.00  0.00    -0.305 N  
HETATM   16  H   UNL     1     -10.383   2.084  64.837  1.00  0.00     0.000 HD 
HETATM   17  O   UNL     2      -5.538   4.908  67.698  1.00  0.00    -0.015 OA 
HETATM   18  N   UNL     2      -7.534   3.953  68.159  1.00  0.00    -0.062 N  
HETATM   19  C   UNL     2      -8.906   3.946  68.146  1.00  0.00    -0.110 C  
HETATM   20  H   UNL     2      -7.065   3.067  68.348  1.00  0.00     0.000 HD 
ENDROOT
BRANCH  10  21
HETATM   21  C   UNL     2      -6.596   7.498  67.774  1.00  0.00    -0.061 C  
HETATM   22  C   UNL     2      -6.544   9.390  66.324  1.00  0.00    -0.070 C  
HETATM   23  C   UNL     2      -6.377   7.890  66.311  1.00  0.00    -0.046 C  
HETATM   24  C   UNL     2      -7.550   9.597  67.430  1.00  0.00    -0.095 C  
HETATM   25  O   UNL     2      -7.278   8.592  68.411  1.00  0.00    -0.082 OA 
ENDBRANCH  10  21
TORSDOF 1
ENDMDL
MODEL      141
REMARK 921   NORMALIZED FREE ENERGY PREDICTED BY IDOCK:   -2.56 KCAL/MOL
REMARK 922        TOTAL FREE ENERGY PREDICTED BY IDOCK:   -3.05 KCAL/MOL
REMARK 923 INTER-LIGAND FREE ENERGY PREDICTED BY IDOCK:   -2.71 KCAL/MOL
REMARK 924 INTRA-LIGAND FREE ENERGY PREDICTED BY IDOCK:   -0.33 KCAL/MOL
REMARK 927      BINDING AFFINITY PREDICTED BY RF-SCORE:    0.00 PKD
ROOT
HETATM    1  O   UNL     1     -10.069   4.030  66.796  1.00  0.00    -0.138 OA 
HETATM    2  F   UNL     2     -11.051   7.447  67.272  1.00  0.00    -0.346 F  
HETATM    3  C   UNL     1      -9.223   4.287  67.646  1.00  0.00    -0.149 C  
HETATM    4  C   UNL     2     -10.052   7.810  68.095  1.00  0.00    -0.185 C  
HETATM    5  N   UNL     1      -8.120   5.047  67.349  1.00  0.00    -0.103 N  
HETATM    6  H   UNL     1      -8.016   5.394  66.395  1.00  0.00     0.000 HD 
HETATM    7  C   UNL     1      -7.155   5.365  68.261  1.00  0.00    -0.066 C  
HETATM    8  C   UNL     2      -9.016   8.535  67.681  1.00  0.00    -0.135 C  
HETATM    9  C   UNL     1      -7.251   4.962  69.526  1.00  0.00    -0.056 C  
HETATM   10  N   UNL     2      -7.948   8.832  68.512  1.00  0.00    -0.110 N  
HETATM   11  O   UNL     2     -10.916   6.505  69.875  1.00  0.00    -0.272 OA 
HETATM   12  C   UNL     1      -8.419   4.161  69.934  1.00  0.00    -0.060 C  
HETATM   13  C   UNL     2      -7.922   8.403  69.836  1.00  0.00    -0.107 C  
HETATM   14  O   UNL     1      -8.567   3.821  71.102  1.00  0.00    -0.074 OA 
HETATM   15  N   UNL     1      -9.305   3.851  68.937  1.00  0.00    -0.154 N  
HETATM   16  H   UNL     1     -10.090   3.246  69.178  1.00  0.00     0.000 HD 
HETATM   17  O   UNL     2      -6.951   8.519  70.580  1.00  0.00    -0.036 OA 
HETATM   18  N   UNL     2      -9.057   7.760  70.275  1.00  0.00    -0.152 N  
HETATM   19  C   UNL     2     -10.080   7.309  69.479  1.00  0.00    -0.182 C  
HETATM   20  H   UNL     2      -9.145   7.605  71.279  1.00  0.00     0.000 HD 
ENDROOT
BRANCH  10  21
HETATM   21  C   UNL     2      -6.801   9.575  67.991  1.00  0.00    -0.074 C  
HETATM   22  C   UNL     2      -5.767   9.988  65.883  1.00  0.00    -0.068 C  
HETATM   23  C   UNL     2      -6.080   8.866  66.843  1.00  0.00    -0.058 C  
HETATM   24  C   UNL     2      -6.920  10.936  66.104  1.00  0.00    -0.099 C  
HETATM   25  O   UNL     2      -7.256  10.844  67.490  1.00  0.00    -0.090 OA 
ENDBRANCH  10  21
TORSDOF 1
ENDMDL
MODEL      142
REMARK 921   NORMALIZED FREE ENERGY PREDICTED BY IDOCK:   -2.55 KCAL/MOL
REMARK 922        TOTAL FREE ENERGY PREDICTED BY IDOCK:   -3.04 KCAL/MOL
REMARK 923 INTER-LIGAND FREE ENERGY PREDICTED BY IDOCK:   -2.70 KCAL/MOL
REMARK 924 INTRA-LIGAND FREE ENERGY PREDICTED BY IDOCK:   -0.34 KCAL/MOL
REMARK 927      BINDING AFFINITY PREDICTED BY RF-SCORE:    0.00 PKD
ROOT
HETATM    1  O   UNL     1     -10.760   9.379  70.017  1.00  0.00    -0.215 OA 
HETATM    2  F   UNL     2     -11.340   6.908  67.482  1.00  0.00    -0.329 F  
HETATM    3  C   UNL     1      -9.595   9.306  69.643  1.00  0.00    -0.183 C  
HETATM    4  C   UNL     2     -10.057   6.691  67.143  1.00  0.00    -0.174 C  
HETATM    5  N   UNL     1      -8.806   8.231  69.969  1.00  0.00    -0.133 N  
HETATM    6  H   UNL     1      -9.214   7.489  70.539  1.00  0.00     0.000 HD 
HETATM    7  C   UNL     1      -7.506   8.102  69.573  1.00  0.00    -0.087 C  
HETATM    8  C   UNL     2      -9.387   5.613  67.543  1.00  0.00    -0.109 C  
HETATM    9  C   UNL     1      -6.929   9.026  68.808  1.00  0.00    -0.062 C  
HETATM   10  N   UNL     2      -8.042   5.439  67.263  1.00  0.00    -0.101 N  
HETATM   11  O   UNL     2      -9.870   8.819  66.116  1.00  0.00    -0.267 OA 
HETATM   12  C   UNL     1      -7.716  10.201  68.392  1.00  0.00    -0.089 C  
HETATM   13  C   UNL     2      -7.330   6.379  66.523  1.00  0.00    -0.078 C  
HETATM   14  O   UNL     1      -7.234  11.043  67.643  1.00  0.00    -0.088 OA 
HETATM   15  N   UNL     1      -8.993  10.266  68.883  1.00  0.00    -0.154 N  
HETATM   16  H   UNL     1      -9.539  11.099  68.661  1.00  0.00     0.000 HD 
HETATM   17  O   UNL     2      -6.113   6.348  66.356  1.00  0.00    -0.031 OA 
HETATM   18  N   UNL     2      -8.072   7.424  66.019  1.00  0.00    -0.117 N  
HETATM   19  C   UNL     2      -9.360   7.734  66.372  1.00  0.00    -0.181 C  
HETATM   20  H   UNL     2      -7.623   8.019  65.322  1.00  0.00     0.000 HD 
ENDROOT
BRANCH  10  21
HETATM   21  C   UNL     2      -7.332   4.270  67.781  1.00  0.00    -0.068 C  
HETATM   22  C   UNL     2      -7.683   2.562  69.407  1.00  0.00    -0.046 C  
HETATM   23  C   UNL     2      -7.516   4.056  69.285  1.00  0.00    -0.054 C  
HETATM   24  C   UNL     2      -8.358   2.203  68.105  1.00  0.00    -0.060 C  
HETATM   25  O   UNL     2      -7.827   3.093  67.121  1.00  0.00    -0.077 OA 
ENDBRANCH  10  21
TORSDOF 1
ENDMDL
MODEL      143
REMARK 921   NORMALIZED FREE ENERGY PREDICTED BY IDOCK:   -2.54 KCAL/MOL
REMARK 922        TOTAL FREE ENERGY PREDICTED BY IDOCK:   -3.03 KCAL/MOL
REMARK 923 INTER-LIGAND FREE ENERGY PREDICTED BY IDOCK:   -3.93 KCAL/MOL
REMARK 924 INTRA-LIGAND FREE ENERGY PREDICTED BY IDOCK:    0.89 KCAL/MOL
REMARK 927      BINDING AFFINITY PREDICTED BY RF-SCORE:    0.00 PKD
ROOT
HETATM    1  O   UNL     1     -11.484  14.542  69.596  1.00  0.00    -0.262 OA 
HETATM    2  F   UNL     2     -12.399  11.537  67.864  1.00  0.00    -0.184 F  
HETATM    3  C   UNL     1     -10.518  14.533  68.839  1.00  0.00    -0.246 C  
HETATM    4  C   UNL     2     -11.286  11.410  67.120  1.00  0.00    -0.255 C  
HETATM    5  N   UNL     1      -9.479  13.656  69.019  1.00  0.00    -0.391 N  
HETATM    6  H   UNL     1      -9.524  13.009  69.806  1.00  0.00     0.000 HD 
HETATM    7  C   UNL     1      -8.386  13.605  68.202  1.00  0.00    -0.166 C  
HETATM    8  C   UNL     2     -10.330  10.531  67.411  1.00  0.00    -0.224 C  
HETATM    9  C   UNL     1      -8.283  14.408  67.146  1.00  0.00    -0.202 C  
HETATM   10  N   UNL     2      -9.149  10.466  66.691  1.00  0.00    -0.150 N  
HETATM   11  O   UNL     2     -11.858  13.277  65.777  1.00  0.00    -0.349 OA 
HETATM   12  C   UNL     1      -9.371  15.364  66.868  1.00  0.00    -0.236 C  
HETATM   13  C   UNL     2      -8.915  11.307  65.606  1.00  0.00    -0.163 C  
HETATM   14  O   UNL     1      -9.334  16.079  65.873  1.00  0.00    -0.326 OA 
HETATM   15  N   UNL     1     -10.398  15.375  67.772  1.00  0.00    -0.249 N  
HETATM   16  H   UNL     1     -11.134  16.070  67.638  1.00  0.00     0.000 HD 
HETATM   17  O   UNL     2      -7.842  11.389  65.015  1.00  0.00     0.537 OA 
HETATM   18  N   UNL     2      -9.966  12.123  65.251  1.00  0.00    -0.285 N  
HETATM   19  C   UNL     2     -11.097  12.342  65.996  1.00  0.00    -0.309 C  
HETATM   20  H   UNL     2      -9.898  12.606  64.355  1.00  0.00     0.000 HD 
ENDROOT
BRANCH  10  21
HETATM   21  C   UNL     2      -8.099   9.530  67.091  1.00  0.00    -0.106 C  
HETATM   22  C   UNL     2      -7.382   7.327  66.528  1.00  0.00    -0.080 C  
HETATM   23  C   UNL     2      -8.556   8.070  67.118  1.00  0.00    -0.124 C  
HETATM   24  C   UNL     2      -6.812   8.335  65.560  1.00  0.00    -0.066 C  
HETATM   25  O   UNL     2      -7.012   9.619  66.155  1.00  0.00    -0.088 OA 
ENDBRANCH  10  21
TORSDOF 1
ENDMDL
MODEL      144
REMARK 921   NORMALIZED FREE ENERGY PREDICTED BY IDOCK:   -2.51 KCAL/MOL
REMARK 922        TOTAL FREE ENERGY PREDICTED BY IDOCK:   -3.00 KCAL/MOL
REMARK 923 INTER-LIGAND FREE ENERGY PREDICTED BY IDOCK:   -2.69 KCAL/MOL
REMARK 924 INTRA-LIGAND FREE ENERGY PREDICTED BY IDOCK:   -0.31 KCAL/MOL
REMARK 927      BINDING AFFINITY PREDICTED BY RF-SCORE:    0.00 PKD
ROOT
HETATM    1  O   UNL     1      -8.938   5.716  73.982  1.00  0.00    -0.123 OA 
HETATM    2  F   UNL     2      -6.299   7.308  72.148  1.00  0.00    -0.043 F  
HETATM    3  C   UNL     1      -9.373   5.439  72.869  1.00  0.00    -0.137 C  
HETATM    4  C   UNL     2      -6.814   7.154  70.916  1.00  0.00    -0.053 C  
HETATM    5  N   UNL     1      -9.974   6.388  72.081  1.00  0.00    -0.166 N  
HETATM    6  H   UNL     1     -10.055   7.337  72.447  1.00  0.00     0.000 HD 
HETATM    7  C   UNL     1     -10.468   6.131  70.834  1.00  0.00    -0.228 C  
HETATM    8  C   UNL     2      -7.397   8.153  70.257  1.00  0.00    -0.059 C  
HETATM    9  C   UNL     1     -10.368   4.918  70.296  1.00  0.00    -0.252 C  
HETATM   10  N   UNL     2      -8.003   7.966  69.026  1.00  0.00    -0.120 N  
HETATM   11  O   UNL     2      -6.430   4.816  70.945  1.00  0.00    -0.028 OA 
HETATM   12  C   UNL     1      -9.713   3.846  71.068  1.00  0.00    -0.182 C  
HETATM   13  C   UNL     2      -8.009   6.720  68.405  1.00  0.00    -0.115 C  
HETATM   14  O   UNL     1      -9.554   2.733  70.581  1.00  0.00    -0.153 OA 
HETATM   15  N   UNL     1      -9.296   4.189  72.326  1.00  0.00    -0.121 N  
HETATM   16  H   UNL     1      -8.896   3.450  72.905  1.00  0.00     0.000 HD 
HETATM   17  O   UNL     2      -8.639   6.461  67.383  1.00  0.00    -0.109 OA 
HETATM   18  N   UNL     2      -7.297   5.732  69.048  1.00  0.00    -0.081 N  
HETATM   19  C   UNL     2      -6.801   5.806  70.325  1.00  0.00    -0.049 C  
HETATM   20  H   UNL     2      -7.123   4.871  68.530  1.00  0.00     0.000 HD 
ENDROOT
BRANCH  10  21
HETATM   21  C   UNL     2      -8.689   9.079  68.372  1.00  0.00    -0.130 C  
HETATM   22  C   UNL     2      -8.704  11.461  68.481  1.00  0.00    -0.149 C  
HETATM   23  C   UNL     2      -9.013  10.240  69.314  1.00  0.00    -0.190 C  
HETATM   24  C   UNL     2      -7.579  10.977  67.600  1.00  0.00    -0.104 C  
HETATM   25  O   UNL     2      -7.846   9.599  67.329  1.00  0.00    -0.095 OA 
ENDBRANCH  10  21
TORSDOF 1
ENDMDL
MODEL      145
REMARK 921   NORMALIZED FREE ENERGY PREDICTED BY IDOCK:   -2.47 KCAL/MOL
REMARK 922        TOTAL FREE ENERGY PREDICTED BY IDOCK:   -2.95 KCAL/MOL
REMARK 923 INTER-LIGAND FREE ENERGY PREDICTED BY IDOCK:   -2.65 KCAL/MOL
REMARK 924 INTRA-LIGAND FREE ENERGY PREDICTED BY IDOCK:   -0.30 KCAL/MOL
REMARK 927      BINDING AFFINITY PREDICTED BY RF-SCORE:    0.00 PKD
ROOT
HETATM    1  O   UNL     1     -11.385   6.748  67.412  1.00  0.00    -0.274 OA 
HETATM    2  F   UNL     2     -10.311   4.218  69.716  1.00  0.00    -0.251 F  
HETATM    3  C   UNL     1     -10.185   6.971  67.293  1.00  0.00    -0.234 C  
HETATM    4  C   UNL     2      -9.002   4.525  69.726  1.00  0.00    -0.099 C  
HETATM    5  N   UNL     1      -9.479   7.621  68.273  1.00  0.00    -0.145 N  
HETATM    6  H   UNL     1      -9.980   7.922  69.109  1.00  0.00     0.000 HD 
HETATM    7  C   UNL     1      -8.142   7.887  68.190  1.00  0.00    -0.123 C  
HETATM    8  C   UNL     2      -8.433   5.184  70.732  1.00  0.00    -0.117 C  
HETATM    9  C   UNL     1      -7.432   7.495  67.134  1.00  0.00    -0.099 C  
HETATM   10  N   UNL     2      -7.104   5.573  70.696  1.00  0.00    -0.060 N  
HETATM   11  O   UNL     2      -8.702   3.730  67.514  1.00  0.00    -0.099 OA 
HETATM   12  C   UNL     1      -8.111   6.768  66.046  1.00  0.00    -0.119 C  
HETATM   13  C   UNL     2      -6.290   5.268  69.608  1.00  0.00    -0.030 C  
HETATM   14  O   UNL     1      -7.477   6.345  65.086  1.00  0.00    -0.074 OA 
HETATM   15  N   UNL     1      -9.461   6.595  66.199  1.00  0.00    -0.361 N  
HETATM   16  H   UNL     1      -9.966   6.150  65.432  1.00  0.00     0.000 HD 
HETATM   17  O   UNL     2      -5.149   5.696  69.459  1.00  0.00    -0.004 OA 
HETATM   18  N   UNL     2      -6.868   4.483  68.636  1.00  0.00    -0.050 N  
HETATM   19  C   UNL     2      -8.204   4.186  68.536  1.00  0.00    -0.083 C  
HETATM   20  H   UNL     2      -6.249   4.087  67.929  1.00  0.00     0.000 HD 
ENDROOT
BRANCH  10  21
HETATM   21  C   UNL     2      -6.541   6.354  71.797  1.00  0.00    -0.058 C  
HETATM   22  C   UNL     2      -7.100   8.300  73.055  1.00  0.00    -0.137 C  
HETATM   23  C   UNL     2      -6.756   7.862  71.653  1.00  0.00    -0.052 C  
HETATM   24  C   UNL     2      -7.806   7.088  73.611  1.00  0.00    -0.096 C  
HETATM   25  O   UNL     2      -7.169   5.950  73.025  1.00  0.00    -0.090 OA 
ENDBRANCH  10  21
TORSDOF 1
ENDMDL
MODEL      146
REMARK 921   NORMALIZED FREE ENERGY PREDICTED BY IDOCK:   -2.45 KCAL/MOL
REMARK 922        TOTAL FREE ENERGY PREDICTED BY IDOCK:   -2.94 KCAL/MOL
REMARK 923 INTER-LIGAND FREE ENERGY PREDICTED BY IDOCK:   -2.67 KCAL/MOL
REMARK 924 INTRA-LIGAND FREE ENERGY PREDICTED BY IDOCK:   -0.26 KCAL/MOL
REMARK 927      BINDING AFFINITY PREDICTED BY RF-SCORE:    0.00 PKD
ROOT
HETATM    1  O   UNL     1     -11.745   7.742  70.310  1.00  0.00    -0.123 OA 
HETATM    2  F   UNL     2      -9.465   8.468  72.981  1.00  0.00    -0.319 F  
HETATM    3  C   UNL     1     -10.794   7.131  69.833  1.00  0.00    -0.254 C  
HETATM    4  C   UNL     2      -8.360   7.938  72.427  1.00  0.00    -0.138 C  
HETATM    5  N   UNL     1      -9.735   7.792  69.263  1.00  0.00    -0.164 N  
HETATM    6  H   UNL     1      -9.759   8.812  69.240  1.00  0.00     0.000 HD 
HETATM    7  C   UNL     1      -8.652   7.158  68.725  1.00  0.00    -0.125 C  
HETATM    8  C   UNL     2      -7.406   8.687  71.881  1.00  0.00    -0.059 C  
HETATM    9  C   UNL     1      -8.555   5.831  68.748  1.00  0.00    -0.109 C  
HETATM   10  N   UNL     2      -6.314   8.131  71.236  1.00  0.00    -0.035 N  
HETATM   11  O   UNL     2      -9.176   5.728  72.690  1.00  0.00    -0.138 OA 
HETATM   12  C   UNL     1      -9.640   5.047  69.366  1.00  0.00    -0.166 C  
HETATM   13  C   UNL     2      -6.151   6.751  71.149  1.00  0.00    -0.036 C  
HETATM   14  O   UNL     1      -9.557   3.827  69.454  1.00  0.00    -0.183 OA 
HETATM   15  N   UNL     1     -10.706   5.770  69.831  1.00  0.00    -0.322 N  
HETATM   16  H   UNL     1     -11.498   5.248  70.207  1.00  0.00     0.000 HD 
HETATM   17  O   UNL     2      -5.281   6.199  70.481  1.00  0.00    -0.012 OA 
HETATM   18  N   UNL     2      -7.086   5.999  71.825  1.00  0.00    -0.083 N  
HETATM   19  C   UNL     2      -8.260   6.470  72.356  1.00  0.00    -0.105 C  
HETATM   20  H   UNL     2      -6.889   5.005  71.940  1.00  0.00     0.000 HD 
ENDROOT
BRANCH  10  21
HETATM   21  C   UNL     2      -5.326   8.996  70.592  1.00  0.00    -0.027 C  
HETATM   22  C   UNL     2      -5.286  10.718  68.944  1.00  0.00    -0.041 C  
HETATM   23  C   UNL     2      -5.607   9.253  69.111  1.00  0.00    -0.036 C  
HETATM   24  C   UNL     2      -5.644  11.285  70.297  1.00  0.00    -0.121 C  
HETATM   25  O   UNL     2      -5.324  10.273  71.253  1.00  0.00    -0.077 OA 
ENDBRANCH  10  21
TORSDOF 1
ENDMDL
MODEL      147
REMARK 921   NORMALIZED FREE ENERGY PREDICTED BY IDOCK:   -2.09 KCAL/MOL
REMARK 922        TOTAL FREE ENERGY PREDICTED BY IDOCK:   -2.56 KCAL/MOL
REMARK 923 INTER-LIGAND FREE ENERGY PREDICTED BY IDOCK:   -2.23 KCAL/MOL
REMARK 924 INTRA-LIGAND FREE ENERGY PREDICTED BY IDOCK:   -0.33 KCAL/MOL
REMARK 927      BINDING AFFINITY PREDICTED BY RF-SCORE:    0.00 PKD
ROOT
HETATM    1  O   UNL     1      -6.877   4.977  63.868  1.00  0.00    -0.045 OA 
HETATM    2  F   UNL     2      -6.674   7.521  66.389  1.00  0.00    -0.051 F  
HETATM    3  C   UNL     1      -7.772   4.525  64.575  1.00  0.00    -0.081 C  
HETATM    4  C   UNL     2      -7.544   6.982  67.261  1.00  0.00    -0.108 C  
HETATM    5  N   UNL     1      -7.494   3.877  65.752  1.00  0.00    -0.080 N  
HETATM    6  H   UNL     1      -6.517   3.773  66.026  1.00  0.00     0.000 HD 
HETATM    7  C   UNL     1      -8.455   3.363  66.575  1.00  0.00    -0.109 C  
HETATM    8  C   UNL     2      -7.149   6.353  68.365  1.00  0.00    -0.083 C  
HETATM    9  C   UNL     1      -9.747   3.490  66.280  1.00  0.00    -0.041 C  
HETATM   10  N   UNL     2      -8.047   5.726  69.213  1.00  0.00    -0.100 N  
HETATM   11  O   UNL     2      -9.391   7.443  65.848  1.00  0.00    -0.054 OA 
HETATM   12  C   UNL     1     -10.131   4.197  65.044  1.00  0.00    -0.208 C  
HETATM   13  C   UNL     2      -9.416   5.746  68.961  1.00  0.00    -0.124 C  
HETATM   14  O   UNL     1     -11.312   4.380  64.771  1.00  0.00    -0.266 OA 
HETATM   15  N   UNL     1      -9.096   4.630  64.261  1.00  0.00    -0.238 N  
HETATM   16  H   UNL     1      -9.333   5.067  63.369  1.00  0.00     0.000 HD 
HETATM   17  O   UNL     2     -10.244   5.101  69.598  1.00  0.00    -0.241 OA 
HETATM   18  N   UNL     2      -9.809   6.504  67.881  1.00  0.00    -0.121 N  
HETATM   19  C   UNL     2      -8.977   7.026  66.924  1.00  0.00    -0.126 C  
HETATM   20  H   UNL     2     -10.807   6.693  67.784  1.00  0.00     0.000 HD 
ENDROOT
BRANCH  10  21
HETATM   21  C   UNL     2      -7.559   4.990  70.379  1.00  0.00    -0.063 C  
HETATM   22  C   UNL     2      -5.641   3.713  70.992  1.00  0.00    -0.012 C  
HETATM   23  C   UNL     2      -6.799   3.710  70.023  1.00  0.00    -0.034 C  
HETATM   24  C   UNL     2      -5.381   5.187  71.184  1.00  0.00    -0.005 C  
HETATM   25  O   UNL     2      -6.655   5.831  71.117  1.00  0.00    -0.042 OA 
ENDBRANCH  10  21
TORSDOF 1
ENDMDL
MODEL      148
REMARK 921   NORMALIZED FREE ENERGY PREDICTED BY IDOCK:   -1.97 KCAL/MOL
REMARK 922        TOTAL FREE ENERGY PREDICTED BY IDOCK:   -2.42 KCAL/MOL
REMARK 923 INTER-LIGAND FREE ENERGY PREDICTED BY IDOCK:   -2.90 KCAL/MOL
REMARK 924 INTRA-LIGAND FREE ENERGY PREDICTED BY IDOCK:    0.48 KCAL/MOL
REMARK 927      BINDING AFFINITY PREDICTED BY RF-SCORE:    0.00 PKD
ROOT
HETATM    1  O   UNL     1      -7.967   7.129  64.610  1.00  0.00    -0.122 OA 
HETATM    2  F   UNL     2      -5.515   7.034  67.226  1.00  0.00    -0.014 F  
HETATM    3  C   UNL     1      -8.571   7.872  65.375  1.00  0.00    -0.095 C  
HETATM    4  C   UNL     2      -6.208   7.723  68.150  1.00  0.00    -0.045 C  
HETATM    5  N   UNL     1      -9.214   7.385  66.485  1.00  0.00    -0.161 N  
HETATM    6  H   UNL     1      -9.182   6.380  66.658  1.00  0.00     0.000 HD 
HETATM    7  C   UNL     1      -9.894   8.172  67.369  1.00  0.00    -0.184 C  
HETATM    8  C   UNL     2      -6.812   7.130  69.176  1.00  0.00    -0.061 C  
HETATM    9  C   UNL     1      -9.949   9.493  67.208  1.00  0.00    -0.244 C  
HETATM   10  N   UNL     2      -7.596   7.836  70.074  1.00  0.00    -0.084 N  
HETATM   11  O   UNL     2      -5.973   9.752  66.948  1.00  0.00    -0.054 OA 
HETATM   12  C   UNL     1      -9.261  10.099  66.053  1.00  0.00    -0.158 C  
HETATM   13  C   UNL     2      -7.769   9.213  69.957  1.00  0.00    -0.088 C  
HETATM   14  O   UNL     1      -9.244  11.316  65.905  1.00  0.00    -0.204 OA 
HETATM   15  N   UNL     1      -8.651   9.223  65.196  1.00  0.00    -0.161 N  
HETATM   16  H   UNL     1      -8.221   9.611  64.356  1.00  0.00     0.000 HD 
HETATM   17  O   UNL     2      -8.552   9.870  70.637  1.00  0.00    -0.130 OA 
HETATM   18  N   UNL     2      -7.038   9.820  68.961  1.00  0.00    -0.065 N  
HETATM   19  C   UNL     2      -6.363   9.174  67.956  1.00  0.00    -0.055 C  
HETATM   20  H   UNL     2      -6.995  10.839  68.971  1.00  0.00     0.000 HD 
ENDROOT
BRANCH  10  21
HETATM   21  C   UNL     2      -8.294   7.130  71.147  1.00  0.00    -0.113 C  
HETATM   22  C   UNL     2      -9.858   7.634  72.876  1.00  0.00    -0.299 C  
HETATM   23  C   UNL     2      -8.454   7.956  72.425  1.00  0.00    -0.189 C  
HETATM   24  C   UNL     2     -10.571   7.393  71.568  1.00  0.00    -0.206 C  
HETATM   25  O   UNL     2      -9.615   6.785  70.696  1.00  0.00    -0.169 OA 
ENDBRANCH  10  21
TORSDOF 1
ENDMDL
MODEL      149
REMARK 921   NORMALIZED FREE ENERGY PREDICTED BY IDOCK:   -1.89 KCAL/MOL
REMARK 922        TOTAL FREE ENERGY PREDICTED BY IDOCK:   -2.34 KCAL/MOL
REMARK 923 INTER-LIGAND FREE ENERGY PREDICTED BY IDOCK:   -3.12 KCAL/MOL
REMARK 924 INTRA-LIGAND FREE ENERGY PREDICTED BY IDOCK:    0.77 KCAL/MOL
REMARK 927      BINDING AFFINITY PREDICTED BY RF-SCORE:    0.00 PKD
ROOT
HETATM    1  O   UNL     1      -5.930  10.255  68.242  1.00  0.00    -0.041 OA 
HETATM    2  F   UNL     2      -7.735  12.992  66.787  1.00  0.00    -0.056 F  
HETATM    3  C   UNL     1      -7.045   9.845  68.545  1.00  0.00    -0.071 C  
HETATM    4  C   UNL     2      -8.960  12.655  67.224  1.00  0.00    -0.194 C  
HETATM    5  N   UNL     1      -7.763  10.416  69.565  1.00  0.00    -0.160 N  
HETATM    6  H   UNL     1      -7.343  11.193  70.075  1.00  0.00     0.000 HD 
HETATM    7  C   UNL     1      -9.010   9.999  69.935  1.00  0.00    -0.146 C  
HETATM    8  C   UNL     2      -9.547  13.272  68.247  1.00  0.00    -0.221 C  
HETATM    9  C   UNL     1      -9.618   9.006  69.290  1.00  0.00    -0.162 C  
HETATM   10  N   UNL     2     -10.772  12.862  68.747  1.00  0.00    -0.242 N  
HETATM   11  O   UNL     2      -9.073  10.793  65.762  1.00  0.00    -0.175 OA 
HETATM   12  C   UNL     1      -8.924   8.355  68.164  1.00  0.00    -0.139 C  
HETATM   13  C   UNL     2     -11.462  11.793  68.184  1.00  0.00    -0.316 C  
HETATM   14  O   UNL     1      -9.478   7.476  67.513  1.00  0.00    -0.135 OA 
HETATM   15  N   UNL     1      -7.659   8.809  67.903  1.00  0.00    -0.096 N  
HETATM   16  H   UNL     1      -7.133   8.334  67.169  1.00  0.00     0.000 HD 
HETATM   17  O   UNL     2     -12.481  11.300  68.661  1.00  0.00    -0.442 OA 
HETATM   18  N   UNL     2     -10.893  11.248  67.054  1.00  0.00    -0.267 N  
HETATM   19  C   UNL     2      -9.627  11.504  66.593  1.00  0.00    -0.197 C  
HETATM   20  H   UNL     2     -11.463  10.597  66.513  1.00  0.00     0.000 HD 
ENDROOT
BRANCH  10  21
HETATM   21  C   UNL     2     -11.345  13.530  69.915  1.00  0.00    -0.031 C  
HETATM   22  C   UNL     2     -13.505  14.100  70.748  1.00  0.00    -0.037 C  
HETATM   23  C   UNL     2     -12.574  14.383  69.594  1.00  0.00    -0.102 C  
HETATM   24  C   UNL     2     -13.157  12.675  71.104  1.00  0.00    -0.059 C  
HETATM   25  O   UNL     2     -11.755  12.534  70.868  1.00  0.00     0.175 OA 
ENDBRANCH  10  21
TORSDOF 1
ENDMDL
MODEL      150
REMARK 921   NORMALIZED FREE ENERGY PREDICTED BY IDOCK:   -1.84 KCAL/MOL
REMARK 922        TOTAL FREE ENERGY PREDICTED BY IDOCK:   -2.29 KCAL/MOL
REMARK 923 INTER-LIGAND FREE ENERGY PREDICTED BY IDOCK:   -2.08 KCAL/MOL
REMARK 924 INTRA-LIGAND FREE ENERGY PREDICTED BY IDOCK:   -0.21 KCAL/MOL
REMARK 927      BINDING AFFINITY PREDICTED BY RF-SCORE:    0.00 PKD
ROOT
HETATM    1  O   UNL     1      -6.473   9.201  70.805  1.00  0.00    -0.053 OA 
HETATM    2  F   UNL     2      -6.257   5.621  70.754  1.00  0.00    -0.025 F  
HETATM    3  C   UNL     1      -7.361   9.032  69.975  1.00  0.00    -0.060 C  
HETATM    4  C   UNL     2      -7.117   5.401  69.745  1.00  0.00    -0.063 C  
HETATM    5  N   UNL     1      -7.071   8.685  68.680  1.00  0.00    -0.067 N  
HETATM    6  H   UNL     1      -6.091   8.573  68.418  1.00  0.00     0.000 HD 
HETATM    7  C   UNL     1      -8.023   8.481  67.722  1.00  0.00    -0.107 C  
HETATM    8  C   UNL     2      -6.711   5.090  68.517  1.00  0.00    -0.050 C  
HETATM    9  C   UNL     1      -9.318   8.589  68.012  1.00  0.00    -0.147 C  
HETATM   10  N   UNL     2      -7.599   4.950  67.463  1.00  0.00    -0.086 N  
HETATM   11  O   UNL     2      -8.978   6.041  71.067  1.00  0.00    -0.141 OA 
HETATM   12  C   UNL     1      -9.715   8.935  69.389  1.00  0.00    -0.169 C  
HETATM   13  C   UNL     2      -8.970   5.106  67.647  1.00  0.00    -0.109 C  
HETATM   14  O   UNL     1     -10.899   8.987  69.703  1.00  0.00    -0.231 OA 
HETATM   15  N   UNL     1      -8.688   9.170  70.263  1.00  0.00    -0.180 N  
HETATM   16  H   UNL     1      -8.934   9.472  71.206  1.00  0.00     0.000 HD 
HETATM   17  O   UNL     2      -9.791   5.125  66.734  1.00  0.00    -0.150 OA 
HETATM   18  N   UNL     2      -9.375   5.307  68.947  1.00  0.00    -0.118 N  
HETATM   19  C   UNL     2      -8.553   5.597  70.006  1.00  0.00    -0.122 C  
HETATM   20  H   UNL     2     -10.374   5.234  69.140  1.00  0.00     0.000 HD 
ENDROOT
BRANCH  10  21
HETATM   21  C   UNL     2      -7.098   4.675  66.117  1.00  0.00    -0.075 C  
HETATM   22  C   UNL     2      -5.270   3.524  65.107  1.00  0.00    -0.009 C  
HETATM   23  C   UNL     2      -5.572   4.693  66.013  1.00  0.00    -0.017 C  
HETATM   24  C   UNL     2      -6.388   2.563  65.434  1.00  0.00    -0.024 C  
HETATM   25  O   UNL     2      -7.537   3.366  65.715  1.00  0.00    -0.076 OA 
ENDBRANCH  10  21
TORSDOF 1
ENDMDL
MODEL      151
REMARK 921   NORMALIZED FREE ENERGY PREDICTED BY IDOCK:   -1.80 KCAL/MOL
REMARK 922        TOTAL FREE ENERGY PREDICTED BY IDOCK:   -2.24 KCAL/MOL
REMARK 923 INTER-LIGAND FREE ENERGY PREDICTED BY IDOCK:   -3.02 KCAL/MOL
REMARK 924 INTRA-LIGAND FREE ENERGY PREDICTED BY IDOCK:    0.78 KCAL/MOL
REMARK 927      BINDING AFFINITY PREDICTED BY RF-SCORE:    0.00 PKD
ROOT
HETATM    1  O   UNL     1     -10.720  19.638  70.145  1.00  0.00     0.820 OA 
HETATM    2  F   UNL     2      -7.167  20.099  69.997  1.00  0.00    -0.287 F  
HETATM    3  C   UNL     1     -10.575  19.139  69.034  1.00  0.00     0.458 C  
HETATM    4  C   UNL     2      -6.983  19.696  68.728  1.00  0.00    -0.339 C  
HETATM    5  N   UNL     1     -10.336  19.917  67.929  1.00  0.00    -0.421 N  
HETATM    6  H   UNL     1     -10.286  20.928  68.052  1.00  0.00     0.000 HD 
HETATM    7  C   UNL     1     -10.161  19.409  66.673  1.00  0.00    -0.435 C  
HETATM    8  C   UNL     2      -6.781  20.554  67.730  1.00  0.00    -0.309 C  
HETATM    9  C   UNL     1     -10.192  18.096  66.456  1.00  0.00    -0.398 C  
HETATM   10  N   UNL     2      -6.680  20.138  66.413  1.00  0.00    -0.213 N  
HETATM   11  O   UNL     2      -7.445  17.437  69.277  1.00  0.00    -0.173 OA 
HETATM   12  C   UNL     1     -10.419  17.189  67.596  1.00  0.00    -0.355 C  
HETATM   13  C   UNL     2      -6.762  18.790  66.072  1.00  0.00    -0.243 C  
HETATM   14  O   UNL     1     -10.397  15.974  67.441  1.00  0.00    -0.281 OA 
HETATM   15  N   UNL     1     -10.633  17.795  68.805  1.00  0.00    -0.345 N  
HETATM   16  H   UNL     1     -10.855  17.193  69.598  1.00  0.00     0.000 HD 
HETATM   17  O   UNL     2      -6.813  18.372  64.919  1.00  0.00    -0.349 OA 
HETATM   18  N   UNL     2      -6.850  17.914  67.131  1.00  0.00    -0.175 N  
HETATM   19  C   UNL     2      -7.098  18.258  68.436  1.00  0.00    -0.257 C  
HETATM   20  H   UNL     2      -6.720  16.923  66.927  1.00  0.00     0.000 HD 
ENDROOT
BRANCH  10  21
HETATM   21  C   UNL     2      -6.526  21.124  65.345  1.00  0.00     0.007 C  
HETATM   22  C   UNL     2      -5.435  21.290  63.231  1.00  0.00    -0.272 C  
HETATM   23  C   UNL     2      -5.138  21.121  64.701  1.00  0.00    -0.229 C  
HETATM   24  C   UNL     2      -6.768  20.599  63.087  1.00  0.00     0.423 C  
HETATM   25  O   UNL     2      -7.477  20.839  64.305  1.00  0.00     0.352 OA 
ENDBRANCH  10  21
TORSDOF 1
ENDMDL
MODEL      152
REMARK 921   NORMALIZED FREE ENERGY PREDICTED BY IDOCK:   -1.79 KCAL/MOL
REMARK 922        TOTAL FREE ENERGY PREDICTED BY IDOCK:   -2.23 KCAL/MOL
REMARK 923 INTER-LIGAND FREE ENERGY PREDICTED BY IDOCK:   -2.54 KCAL/MOL
REMARK 924 INTRA-LIGAND FREE ENERGY PREDICTED BY IDOCK:    0.31 KCAL/MOL
REMARK 927      BINDING AFFINITY PREDICTED BY RF-SCORE:    0.00 PKD
ROOT
HETATM    1  O   UNL     1      -9.012  11.809  68.404  1.00  0.00    -0.178 OA 
HETATM    2  F   UNL     2     -11.322   9.089  68.764  1.00  0.00    -0.003 F  
HETATM    3  C   UNL     1      -8.192  10.919  68.202  1.00  0.00    -0.121 C  
HETATM    4  C   UNL     2     -10.432   8.084  68.694  1.00  0.00    -0.167 C  
HETATM    5  N   UNL     1      -7.713  10.144  69.227  1.00  0.00    -0.112 N  
HETATM    6  H   UNL     1      -8.053  10.328  70.171  1.00  0.00     0.000 HD 
HETATM    7  C   UNL     1      -6.804   9.139  69.052  1.00  0.00    -0.055 C  
HETATM    8  C   UNL     2     -10.024   7.416  69.771  1.00  0.00    -0.188 C  
HETATM    9  C   UNL     1      -6.344   8.838  67.840  1.00  0.00    -0.056 C  
HETATM   10  N   UNL     2      -9.043   6.441  69.702  1.00  0.00    -0.143 N  
HETATM   11  O   UNL     2     -10.043   8.463  66.387  1.00  0.00    -0.265 OA 
HETATM   12  C   UNL     1      -6.828   9.608  66.680  1.00  0.00    -0.084 C  
HETATM   13  C   UNL     2      -8.451   6.095  68.490  1.00  0.00    -0.114 C  
HETATM   14  O   UNL     1      -6.468   9.320  65.544  1.00  0.00    -0.066 OA 
HETATM   15  N   UNL     1      -7.698  10.627  66.964  1.00  0.00    -0.113 N  
HETATM   16  H   UNL     1      -8.000  11.215  66.187  1.00  0.00     0.000 HD 
HETATM   17  O   UNL     2      -7.490   5.338  68.383  1.00  0.00    -0.073 OA 
HETATM   18  N   UNL     2      -8.974   6.712  67.376  1.00  0.00    -0.115 N  
HETATM   19  C   UNL     2      -9.835   7.780  67.383  1.00  0.00    -0.175 C  
HETATM   20  H   UNL     2      -8.697   6.343  66.466  1.00  0.00     0.000 HD 
ENDROOT
BRANCH  10  21
HETATM   21  C   UNL     2      -8.580   5.782  70.923  1.00  0.00    -0.130 C  
HETATM   22  C   UNL     2      -6.784   5.992  72.477  1.00  0.00    -0.069 C  
HETATM   23  C   UNL     2      -7.057   5.679  71.026  1.00  0.00    -0.070 C  
HETATM   24  C   UNL     2      -7.896   6.955  72.817  1.00  0.00    -0.097 C  
HETATM   25  O   UNL     2      -9.034   6.536  72.060  1.00  0.00    -0.140 OA 
ENDBRANCH  10  21
TORSDOF 1
ENDMDL
MODEL      153
REMARK 921   NORMALIZED FREE ENERGY PREDICTED BY IDOCK:   -1.62 KCAL/MOL
REMARK 922        TOTAL FREE ENERGY PREDICTED BY IDOCK:   -2.06 KCAL/MOL
REMARK 923 INTER-LIGAND FREE ENERGY PREDICTED BY IDOCK:   -2.87 KCAL/MOL
REMARK 924 INTRA-LIGAND FREE ENERGY PREDICTED BY IDOCK:    0.82 KCAL/MOL
REMARK 927      BINDING AFFINITY PREDICTED BY RF-SCORE:    0.00 PKD
ROOT
HETATM    1  O   UNL     1      -5.734   5.382  68.470  1.00  0.00    -0.014 OA 
HETATM    2  F   UNL     2      -8.549   5.133  66.261  1.00  0.00    -0.112 F  
HETATM    3  C   UNL     1      -6.369   6.305  68.970  1.00  0.00    -0.041 C  
HETATM    4  C   UNL     2      -9.209   6.225  66.683  1.00  0.00    -0.146 C  
HETATM    5  N   UNL     1      -6.473   7.521  68.344  1.00  0.00    -0.044 N  
HETATM    6  H   UNL     1      -6.002   7.644  67.448  1.00  0.00     0.000 HD 
HETATM    7  C   UNL     1      -7.172   8.576  68.857  1.00  0.00    -0.078 C  
HETATM    8  C   UNL     2      -9.217   7.363  65.993  1.00  0.00    -0.041 C  
HETATM    9  C   UNL     1      -7.826   8.466  70.012  1.00  0.00    -0.103 C  
HETATM   10  N   UNL     2      -9.826   8.510  66.476  1.00  0.00    -0.259 N  
HETATM   11  O   UNL     2      -9.761   5.209  68.752  1.00  0.00    -0.134 OA 
HETATM   12  C   UNL     1      -7.786   7.183  70.736  1.00  0.00    -0.094 C  
HETATM   13  C   UNL     2     -10.483   8.518  67.703  1.00  0.00    -0.241 C  
HETATM   14  O   UNL     1      -8.422   7.030  71.772  1.00  0.00    -0.114 OA 
HETATM   15  N   UNL     1      -7.017   6.203  70.167  1.00  0.00    -0.060 N  
HETATM   16  H   UNL     1      -6.921   5.325  70.679  1.00  0.00     0.000 HD 
HETATM   17  O   UNL     2     -10.925   9.529  68.243  1.00  0.00    -0.182 OA 
HETATM   18  N   UNL     2     -10.565   7.300  68.341  1.00  0.00    -0.297 N  
HETATM   19  C   UNL     2      -9.870   6.169  67.997  1.00  0.00    -0.127 C  
HETATM   20  H   UNL     2     -11.198   7.234  69.138  1.00  0.00     0.000 HD 
ENDROOT
BRANCH  10  21
HETATM   21  C   UNL     2      -9.750   9.755  65.713  1.00  0.00    -0.273 C  
HETATM   22  C   UNL     2      -9.248  12.051  66.113  1.00  0.00    -0.181 C  
HETATM   23  C   UNL     2     -10.245  10.980  66.483  1.00  0.00    -0.280 C  
HETATM   24  C   UNL     2      -7.980  11.259  65.909  1.00  0.00     0.083 C  
HETATM   25  O   UNL     2      -8.378  10.001  65.357  1.00  0.00    -0.138 OA 
ENDBRANCH  10  21
TORSDOF 1
ENDMDL
MODEL      154
REMARK 921   NORMALIZED FREE ENERGY PREDICTED BY IDOCK:   -1.15 KCAL/MOL
REMARK 922        TOTAL FREE ENERGY PREDICTED BY IDOCK:   -1.56 KCAL/MOL
REMARK 923 INTER-LIGAND FREE ENERGY PREDICTED BY IDOCK:   -1.69 KCAL/MOL
REMARK 924 INTRA-LIGAND FREE ENERGY PREDICTED BY IDOCK:    0.13 KCAL/MOL
REMARK 927      BINDING AFFINITY PREDICTED BY RF-SCORE:    0.00 PKD
ROOT
HETATM    1  O   UNL     1      -7.828  14.980  66.008  1.00  0.00     1.003 OA 
HETATM    2  F   UNL     2      -7.612  18.492  65.313  1.00  0.00    -0.014 F  
HETATM    3  C   UNL     1      -8.460  15.342  66.995  1.00  0.00    -0.231 C  
HETATM    4  C   UNL     2      -8.170  18.937  66.452  1.00  0.00    -0.294 C  
HETATM    5  N   UNL     1      -7.834  15.909  68.076  1.00  0.00    -0.134 N  
HETATM    6  H   UNL     1      -6.820  16.018  68.043  1.00  0.00     0.000 HD 
HETATM    7  C   UNL     1      -8.494  16.333  69.193  1.00  0.00    -0.218 C  
HETATM    8  C   UNL     2      -7.449  19.449  67.446  1.00  0.00    -0.231 C  
HETATM    9  C   UNL     1      -9.819  16.238  69.282  1.00  0.00    -0.252 C  
HETATM   10  N   UNL     2      -8.022  19.826  68.650  1.00  0.00    -0.286 N  
HETATM   11  O   UNL     2     -10.316  18.157  65.816  1.00  0.00    -0.586 OA 
HETATM   12  C   UNL     1     -10.571  15.664  68.151  1.00  0.00    -0.274 C  
HETATM   13  C   UNL     2      -9.392  19.707  68.868  1.00  0.00    -0.281 C  
HETATM   14  O   UNL     1     -11.795  15.613  68.177  1.00  0.00    -0.286 OA 
HETATM   15  N   UNL     1      -9.816  15.221  67.099  1.00  0.00    -0.223 N  
HETATM   16  H   UNL     1     -10.306  14.762  66.330  1.00  0.00     0.000 HD 
HETATM   17  O   UNL     2      -9.937  19.898  69.951  1.00  0.00    -0.104 OA 
HETATM   18  N   UNL     2     -10.131  19.290  67.784  1.00  0.00    -0.367 N  
HETATM   19  C   UNL     2      -9.623  18.768  66.621  1.00  0.00    -0.336 C  
HETATM   20  H   UNL     2     -11.145  19.376  67.852  1.00  0.00     0.000 HD 
ENDROOT
BRANCH  10  21
HETATM   21  C   UNL     2      -7.178  20.320  69.737  1.00  0.00     0.278 C  
HETATM   22  C   UNL     2      -5.936  19.423  71.564  1.00  0.00     0.035 C  
HETATM   23  C   UNL     2      -7.349  19.548  71.047  1.00  0.00     1.571 C  
HETATM   24  C   UNL     2      -5.128  19.360  70.291  1.00  0.00    -0.200 C  
HETATM   25  O   UNL     2      -5.799  20.201  69.349  1.00  0.00    -0.265 OA 
ENDBRANCH  10  21
TORSDOF 1
ENDMDL
MODEL      155
REMARK 921   NORMALIZED FREE ENERGY PREDICTED BY IDOCK:   -0.12 KCAL/MOL
REMARK 922        TOTAL FREE ENERGY PREDICTED BY IDOCK:   -0.47 KCAL/MOL
REMARK 923 INTER-LIGAND FREE ENERGY PREDICTED BY IDOCK:   -0.16 KCAL/MOL
REMARK 924 INTRA-LIGAND FREE ENERGY PREDICTED BY IDOCK:   -0.31 KCAL/MOL
REMARK 927      BINDING AFFINITY PREDICTED BY RF-SCORE:    0.00 PKD
ROOT
HETATM    1  O   UNL     1      -7.287  19.162  71.539  1.00  0.00     2.643 OA 
HETATM    2  F   UNL     2     -10.335  18.550  69.749  1.00  0.00    -0.102 F  
HETATM    3  C   UNL     1      -6.776  19.141  70.424  1.00  0.00     0.413 C  
HETATM    4  C   UNL     2      -9.798  18.375  68.530  1.00  0.00    -0.376 C  
HETATM    5  N   UNL     1      -6.592  17.963  69.745  1.00  0.00    -0.076 N  
HETATM    6  H   UNL     1      -6.887  17.096  70.194  1.00  0.00     0.000 HD 
HETATM    7  C   UNL     1      -6.034  17.889  68.501  1.00  0.00    -0.183 C  
HETATM    8  C   UNL     2      -9.649  17.171  67.983  1.00  0.00    -0.267 C  
HETATM    9  C   UNL     1      -5.653  18.989  67.856  1.00  0.00    -0.187 C  
HETATM   10  N   UNL     2      -9.016  16.991  66.764  1.00  0.00    -0.233 N  
HETATM   11  O   UNL     2      -9.241  20.671  68.341  1.00  0.00     0.216 OA 
HETATM   12  C   UNL     1      -5.840  20.299  68.506  1.00  0.00    -0.270 C  
HETATM   13  C   UNL     2      -8.524  18.072  66.038  1.00  0.00    -0.008 C  
HETATM   14  O   UNL     1      -5.552  21.335  67.918  1.00  0.00    -0.301 OA 
HETATM   15  N   UNL     1      -6.359  20.265  69.772  1.00  0.00    -0.318 N  
HETATM   16  H   UNL     1      -6.441  21.153  70.269  1.00  0.00     0.000 HD 
HETATM   17  O   UNL     2      -7.841  17.968  65.023  1.00  0.00     0.943 OA 
HETATM   18  N   UNL     2      -8.796  19.314  66.565  1.00  0.00    -0.333 N  
HETATM   19  C   UNL     2      -9.284  19.560  67.824  1.00  0.00    -0.324 C  
HETATM   20  H   UNL     2      -8.619  20.122  65.968  1.00  0.00     0.000 HD 
ENDROOT
BRANCH  10  21
HETATM   21  C   UNL     2      -8.817  15.642  66.236  1.00  0.00    -0.329 C  
HETATM   22  C   UNL     2      -9.745  13.466  66.537  1.00  0.00    -0.284 C  
HETATM   23  C   UNL     2      -8.991  14.540  67.283  1.00  0.00    -0.220 C  
HETATM   24  C   UNL     2     -10.576  14.268  65.565  1.00  0.00    -0.340 C  
HETATM   25  O   UNL     2      -9.783  15.399  65.199  1.00  0.00    -0.221 OA 
ENDBRANCH  10  21
TORSDOF 1
ENDMDL
MODEL      156
REMARK 921   NORMALIZED FREE ENERGY PREDICTED BY IDOCK:    0.08 KCAL/MOL
REMARK 922        TOTAL FREE ENERGY PREDICTED BY IDOCK:   -0.26 KCAL/MOL
REMARK 923 INTER-LIGAND FREE ENERGY PREDICTED BY IDOCK:   -0.35 KCAL/MOL
REMARK 924 INTRA-LIGAND FREE ENERGY PREDICTED BY IDOCK:    0.09 KCAL/MOL
REMARK 927      BINDING AFFINITY PREDICTED BY RF-SCORE:    0.00 PKD
ROOT
HETATM    1  O   UNL     1      -8.389  16.597  68.513  1.00  0.00    -0.207 OA 
HETATM    2  F   UNL     2      -7.978  13.065  68.982  1.00  0.00    -0.039 F  
HETATM    3  C   UNL     1      -9.203  16.261  67.659  1.00  0.00    -0.206 C  
HETATM    4  C   UNL     2      -8.749  12.655  67.960  1.00  0.00    -0.190 C  
HETATM    5  N   UNL     1      -8.800  15.758  66.448  1.00  0.00    -0.311 N  
HETATM    6  H   UNL     1      -7.800  15.674  66.269  1.00  0.00     0.000 HD 
HETATM    7  C   UNL     1      -9.667  15.366  65.468  1.00  0.00    -0.283 C  
HETATM    8  C   UNL     2      -8.238  12.205  66.817  1.00  0.00    -0.085 C  
HETATM    9  C   UNL     1     -10.984  15.430  65.655  1.00  0.00    -0.330 C  
HETATM   10  N   UNL     2      -9.037  11.866  65.738  1.00  0.00    -0.108 N  
HETATM   11  O   UNL     2     -10.733  13.352  69.054  1.00  0.00    -0.214 OA 
HETATM   12  C   UNL     1     -11.499  15.936  66.940  1.00  0.00     0.249 C  
HETATM   13  C   UNL     2     -10.424  11.959  65.808  1.00  0.00    -0.256 C  
HETATM   14  O   UNL     1     -12.704  15.956  67.166  1.00  0.00     1.925 OA 
HETATM   15  N   UNL     1     -10.553  16.352  67.838  1.00  0.00    -0.310 N  
HETATM   16  H   UNL     1     -10.884  16.765  68.711  1.00  0.00     0.000 HD 
HETATM   17  O   UNL     2     -11.176  11.801  64.850  1.00  0.00    -0.309 OA 
HETATM   18  N   UNL     2     -10.934  12.310  67.038  1.00  0.00    -0.256 N  
HETATM   19  C   UNL     2     -10.209  12.794  68.097  1.00  0.00    -0.241 C  
HETATM   20  H   UNL     2     -11.940  12.201  67.173  1.00  0.00     0.000 HD 
ENDROOT
BRANCH  10  21
HETATM   21  C   UNL     2      -8.425  11.441  64.480  1.00  0.00     0.613 C  
HETATM   22  C   UNL     2      -6.809   9.850  63.745  1.00  0.00    -0.125 C  
HETATM   23  C   UNL     2      -6.944  11.081  64.608  1.00  0.00     0.717 C  
HETATM   24  C   UNL     2      -8.164   9.203  63.887  1.00  0.00    -0.172 C  
HETATM   25  O   UNL     2      -9.108  10.270  64.001  1.00  0.00    -0.206 OA 
ENDBRANCH  10  21
TORSDOF 1
ENDMDL
MODEL      157
REMARK 921   NORMALIZED FREE ENERGY PREDICTED BY IDOCK:    0.25 KCAL/MOL
REMARK 922        TOTAL FREE ENERGY PREDICTED BY IDOCK:   -0.08 KCAL/MOL
REMARK 923 INTER-LIGAND FREE ENERGY PREDICTED BY IDOCK:    0.06 KCAL/MOL
REMARK 924 INTRA-LIGAND FREE ENERGY PREDICTED BY IDOCK:   -0.14 KCAL/MOL
REMARK 927      BINDING AFFINITY PREDICTED BY RF-SCORE:    0.00 PKD
ROOT
HETATM    1  O   UNL     1      -9.607  14.798  65.378  1.00  0.00    -0.241 OA 
HETATM    2  F   UNL     2     -10.794  18.159  64.985  1.00  0.00    -0.313 F  
HETATM    3  C   UNL     1      -9.531  15.098  66.565  1.00  0.00    -0.283 C  
HETATM    4  C   UNL     2     -10.588  18.574  66.247  1.00  0.00    -0.330 C  
HETATM    5  N   UNL     1      -8.531  15.914  67.032  1.00  0.00    -0.197 N  
HETATM    6  H   UNL     1      -7.844  16.265  66.365  1.00  0.00     0.000 HD 
HETATM    7  C   UNL     1      -8.407  16.281  68.341  1.00  0.00    -0.190 C  
HETATM    8  C   UNL     2      -9.561  19.351  66.583  1.00  0.00    -0.355 C  
HETATM    9  C   UNL     1      -9.289  15.874  69.252  1.00  0.00    -0.259 C  
HETATM   10  N   UNL     2      -9.306  19.703  67.898  1.00  0.00    -0.328 N  
HETATM   11  O   UNL     2     -12.352  17.227  67.078  1.00  0.00     2.922 OA 
HETATM   12  C   UNL     1     -10.408  15.014  68.827  1.00  0.00    -0.240 C  
HETATM   13  C   UNL     2     -10.132  19.276  68.934  1.00  0.00    -0.362 C  
HETATM   14  O   UNL     1     -11.269  14.667  69.629  1.00  0.00    -0.260 OA 
HETATM   15  N   UNL     1     -10.417  14.659  67.505  1.00  0.00    -0.246 N  
HETATM   16  H   UNL     1     -11.146  14.014  67.197  1.00  0.00     0.000 HD 
HETATM   17  O   UNL     2      -9.887  19.443  70.126  1.00  0.00     0.312 OA 
HETATM   18  N   UNL     2     -11.253  18.575  68.549  1.00  0.00     0.292 N  
HETATM   19  C   UNL     2     -11.492  18.072  67.295  1.00  0.00     1.039 C  
HETATM   20  H   UNL     2     -11.969  18.416  69.259  1.00  0.00     0.000 HD 
ENDROOT
BRANCH  10  21
HETATM   21  C   UNL     2      -8.127  20.504  68.225  1.00  0.00     0.220 C  
HETATM   22  C   UNL     2      -5.758  20.238  68.255  1.00  0.00    -0.279 C  
HETATM   23  C   UNL     2      -7.012  19.707  68.905  1.00  0.00    -0.382 C  
HETATM   24  C   UNL     2      -6.235  20.590  66.867  1.00  0.00    -0.204 C  
HETATM   25  O   UNL     2      -7.581  21.048  67.011  1.00  0.00    -0.257 OA 
ENDBRANCH  10  21
TORSDOF 1
ENDMDL
MODEL      158
REMARK 921   NORMALIZED FREE ENERGY PREDICTED BY IDOCK:    0.60 KCAL/MOL
REMARK 922        TOTAL FREE ENERGY PREDICTED BY IDOCK:    0.30 KCAL/MOL
REMARK 923 INTER-LIGAND FREE ENERGY PREDICTED BY IDOCK:    0.09 KCAL/MOL
REMARK 924 INTRA-LIGAND FREE ENERGY PREDICTED BY IDOCK:    0.20 KCAL/MOL
REMARK 927      BINDING AFFINITY PREDICTED BY RF-SCORE:    0.00 PKD
ROOT
HETATM    1  O   UNL     1      -7.788  17.996  69.794  1.00  0.00     0.572 OA 
HETATM    2  F   UNL     2      -9.631  15.072  70.750  1.00  0.00     0.235 F  
HETATM    3  C   UNL     1      -8.159  17.706  68.661  1.00  0.00    -0.269 C  
HETATM    4  C   UNL     2      -9.937  14.637  69.515  1.00  0.00     0.058 C  
HETATM    5  N   UNL     1      -7.600  16.659  67.973  1.00  0.00    -0.163 N  
HETATM    6  H   UNL     1      -6.858  16.125  68.426  1.00  0.00     0.000 HD 
HETATM    7  C   UNL     1      -7.983  16.294  66.714  1.00  0.00    -0.271 C  
HETATM    8  C   UNL     2      -9.302  13.618  68.940  1.00  0.00     0.154 C  
HETATM    9  C   UNL     1      -8.963  16.938  66.084  1.00  0.00    -0.271 C  
HETATM   10  N   UNL     2      -9.563  13.233  67.635  1.00  0.00    -0.207 N  
HETATM   11  O   UNL     2     -11.455  16.423  69.160  1.00  0.00    -0.288 OA 
HETATM   12  C   UNL     1      -9.634  18.060  66.765  1.00  0.00    -0.303 C  
HETATM   13  C   UNL     2     -10.525  13.883  66.868  1.00  0.00    -0.276 C  
HETATM   14  O   UNL     1     -10.576  18.638  66.236  1.00  0.00    -0.413 OA 
HETATM   15  N   UNL     1      -9.144  18.382  68.003  1.00  0.00    -0.287 N  
HETATM   16  H   UNL     1      -9.549  19.194  68.470  1.00  0.00     0.000 HD 
HETATM   17  O   UNL     2     -10.708  13.676  65.671  1.00  0.00    -0.274 OA 
HETATM   18  N   UNL     2     -11.251  14.853  67.522  1.00  0.00    -0.318 N  
HETATM   19  C   UNL     2     -10.954  15.381  68.753  1.00  0.00    -0.264 C  
HETATM   20  H   UNL     2     -12.082  15.210  67.050  1.00  0.00     0.000 HD 
ENDROOT
BRANCH  10  21
HETATM   21  C   UNL     2      -8.792  12.150  67.025  1.00  0.00    -0.203 C  
HETATM   22  C   UNL     2      -6.809  11.901  65.725  1.00  0.00     1.525 C  
HETATM   23  C   UNL     2      -8.187  12.515  65.669  1.00  0.00     1.610 C  
HETATM   24  C   UNL     2      -6.473  11.991  67.194  1.00  0.00    -0.142 C  
HETATM   25  O   UNL     2      -7.703  11.803  67.898  1.00  0.00    -0.110 OA 
ENDBRANCH  10  21
TORSDOF 1
ENDMDL
MODEL      159
REMARK 921   NORMALIZED FREE ENERGY PREDICTED BY IDOCK:    1.14 KCAL/MOL
REMARK 922        TOTAL FREE ENERGY PREDICTED BY IDOCK:    0.87 KCAL/MOL
REMARK 923 INTER-LIGAND FREE ENERGY PREDICTED BY IDOCK:   -0.18 KCAL/MOL
REMARK 924 INTRA-LIGAND FREE ENERGY PREDICTED BY IDOCK:    1.05 KCAL/MOL
REMARK 927      BINDING AFFINITY PREDICTED BY RF-SCORE:    0.00 PKD
ROOT
HETATM    1  O   UNL     1      -8.377  12.105  65.947  1.00  0.00     0.301 OA 
HETATM    2  F   UNL     2      -9.239  15.174  64.301  1.00  0.00     1.650 F  
HETATM    3  C   UNL     1      -8.501  12.768  66.972  1.00  0.00    -0.153 C  
HETATM    4  C   UNL     2      -9.242  15.967  65.386  1.00  0.00     0.441 C  
HETATM    5  N   UNL     1      -7.552  13.684  67.349  1.00  0.00    -0.282 N  
HETATM    6  H   UNL     1      -6.731  13.800  66.755  1.00  0.00     0.000 HD 
HETATM    7  C   UNL     1      -7.647  14.448  68.477  1.00  0.00    -0.125 C  
HETATM    8  C   UNL     2      -8.244  16.805  65.659  1.00  0.00     0.751 C  
HETATM    9  C   UNL     1      -8.708  14.357  69.276  1.00  0.00     0.189 C  
HETATM   10  N   UNL     2      -8.213  17.556  66.823  1.00  0.00    -0.231 N  
HETATM   11  O   UNL     2     -11.217  14.965  66.231  1.00  0.00    -0.340 OA 
HETATM   12  C   UNL     1      -9.785  13.413  68.928  1.00  0.00     0.129 C  
HETATM   13  C   UNL     2      -9.244  17.486  67.756  1.00  0.00    -0.253 C  
HETATM   14  O   UNL     1     -10.800  13.345  69.612  1.00  0.00     0.030 OA 
HETATM   15  N   UNL     1      -9.574  12.656  67.808  1.00  0.00    -0.191 N  
HETATM   16  H   UNL     1     -10.276  11.951  67.579  1.00  0.00     0.000 HD 
HETATM   17  O   UNL     2      -9.212  18.021  68.861  1.00  0.00    -0.244 OA 
HETATM   18  N   UNL     2     -10.319  16.706  67.396  1.00  0.00    -0.288 N  
HETATM   19  C   UNL     2     -10.356  15.831  66.340  1.00  0.00    -0.299 C  
HETATM   20  H   UNL     2     -11.163  16.785  67.964  1.00  0.00     0.000 HD 
ENDROOT
BRANCH  10  21
HETATM   21  C   UNL     2      -7.063  18.412  67.110  1.00  0.00    -0.200 C  
HETATM   22  C   UNL     2      -6.546  20.739  67.126  1.00  0.00    -0.367 C  
HETATM   23  C   UNL     2      -6.957  19.629  66.189  1.00  0.00    -0.259 C  
HETATM   24  C   UNL     2      -7.205  20.333  68.421  1.00  0.00    -0.175 C  
HETATM   25  O   UNL     2      -7.172  18.904  68.456  1.00  0.00    -0.268 OA 
ENDBRANCH  10  21
TORSDOF 1
ENDMDL
MODEL      160
REMARK 921   NORMALIZED FREE ENERGY PREDICTED BY IDOCK:    3.94 KCAL/MOL
REMARK 922        TOTAL FREE ENERGY PREDICTED BY IDOCK:    3.83 KCAL/MOL
REMARK 923 INTER-LIGAND FREE ENERGY PREDICTED BY IDOCK:    2.99 KCAL/MOL
REMARK 924 INTRA-LIGAND FREE ENERGY PREDICTED BY IDOCK:    0.83 KCAL/MOL
REMARK 927      BINDING AFFINITY PREDICTED BY RF-SCORE:    0.00 PKD
ROOT
HETATM    1  O   UNL     1      -5.147  12.359  67.170  1.00  0.00    -0.245 OA 
HETATM    2  F   UNL     2      -8.551  12.033  66.089  1.00  0.00    -0.152 F  
HETATM    3  C   UNL     1      -5.585  13.276  67.856  1.00  0.00    -0.125 C  
HETATM    4  C   UNL     2      -9.044  13.119  66.710  1.00  0.00    -0.209 C  
HETATM    5  N   UNL     1      -5.927  14.483  67.301  1.00  0.00     0.312 N  
HETATM    6  H   UNL     1      -5.804  14.604  66.295  1.00  0.00     0.000 HD 
HETATM    7  C   UNL     1      -6.424  15.531  68.021  1.00  0.00    -0.135 C  
HETATM    8  C   UNL     2      -9.317  14.249  66.062  1.00  0.00    -0.109 C  
HETATM    9  C   UNL     1      -6.630  15.423  69.332  1.00  0.00    -0.155 C  
HETATM   10  N   UNL     2      -9.742  15.390  66.722  1.00  0.00    -0.232 N  
HETATM   11  O   UNL     2      -8.815  12.117  68.846  1.00  0.00     0.048 OA 
HETATM   12  C   UNL     1      -6.311  14.149  70.002  1.00  0.00    -0.135 C  
HETATM   13  C   UNL     2      -9.927  15.401  68.102  1.00  0.00    -0.221 C  
HETATM   14  O   UNL     1      -6.541  13.997  71.197  1.00  0.00     0.138 OA 
HETATM   15  N   UNL     1      -5.771  13.177  69.204  1.00  0.00    -0.073 N  
HETATM   16  H   UNL     1      -5.483  12.307  69.655  1.00  0.00     0.000 HD 
HETATM   17  O   UNL     2     -10.173  16.410  68.757  1.00  0.00    -0.230 OA 
HETATM   18  N   UNL     2      -9.756  14.189  68.733  1.00  0.00    -0.349 N  
HETATM   19  C   UNL     2      -9.202  13.066  68.173  1.00  0.00    -0.212 C  
HETATM   20  H   UNL     2     -10.067  14.121  69.702  1.00  0.00     0.000 HD 
ENDROOT
BRANCH  10  21
HETATM   21  C   UNL     2      -9.964  16.627  65.975  1.00  0.00    -0.324 C  
HETATM   22  C   UNL     2     -11.766  17.728  64.867  1.00  0.00     2.899 C  
HETATM   23  C   UNL     2     -10.934  16.471  64.802  1.00  0.00    -0.192 C  
HETATM   24  C   UNL     2     -11.791  18.025  66.347  1.00  0.00     3.023 C  
HETATM   25  O   UNL     2     -10.522  17.613  66.860  1.00  0.00    -0.329 OA 
ENDBRANCH  10  21
TORSDOF 1
ENDMDL
MODEL      161
REMARK 921   NORMALIZED FREE ENERGY PREDICTED BY IDOCK:    5.18 KCAL/MOL
REMARK 922        TOTAL FREE ENERGY PREDICTED BY IDOCK:    5.14 KCAL/MOL
REMARK 923 INTER-LIGAND FREE ENERGY PREDICTED BY IDOCK:    4.67 KCAL/MOL
REMARK 924 INTRA-LIGAND FREE ENERGY PREDICTED BY IDOCK:    0.47 KCAL/MOL
REMARK 927      BINDING AFFINITY PREDICTED BY RF-SCORE:    0.00 PKD
ROOT
HETATM    1  O   UNL     1     -10.270  13.599  65.240  1.00  0.00    -0.326 OA 
HETATM    2  F   UNL     2     -13.035  12.427  67.201  1.00  0.00     1.073 F  
HETATM    3  C   UNL     1      -9.747  13.806  66.330  1.00  0.00    -0.294 C  
HETATM    4  C   UNL     2     -12.560  12.773  68.410  1.00  0.00     0.952 C  
HETATM    5  N   UNL     1     -10.133  14.862  67.117  1.00  0.00    -0.238 N  
HETATM    6  H   UNL     1     -10.867  15.479  66.770  1.00  0.00     0.000 HD 
HETATM    7  C   UNL     1      -9.587  15.131  68.340  1.00  0.00    -0.212 C  
HETATM    8  C   UNL     2     -13.001  13.841  69.070  1.00  0.00     1.489 C  
HETATM    9  C   UNL     1      -8.643  14.345  68.854  1.00  0.00    -0.064 C  
HETATM   10  N   UNL     2     -12.446  14.241  70.275  1.00  0.00    -0.356 N  
HETATM   11  O   UNL     2     -10.894  11.088  68.343  1.00  0.00    -0.190 OA 
HETATM   12  C   UNL     1      -8.190  13.174  68.082  1.00  0.00    -0.160 C  
HETATM   13  C   UNL     2     -11.410  13.524  70.867  1.00  0.00     1.091 C  
HETATM   14  O   UNL     1      -7.363  12.399  68.550  1.00  0.00    -0.096 OA 
HETATM   15  N   UNL     1      -8.760  13.018  66.847  1.00  0.00    -0.344 N  
HETATM   16  H   UNL     1      -8.420  12.251  66.266  1.00  0.00     0.000 HD 
HETATM   17  O   UNL     2     -10.792  13.898  71.860  1.00  0.00     2.818 OA 
HETATM   18  N   UNL     2     -11.054  12.358  70.228  1.00  0.00     0.035 N  
HETATM   19  C   UNL     2     -11.454  11.979  68.971  1.00  0.00    -0.300 C  
HETATM   20  H   UNL     2     -10.438  11.720  70.733  1.00  0.00     0.000 HD 
ENDROOT
BRANCH  10  21
HETATM   21  C   UNL     2     -12.919  15.460  70.929  1.00  0.00    -0.478 C  
HETATM   22  C   UNL     2     -12.534  16.645  72.962  1.00  0.00    -0.073 C  
HETATM   23  C   UNL     2     -13.062  15.328  72.446  1.00  0.00    -0.485 C  
HETATM   24  C   UNL     2     -11.488  17.000  71.934  1.00  0.00     0.764 C  
HETATM   25  O   UNL     2     -11.978  16.518  70.680  1.00  0.00     0.065 OA 
ENDBRANCH  10  21
TORSDOF 1
ENDMDL
MODEL      162
REMARK 921   NORMALIZED FREE ENERGY PREDICTED BY IDOCK:    8.19 KCAL/MOL
REMARK 922        TOTAL FREE ENERGY PREDICTED BY IDOCK:    8.33 KCAL/MOL
REMARK 923 INTER-LIGAND FREE ENERGY PREDICTED BY IDOCK:    7.26 KCAL/MOL
REMARK 924 INTRA-LIGAND FREE ENERGY PREDICTED BY IDOCK:    1.07 KCAL/MOL
REMARK 927      BINDING AFFINITY PREDICTED BY RF-SCORE:    0.00 PKD
ROOT
HETATM    1  O   UNL     1     -11.804  13.505  63.841  1.00  0.00    -0.431 OA 
HETATM    2  F   UNL     2      -9.728  16.153  65.082  1.00  0.00    -0.193 F  
HETATM    3  C   UNL     1     -11.814  13.135  65.010  1.00  0.00    -0.354 C  
HETATM    4  C   UNL     2      -9.592  15.704  66.341  1.00  0.00    -0.290 C  
HETATM    5  N   UNL     1     -10.720  12.531  65.577  1.00  0.00    -0.265 N  
HETATM    6  H   UNL     1      -9.893  12.390  64.997  1.00  0.00     0.000 HD 
HETATM    7  C   UNL     1     -10.681  12.107  66.874  1.00  0.00    -0.236 C  
HETATM    8  C   UNL     2      -8.482  15.108  66.770  1.00  0.00    -0.237 C  
HETATM    9  C   UNL     1     -11.722  12.287  67.685  1.00  0.00    -0.403 C  
HETATM   10  N   UNL     2      -8.382  14.570  68.042  1.00  0.00    -0.144 N  
HETATM   11  O   UNL     2     -11.853  16.191  66.859  1.00  0.00     0.609 OA 
HETATM   12  C   UNL     1     -12.928  12.952  67.160  1.00  0.00     2.428 C  
HETATM   13  C   UNL     2      -9.438  14.649  68.946  1.00  0.00    -0.173 C  
HETATM   14  O   UNL     1     -13.883  13.184  67.893  1.00  0.00     6.047 OA 
HETATM   15  N   UNL     1     -12.890  13.294  65.834  1.00  0.00    -0.151 N  
HETATM   16  H   UNL     1     -13.735  13.699  65.430  1.00  0.00     0.000 HD 
HETATM   17  O   UNL     2      -9.459  14.080  70.034  1.00  0.00     1.184 OA 
HETATM   18  N   UNL     2     -10.529  15.374  68.522  1.00  0.00    -0.230 N  
HETATM   19  C   UNL     2     -10.754  15.805  67.240  1.00  0.00    -0.313 C  
HETATM   20  H   UNL     2     -11.232  15.609  69.224  1.00  0.00     0.000 HD 
ENDROOT
BRANCH  10  21
HETATM   21  C   UNL     2      -7.165  13.866  68.444  1.00  0.00    -0.110 C  
HETATM   22  C   UNL     2      -5.316  14.218  69.909  1.00  0.00    -0.095 C  
HETATM   23  C   UNL     2      -5.967  14.790  68.673  1.00  0.00    -0.089 C  
HETATM   24  C   UNL     2      -6.495  13.656  70.667  1.00  0.00     0.282 C  
HETATM   25  O   UNL     2      -7.412  13.176  69.681  1.00  0.00     0.422 OA 
ENDBRANCH  10  21
TORSDOF 1
ENDMDL
MODEL      163
REMARK 921   NORMALIZED FREE ENERGY PREDICTED BY IDOCK:   10.05 KCAL/MOL
REMARK 922        TOTAL FREE ENERGY PREDICTED BY IDOCK:   10.30 KCAL/MOL
REMARK 923 INTER-LIGAND FREE ENERGY PREDICTED BY IDOCK:   10.38 KCAL/MOL
REMARK 924 INTRA-LIGAND FREE ENERGY PREDICTED BY IDOCK:   -0.08 KCAL/MOL
REMARK 927      BINDING AFFINITY PREDICTED BY RF-SCORE:    0.00 PKD
ROOT
HETATM    1  O   UNL     1     -12.161   9.447  71.097  1.00  0.00    -0.300 OA 
HETATM    2  F   UNL     2      -9.152  10.940  72.355  1.00  0.00     7.973 F  
HETATM    3  C   UNL     1     -11.399   8.607  70.630  1.00  0.00    -0.247 C  
HETATM    4  C   UNL     2      -8.275  10.128  71.740  1.00  0.00     3.703 C  
HETATM    5  N   UNL     1     -10.621   8.881  69.534  1.00  0.00    -0.232 N  
HETATM    6  H   UNL     1     -10.694   9.806  69.109  1.00  0.00     0.000 HD 
HETATM    7  C   UNL     1      -9.754   7.982  68.981  1.00  0.00    -0.159 C  
HETATM    8  C   UNL     2      -7.591  10.502  70.662  1.00  0.00     1.161 C  
HETATM    9  C   UNL     1      -9.598   6.769  69.508  1.00  0.00    -0.148 C  
HETATM   10  N   UNL     2      -6.755   9.631  69.983  1.00  0.00    -0.067 N  
HETATM   11  O   UNL     2      -8.861   8.294  73.123  1.00  0.00    -0.234 OA 
HETATM   12  C   UNL     1     -10.380   6.405  70.703  1.00  0.00    -0.198 C  
HETATM   13  C   UNL     2      -6.572   8.320  70.415  1.00  0.00    -0.036 C  
HETATM   14  O   UNL     1     -10.220   5.318  71.246  1.00  0.00    -0.206 OA 
HETATM   15  N   UNL     1     -11.259   7.354  71.152  1.00  0.00    -0.253 N  
HETATM   16  H   UNL     1     -11.857   7.104  71.940  1.00  0.00     0.000 HD 
HETATM   17  O   UNL     2      -5.953   7.466  69.787  1.00  0.00    -0.023 OA 
HETATM   18  N   UNL     2      -7.194   7.993  71.599  1.00  0.00    -0.068 N  
HETATM   19  C   UNL     2      -8.142   8.749  72.241  1.00  0.00     0.085 C  
HETATM   20  H   UNL     2      -6.928   7.111  72.037  1.00  0.00     0.000 HD 
ENDROOT
BRANCH  10  21
HETATM   21  C   UNL     2      -6.077  10.069  68.764  1.00  0.00    -0.040 C  
HETATM   22  C   UNL     2      -6.631  10.500  66.485  1.00  0.00    -0.100 C  
HETATM   23  C   UNL     2      -6.585   9.380  67.496  1.00  0.00    -0.064 C  
HETATM   24  C   UNL     2      -6.945  11.700  67.344  1.00  0.00    -0.117 C  
HETATM   25  O   UNL     2      -6.287  11.481  68.595  1.00  0.00    -0.050 OA 
ENDBRANCH  10  21
TORSDOF 1
ENDMDL
MODEL      164
REMARK 921   NORMALIZED FREE ENERGY PREDICTED BY IDOCK:   11.63 KCAL/MOL
REMARK 922        TOTAL FREE ENERGY PREDICTED BY IDOCK:   11.97 KCAL/MOL
REMARK 923 INTER-LIGAND FREE ENERGY PREDICTED BY IDOCK:   12.27 KCAL/MOL
REMARK 924 INTRA-LIGAND FREE ENERGY PREDICTED BY IDOCK:   -0.30 KCAL/MOL
REMARK 927      BINDING AFFINITY PREDICTED BY RF-SCORE:    0.00 PKD
ROOT
HETATM    1  O   UNL     1      -7.453  19.113  73.185  1.00  0.00     3.649 OA 
HETATM    2  F   UNL     2     -10.024  17.881  71.008  1.00  0.00     2.123 F  
HETATM    3  C   UNL     1      -6.736  18.996  72.197  1.00  0.00     2.587 C  
HETATM    4  C   UNL     2      -9.246  17.600  69.948  1.00  0.00     1.452 C  
HETATM    5  N   UNL     1      -6.313  17.764  71.764  1.00  0.00     2.598 N  
HETATM    6  H   UNL     1      -6.607  16.941  72.289  1.00  0.00     0.000 HD 
HETATM    7  C   UNL     1      -5.519  17.582  70.668  1.00  0.00    -0.193 C  
HETATM    8  C   UNL     2      -8.881  16.358  69.641  1.00  0.00     0.362 C  
HETATM    9  C   UNL     1      -5.125  18.618  69.929  1.00  0.00    -0.193 C  
HETATM   10  N   UNL     2      -8.009  16.084  68.600  1.00  0.00    -0.162 N  
HETATM   11  O   UNL     2      -8.881  19.896  69.488  1.00  0.00     0.101 OA 
HETATM   12  C   UNL     1      -5.558  19.974  70.313  1.00  0.00    -0.280 C  
HETATM   13  C   UNL     2      -7.489  17.103  67.806  1.00  0.00    -0.174 C  
HETATM   14  O   UNL     1      -5.260  20.943  69.624  1.00  0.00    -0.330 OA 
HETATM   15  N   UNL     1      -6.308  20.058  71.455  1.00  0.00    -0.255 N  
HETATM   16  H   UNL     1      -6.568  20.991  71.777  1.00  0.00     0.000 HD 
HETATM   17  O   UNL     2      -6.615  16.940  66.959  1.00  0.00    -0.166 OA 
HETATM   18  N   UNL     2      -7.975  18.365  68.066  1.00  0.00    -0.268 N  
HETATM   19  C   UNL     2      -8.719  18.727  69.161  1.00  0.00     0.023 C  
HETATM   20  H   UNL     2      -7.762  19.095  67.386  1.00  0.00     0.000 HD 
ENDROOT
BRANCH  10  21
HETATM   21  C   UNL     2      -7.585  14.709  68.344  1.00  0.00    -0.119 C  
HETATM   22  C   UNL     2      -6.738  12.856  69.583  1.00  0.00     0.091 C  
HETATM   23  C   UNL     2      -6.385  14.268  69.185  1.00  0.00    -0.104 C  
HETATM   24  C   UNL     2      -8.243  12.909  69.669  1.00  0.00     1.672 C  
HETATM   25  O   UNL     2      -8.671  13.820  68.654  1.00  0.00    -0.147 OA 
ENDBRANCH  10  21
TORSDOF 1
ENDMDL
MODEL      165
REMARK 921   NORMALIZED FREE ENERGY PREDICTED BY IDOCK:   12.80 KCAL/MOL
REMARK 922        TOTAL FREE ENERGY PREDICTED BY IDOCK:   13.21 KCAL/MOL
REMARK 923 INTER-LIGAND FREE ENERGY PREDICTED BY IDOCK:   12.14 KCAL/MOL
REMARK 924 INTRA-LIGAND FREE ENERGY PREDICTED BY IDOCK:    1.07 KCAL/MOL
REMARK 927      BINDING AFFINITY PREDICTED BY RF-SCORE:    0.00 PKD
ROOT
HETATM    1  O   UNL     1     -11.833  13.578  63.718  1.00  0.00    -0.427 OA 
HETATM    2  F   UNL     2      -9.700  16.452  63.482  1.00  0.00     4.942 F  
HETATM    3  C   UNL     1     -11.804  13.812  64.922  1.00  0.00    -0.375 C  
HETATM    4  C   UNL     2      -9.523  16.656  64.799  1.00  0.00     2.754 C  
HETATM    5  N   UNL     1     -10.695  13.529  65.678  1.00  0.00    -0.277 N  
HETATM    6  H   UNL     1      -9.889  13.110  65.214  1.00  0.00     0.000 HD 
HETATM    7  C   UNL     1     -10.613  13.777  67.018  1.00  0.00    -0.278 C  
HETATM    8  C   UNL     2      -8.402  16.314  65.429  1.00  0.00     1.955 C  
HETATM    9  C   UNL     1     -11.624  14.344  67.672  1.00  0.00    -0.396 C  
HETATM   10  N   UNL     2      -8.261  16.448  66.800  1.00  0.00    -0.222 N  
HETATM   11  O   UNL     2     -11.762  17.380  65.083  1.00  0.00     0.752 OA 
HETATM   12  C   UNL     1     -12.844  14.703  66.926  1.00  0.00     1.151 C  
HETATM   13  C   UNL     2      -9.284  16.972  67.585  1.00  0.00    -0.233 C  
HETATM   14  O   UNL     1     -13.771  15.278  67.486  1.00  0.00     4.808 OA 
HETATM   15  N   UNL     1     -12.850  14.369  65.599  1.00  0.00    -0.399 N  
HETATM   16  H   UNL     1     -13.706  14.550  65.074  1.00  0.00     0.000 HD 
HETATM   17  O   UNL     2      -9.271  16.993  68.813  1.00  0.00    -0.261 OA 
HETATM   18  N   UNL     2     -10.385  17.429  66.897  1.00  0.00    -0.326 N  
HETATM   19  C   UNL     2     -10.653  17.200  65.571  1.00  0.00    -0.150 C  
HETATM   20  H   UNL     2     -11.062  17.987  67.419  1.00  0.00     0.000 HD 
ENDROOT
BRANCH  10  21
HETATM   21  C   UNL     2      -7.034  15.996  67.456  1.00  0.00    -0.176 C  
HETATM   22  C   UNL     2      -5.142  16.965  68.536  1.00  0.00    -0.118 C  
HETATM   23  C   UNL     2      -5.828  16.899  67.193  1.00  0.00    -0.208 C  
HETATM   24  C   UNL     2      -6.299  16.846  69.498  1.00  0.00    -0.233 C  
HETATM   25  O   UNL     2      -7.247  15.973  68.878  1.00  0.00    -0.145 OA 
ENDBRANCH  10  21
TORSDOF 1
ENDMDL
MODEL      166
REMARK 921   NORMALIZED FREE ENERGY PREDICTED BY IDOCK:   16.41 KCAL/MOL
REMARK 922        TOTAL FREE ENERGY PREDICTED BY IDOCK:   17.03 KCAL/MOL
REMARK 923 INTER-LIGAND FREE ENERGY PREDICTED BY IDOCK:   17.31 KCAL/MOL
REMARK 924 INTRA-LIGAND FREE ENERGY PREDICTED BY IDOCK:   -0.28 KCAL/MOL
REMARK 927      BINDING AFFINITY PREDICTED BY RF-SCORE:    0.00 PKD
ROOT
HETATM    1  O   UNL     1      -8.141  20.829  72.666  1.00  0.00     1.739 OA 
HETATM    2  F   UNL     2      -5.643  19.172  70.696  1.00  0.00    -0.214 F  
HETATM    3  C   UNL     1      -8.914  20.404  71.814  1.00  0.00     2.372 C  
HETATM    4  C   UNL     2      -6.431  18.813  69.668  1.00  0.00    -0.188 C  
HETATM    5  N   UNL     1      -8.978  20.965  70.564  1.00  0.00     2.132 N  
HETATM    6  H   UNL     1      -8.366  21.755  70.358  1.00  0.00     0.000 HD 
HETATM    7  C   UNL     1      -9.817  20.524  69.581  1.00  0.00     0.674 C  
HETATM    8  C   UNL     2      -6.419  19.455  68.502  1.00  0.00    -0.254 C  
HETATM    9  C   UNL     1     -10.620  19.482  69.784  1.00  0.00     0.896 C  
HETATM   10  N   UNL     2      -7.295  19.134  67.478  1.00  0.00    -0.225 N  
HETATM   11  O   UNL     2      -7.571  17.202  70.981  1.00  0.00     4.296 OA 
HETATM   12  C   UNL     1     -10.595  18.806  71.094  1.00  0.00     2.886 C  
HETATM   13  C   UNL     2      -8.219  18.101  67.614  1.00  0.00    -0.242 C  
HETATM   14  O   UNL     1     -11.280  17.810  71.296  1.00  0.00     1.463 OA 
HETATM   15  N   UNL     1      -9.758  19.353  72.029  1.00  0.00     2.919 N  
HETATM   16  H   UNL     1      -9.767  18.943  72.964  1.00  0.00     0.000 HD 
HETATM   17  O   UNL     2      -9.104  17.856  66.799  1.00  0.00    -0.253 OA 
HETATM   18  N   UNL     2      -8.130  17.375  68.780  1.00  0.00    -0.261 N  
HETATM   19  C   UNL     2      -7.395  17.721  69.885  1.00  0.00     0.941 C  
HETATM   20  H   UNL     2      -8.658  16.503  68.826  1.00  0.00     0.000 HD 
ENDROOT
BRANCH  10  21
HETATM   21  C   UNL     2      -7.289  19.912  66.241  1.00  0.00    -0.288 C  
HETATM   22  C   UNL     2      -5.764  21.269  65.008  1.00  0.00    -0.169 C  
HETATM   23  C   UNL     2      -6.482  21.209  66.334  1.00  0.00    -0.280 C  
HETATM   24  C   UNL     2      -5.558  19.809  64.684  1.00  0.00    -0.201 C  
HETATM   25  O   UNL     2      -6.702  19.120  65.194  1.00  0.00    -0.431 OA 
ENDBRANCH  10  21
TORSDOF 1
ENDMDL
MODEL      167
REMARK 921   NORMALIZED FREE ENERGY PREDICTED BY IDOCK:   17.28 KCAL/MOL
REMARK 922        TOTAL FREE ENERGY PREDICTED BY IDOCK:   17.95 KCAL/MOL
REMARK 923 INTER-LIGAND FREE ENERGY PREDICTED BY IDOCK:   17.79 KCAL/MOL
REMARK 924 INTRA-LIGAND FREE ENERGY PREDICTED BY IDOCK:    0.15 KCAL/MOL
REMARK 927      BINDING AFFINITY PREDICTED BY RF-SCORE:    0.00 PKD
ROOT
HETATM    1  O   UNL     1      -9.701  13.418  72.352  1.00  0.00    10.801 OA 
HETATM    2  F   UNL     2      -7.598  14.677  69.735  1.00  0.00    -0.142 F  
HETATM    3  C   UNL     1     -10.497  13.213  71.442  1.00  0.00     6.880 C  
HETATM    4  C   UNL     2      -8.491  14.606  68.733  1.00  0.00    -0.161 C  
HETATM    5  N   UNL     1     -11.191  14.242  70.855  1.00  0.00    -0.431 N  
HETATM    6  H   UNL     1     -11.032  15.189  71.200  1.00  0.00     0.000 HD 
HETATM    7  C   UNL     1     -12.082  14.066  69.836  1.00  0.00    -0.345 C  
HETATM    8  C   UNL     2      -9.121  15.680  68.262  1.00  0.00    -0.187 C  
HETATM    9  C   UNL     1     -12.311  12.856  69.330  1.00  0.00     0.045 C  
HETATM   10  N   UNL     2     -10.103  15.587  67.290  1.00  0.00    -0.246 N  
HETATM   11  O   UNL     2      -8.417  12.237  68.708  1.00  0.00    -0.037 OA 
HETATM   12  C   UNL     1     -11.587  11.699  69.888  1.00  0.00    -0.288 C  
HETATM   13  C   UNL     2     -10.463  14.360  66.739  1.00  0.00    -0.273 C  
HETATM   14  O   UNL     1     -11.733  10.581  69.408  1.00  0.00    -0.260 OA 
HETATM   15  N   UNL     1     -10.754  11.970  70.940  1.00  0.00     2.565 N  
HETATM   16  H   UNL     1     -10.288  11.179  71.385  1.00  0.00     0.000 HD 
HETATM   17  O   UNL     2     -11.411  14.197  65.976  1.00  0.00    -0.318 OA 
HETATM   18  N   UNL     2      -9.715  13.281  67.155  1.00  0.00    -0.230 N  
HETATM   19  C   UNL     2      -8.836  13.274  68.208  1.00  0.00    -0.168 C  
HETATM   20  H   UNL     2      -9.825  12.411  66.634  1.00  0.00     0.000 HD 
ENDROOT
BRANCH  10  21
HETATM   21  C   UNL     2     -10.814  16.788  66.852  1.00  0.00    -0.033 C  
HETATM   22  C   UNL     2     -10.283  18.939  65.971  1.00  0.00    -0.437 C  
HETATM   23  C   UNL     2     -10.095  18.091  67.206  1.00  0.00    -0.346 C  
HETATM   24  C   UNL     2     -10.315  17.907  64.870  1.00  0.00     1.686 C  
HETATM   25  O   UNL     2     -10.952  16.753  65.421  1.00  0.00    -0.283 OA 
ENDBRANCH  10  21
TORSDOF 1
ENDMDL
MODEL      168
REMARK 921   NORMALIZED FREE ENERGY PREDICTED BY IDOCK:   18.14 KCAL/MOL
REMARK 922        TOTAL FREE ENERGY PREDICTED BY IDOCK:   18.86 KCAL/MOL
REMARK 923 INTER-LIGAND FREE ENERGY PREDICTED BY IDOCK:   19.16 KCAL/MOL
REMARK 924 INTRA-LIGAND FREE ENERGY PREDICTED BY IDOCK:   -0.31 KCAL/MOL
REMARK 927      BINDING AFFINITY PREDICTED BY RF-SCORE:    0.00 PKD
ROOT
HETATM    1  O   UNL     1      -8.717  19.357  68.762  1.00  0.00    -0.364 OA 
HETATM    2  F   UNL     2      -9.480  17.053  71.403  1.00  0.00     4.074 F  
HETATM    3  C   UNL     1      -9.581  18.741  68.146  1.00  0.00    -0.332 C  
HETATM    4  C   UNL     2     -10.325  16.263  70.717  1.00  0.00     0.861 C  
HETATM    5  N   UNL     1      -9.342  17.488  67.642  1.00  0.00    -0.242 N  
HETATM    6  H   UNL     1      -8.420  17.077  67.787  1.00  0.00     0.000 HD 
HETATM    7  C   UNL     1     -10.272  16.761  66.955  1.00  0.00    -0.292 C  
HETATM    8  C   UNL     2      -9.967  15.068  70.256  1.00  0.00     0.247 C  
HETATM    9  C   UNL     1     -11.500  17.236  66.757  1.00  0.00     1.126 C  
HETATM   10  N   UNL     2     -10.814  14.298  69.476  1.00  0.00    -0.171 N  
HETATM   11  O   UNL     2     -11.995  17.944  70.654  1.00  0.00     4.440 OA 
HETATM   12  C   UNL     1     -11.846  18.566  67.289  1.00  0.00     2.261 C  
HETATM   13  C   UNL     2     -12.098  14.732  69.157  1.00  0.00    -0.243 C  
HETATM   14  O   UNL     1     -12.983  19.009  67.173  1.00  0.00     4.995 OA 
HETATM   15  N   UNL     1     -10.831  19.238  67.917  1.00  0.00    -0.354 N  
HETATM   16  H   UNL     1     -11.026  20.186  68.241  1.00  0.00     0.000 HD 
HETATM   17  O   UNL     2     -12.843  14.160  68.366  1.00  0.00     0.604 OA 
HETATM   18  N   UNL     2     -12.488  15.914  69.745  1.00  0.00    -0.463 N  
HETATM   19  C   UNL     2     -11.663  16.792  70.402  1.00  0.00     0.809 C  
HETATM   20  H   UNL     2     -13.476  16.159  69.686  1.00  0.00     0.000 HD 
ENDROOT
BRANCH  10  21
HETATM   21  C   UNL     2     -10.351  13.020  68.936  1.00  0.00    -0.045 C  
HETATM   22  C   UNL     2      -8.442  12.169  67.789  1.00  0.00    -0.160 C  
HETATM   23  C   UNL     2      -9.575  13.153  67.624  1.00  0.00    -0.210 C  
HETATM   24  C   UNL     2      -8.195  12.204  69.278  1.00  0.00     0.642 C  
HETATM   25  O   UNL     2      -9.472  12.401  69.890  1.00  0.00     1.976 OA 
ENDBRANCH  10  21
TORSDOF 1
ENDMDL
MODEL      169
REMARK 921   NORMALIZED FREE ENERGY PREDICTED BY IDOCK:   28.77 KCAL/MOL
REMARK 922        TOTAL FREE ENERGY PREDICTED BY IDOCK:   30.11 KCAL/MOL
REMARK 923 INTER-LIGAND FREE ENERGY PREDICTED BY IDOCK:   30.10 KCAL/MOL
REMARK 924 INTRA-LIGAND FREE ENERGY PREDICTED BY IDOCK:    0.01 KCAL/MOL
REMARK 927      BINDING AFFINITY PREDICTED BY RF-SCORE:    0.00 PKD
ROOT
HETATM    1  O   UNL     1     -10.604  17.484  66.199  1.00  0.00    -0.313 OA 
HETATM    2  F   UNL     2     -11.129  17.374  69.746  1.00  0.00     0.010 F  
HETATM    3  C   UNL     1      -9.541  16.935  66.467  1.00  0.00    -0.278 C  
HETATM    4  C   UNL     2      -9.917  16.907  70.095  1.00  0.00     0.865 C  
HETATM    5  N   UNL     1      -8.500  17.629  67.030  1.00  0.00    -0.229 N  
HETATM    6  H   UNL     1      -8.629  18.623  67.218  1.00  0.00     0.000 HD 
HETATM    7  C   UNL     1      -7.300  17.061  67.351  1.00  0.00    -0.158 C  
HETATM    8  C   UNL     2      -8.975  17.690  70.614  1.00  0.00     4.718 C  
HETATM    9  C   UNL     1      -7.083  15.763  67.150  1.00  0.00    -0.225 C  
HETATM   10  N   UNL     2      -7.701  17.222  70.890  1.00  0.00     4.657 N  
HETATM   11  O   UNL     2     -10.373  14.768  69.181  1.00  0.00    -0.235 OA 
HETATM   12  C   UNL     1      -8.161  14.940  66.572  1.00  0.00     0.350 C  
HETATM   13  C   UNL     2      -7.352  15.894  70.657  1.00  0.00     1.730 C  
HETATM   14  O   UNL     1      -8.014  13.732  66.426  1.00  0.00     0.697 OA 
HETATM   15  N   UNL     1      -9.307  15.610  66.237  1.00  0.00    -0.295 N  
HETATM   16  H   UNL     1     -10.045  15.076  65.777  1.00  0.00     0.000 HD 
HETATM   17  O   UNL     2      -6.211  15.453  70.756  1.00  0.00     0.058 OA 
HETATM   18  N   UNL     2      -8.377  15.077  70.234  1.00  0.00    -0.004 N  
HETATM   19  C   UNL     2      -9.611  15.496  69.806  1.00  0.00    -0.200 C  
HETATM   20  H   UNL     2      -8.202  14.072  70.238  1.00  0.00     0.000 HD 
ENDROOT
BRANCH  10  21
HETATM   21  C   UNL     2      -6.680  18.137  71.398  1.00  0.00     3.403 C  
HETATM   22  C   UNL     2      -6.487  19.825  73.071  1.00  0.00     3.400 C  
HETATM   23  C   UNL     2      -7.226  19.510  71.793  1.00  0.00     2.247 C  
HETATM   24  C   UNL     2      -6.277  18.456  73.671  1.00  0.00     7.899 C  
HETATM   25  O   UNL     2      -6.081  17.563  72.572  1.00  0.00     2.006 OA 
ENDBRANCH  10  21
TORSDOF 1
ENDMDL
