MODEL        1
REMARK 921   NORMALIZED FREE ENERGY PREDICTED BY IDOCK:   -5.98 KCAL/MOL
REMARK 922        TOTAL FREE ENERGY PREDICTED BY IDOCK:   -6.52 KCAL/MOL
REMARK 923 INTER-LIGAND FREE ENERGY PREDICTED BY IDOCK:   -6.33 KCAL/MOL
REMARK 924 INTRA-LIGAND FREE ENERGY PREDICTED BY IDOCK:   -0.19 KCAL/MOL
REMARK 927      BINDING AFFINITY PREDICTED BY RF-SCORE:    0.00 PKD
ROOT
HETATM    1  F   UNL     1     -12.106  12.681  67.422  1.00  0.00    -0.418 F  
HETATM    2  C   UNL     1     -11.886  13.679  66.547  1.00  0.00    -0.404 C  
HETATM    3  C   UNL     1     -11.195  14.774  66.867  1.00  0.00    -0.347 C  
HETATM    4  N   UNL     1     -10.982  15.791  65.952  1.00  0.00    -0.246 N  
HETATM    5  C   UNL     1     -11.512  15.738  64.666  1.00  0.00    -0.282 C  
HETATM    6  O   UNL     1     -13.100  12.560  64.841  1.00  0.00    -0.833 OA 
HETATM    7  O   UNL     1     -11.412  16.643  63.842  1.00  0.00    -1.186 OA 
HETATM    8  H   UNL     1     -12.532  14.503  63.391  1.00  0.00     0.000 HD 
HETATM    9  N   UNL     1     -12.188  14.586  64.348  1.00  0.00    -0.488 N  
HETATM   10  C   UNL     1     -12.446  13.536  65.189  1.00  0.00    -0.451 C  
ENDROOT
BRANCH   4  11
HETATM   11  C   UNL     1     -10.230  16.985  66.306  1.00  0.00    -0.329 C  
HETATM   12  C   UNL     1     -10.198  17.271  67.800  1.00  0.00    -0.332 C  
HETATM   13  C   UNL     1      -8.995  18.177  67.894  1.00  0.00    -0.273 C  
HETATM   14  C   UNL     1      -8.052  17.572  66.873  1.00  0.00    -0.227 C  
HETATM   15  O   UNL     1      -8.853  16.878  65.904  1.00  0.00    -0.516 OA 
ENDBRANCH   4  11
TORSDOF 1
ENDMDL
MODEL        2
REMARK 921   NORMALIZED FREE ENERGY PREDICTED BY IDOCK:   -5.92 KCAL/MOL
REMARK 922        TOTAL FREE ENERGY PREDICTED BY IDOCK:   -6.46 KCAL/MOL
REMARK 923 INTER-LIGAND FREE ENERGY PREDICTED BY IDOCK:   -6.26 KCAL/MOL
REMARK 924 INTRA-LIGAND FREE ENERGY PREDICTED BY IDOCK:   -0.20 KCAL/MOL
REMARK 927      BINDING AFFINITY PREDICTED BY RF-SCORE:    0.00 PKD
ROOT
HETATM    1  F   UNL     1      -9.138  16.075  65.796  1.00  0.00    -0.347 F  
HETATM    2  C   UNL     1     -10.168  15.233  65.597  1.00  0.00    -0.372 C  
HETATM    3  C   UNL     1     -10.226  14.025  66.158  1.00  0.00    -0.302 C  
HETATM    4  N   UNL     1     -11.295  13.173  65.938  1.00  0.00    -0.304 N  
HETATM    5  C   UNL     1     -12.342  13.520  65.089  1.00  0.00    -0.449 C  
HETATM    6  O   UNL     1     -11.259  16.778  64.161  1.00  0.00    -1.155 OA 
HETATM    7  O   UNL     1     -13.276  12.774  64.807  1.00  0.00    -0.812 OA 
HETATM    8  H   UNL     1     -13.068  15.077  63.976  1.00  0.00     0.000 HD 
HETATM    9  N   UNL     1     -12.279  14.783  64.552  1.00  0.00    -0.469 N  
HETATM   10  C   UNL     1     -11.263  15.685  64.715  1.00  0.00    -0.382 C  
ENDROOT
BRANCH   4  11
HETATM   11  C   UNL     1     -11.352  11.854  66.549  1.00  0.00    -0.341 C  
HETATM   12  C   UNL     1      -9.986  11.240  66.817  1.00  0.00    -0.238 C  
HETATM   13  C   UNL     1     -10.333  10.209  67.862  1.00  0.00    -0.234 C  
HETATM   14  C   UNL     1     -11.396  10.918  68.679  1.00  0.00    -0.295 C  
HETATM   15  O   UNL     1     -12.014  11.895  67.827  1.00  0.00    -0.559 OA 
ENDBRANCH   4  11
TORSDOF 1
ENDMDL
MODEL        3
REMARK 921   NORMALIZED FREE ENERGY PREDICTED BY IDOCK:   -5.52 KCAL/MOL
REMARK 922        TOTAL FREE ENERGY PREDICTED BY IDOCK:   -6.03 KCAL/MOL
REMARK 923 INTER-LIGAND FREE ENERGY PREDICTED BY IDOCK:   -5.83 KCAL/MOL
REMARK 924 INTRA-LIGAND FREE ENERGY PREDICTED BY IDOCK:   -0.20 KCAL/MOL
REMARK 927      BINDING AFFINITY PREDICTED BY RF-SCORE:    0.00 PKD
ROOT
HETATM    1  F   UNL     1     -11.128  13.890  68.604  1.00  0.00    -0.239 F  
HETATM    2  C   UNL     1     -11.190  14.574  67.446  1.00  0.00    -0.327 C  
HETATM    3  C   UNL     1     -10.684  15.799  67.309  1.00  0.00    -0.313 C  
HETATM    4  N   UNL     1     -10.760  16.486  66.110  1.00  0.00    -0.217 N  
HETATM    5  C   UNL     1     -11.405  15.947  65.001  1.00  0.00    -0.193 C  
HETATM    6  O   UNL     1     -12.352  12.804  66.369  1.00  0.00    -0.500 OA 
HETATM    7  O   UNL     1     -11.561  16.543  63.938  1.00  0.00    -1.175 OA 
HETATM    8  H   UNL     1     -12.309  14.236  64.333  1.00  0.00     0.000 HD 
HETATM    9  N   UNL     1     -11.887  14.670  65.154  1.00  0.00    -0.365 N  
HETATM   10  C   UNL     1     -11.855  13.922  66.300  1.00  0.00    -0.408 C  
ENDROOT
BRANCH   4  11
HETATM   11  C   UNL     1     -10.209  17.825  65.966  1.00  0.00    -0.293 C  
HETATM   12  C   UNL     1     -10.661  18.796  67.046  1.00  0.00    -0.483 C  
HETATM   13  C   UNL     1      -9.588  19.852  66.951  1.00  0.00    -0.517 C  
HETATM   14  C   UNL     1      -8.346  19.030  66.666  1.00  0.00    -0.301 C  
HETATM   15  O   UNL     1      -8.771  17.812  66.036  1.00  0.00    -0.495 OA 
ENDBRANCH   4  11
TORSDOF 1
ENDMDL
MODEL        4
REMARK 921   NORMALIZED FREE ENERGY PREDICTED BY IDOCK:   -5.35 KCAL/MOL
REMARK 922        TOTAL FREE ENERGY PREDICTED BY IDOCK:   -5.85 KCAL/MOL
REMARK 923 INTER-LIGAND FREE ENERGY PREDICTED BY IDOCK:   -5.65 KCAL/MOL
REMARK 924 INTRA-LIGAND FREE ENERGY PREDICTED BY IDOCK:   -0.20 KCAL/MOL
REMARK 927      BINDING AFFINITY PREDICTED BY RF-SCORE:    0.00 PKD
ROOT
HETATM    1  F   UNL     1     -10.444  14.982  69.218  1.00  0.00    -0.217 F  
HETATM    2  C   UNL     1     -10.646  15.421  67.962  1.00  0.00    -0.263 C  
HETATM    3  C   UNL     1     -10.918  14.598  66.950  1.00  0.00    -0.324 C  
HETATM    4  N   UNL     1     -11.120  15.070  65.664  1.00  0.00    -0.344 N  
HETATM    5  C   UNL     1     -11.008  16.423  65.359  1.00  0.00    -0.160 C  
HETATM    6  O   UNL     1     -10.289  17.678  68.608  1.00  0.00    -0.355 OA 
HETATM    7  O   UNL     1     -11.108  16.884  64.224  1.00  0.00    -1.135 OA 
HETATM    8  H   UNL     1     -10.737  18.257  66.228  1.00  0.00     0.000 HD 
HETATM    9  N   UNL     1     -10.763  17.256  66.423  1.00  0.00    -0.152 N  
HETATM   10  C   UNL     1     -10.550  16.874  67.721  1.00  0.00    -0.340 C  
ENDROOT
BRANCH   4  11
HETATM   11  C   UNL     1     -11.414  14.168  64.562  1.00  0.00    -0.372 C  
HETATM   12  C   UNL     1     -10.437  13.008  64.438  1.00  0.00    -0.426 C  
HETATM   13  C   UNL     1     -11.248  12.033  63.621  1.00  0.00    -0.528 C  
HETATM   14  C   UNL     1     -12.647  12.235  64.170  1.00  0.00    -0.394 C  
HETATM   15  O   UNL     1     -12.712  13.564  64.708  1.00  0.00    -0.639 OA 
ENDBRANCH   4  11
TORSDOF 1
ENDMDL
MODEL        5
REMARK 921   NORMALIZED FREE ENERGY PREDICTED BY IDOCK:   -5.22 KCAL/MOL
REMARK 922        TOTAL FREE ENERGY PREDICTED BY IDOCK:   -5.72 KCAL/MOL
REMARK 923 INTER-LIGAND FREE ENERGY PREDICTED BY IDOCK:   -5.52 KCAL/MOL
REMARK 924 INTRA-LIGAND FREE ENERGY PREDICTED BY IDOCK:   -0.20 KCAL/MOL
REMARK 927      BINDING AFFINITY PREDICTED BY RF-SCORE:    0.00 PKD
ROOT
HETATM    1  F   UNL     1     -12.268  10.344  70.138  1.00  0.00    -0.312 F  
HETATM    2  C   UNL     1     -12.137  11.627  69.752  1.00  0.00    -0.289 C  
HETATM    3  C   UNL     1     -12.324  12.650  70.586  1.00  0.00    -0.290 C  
HETATM    4  N   UNL     1     -12.187  13.962  70.167  1.00  0.00    -0.345 N  
HETATM    5  C   UNL     1     -11.886  14.278  68.846  1.00  0.00    -0.336 C  
HETATM    6  O   UNL     1     -11.607  10.987  67.527  1.00  0.00    -0.529 OA 
HETATM    7  O   UNL     1     -11.823  15.425  68.409  1.00  0.00    -0.347 OA 
HETATM    8  H   UNL     1     -11.381  13.421  67.056  1.00  0.00     0.000 HD 
HETATM    9  N   UNL     1     -11.662  13.209  68.014  1.00  0.00    -0.338 N  
HETATM   10  C   UNL     1     -11.778  11.885  68.344  1.00  0.00    -0.326 C  
ENDROOT
BRANCH   4  11
HETATM   11  C   UNL     1     -12.395  15.075  71.080  1.00  0.00    -0.327 C  
HETATM   12  C   UNL     1     -13.716  15.015  71.833  1.00  0.00    -0.548 C  
HETATM   13  C   UNL     1     -13.425  15.927  72.999  1.00  0.00    -0.653 C  
HETATM   14  C   UNL     1     -11.974  15.611  73.304  1.00  0.00    -0.460 C  
HETATM   15  O   UNL     1     -11.375  15.122  72.094  1.00  0.00    -0.419 OA 
ENDBRANCH   4  11
TORSDOF 1
ENDMDL
MODEL        6
REMARK 921   NORMALIZED FREE ENERGY PREDICTED BY IDOCK:   -5.22 KCAL/MOL
REMARK 922        TOTAL FREE ENERGY PREDICTED BY IDOCK:   -5.71 KCAL/MOL
REMARK 923 INTER-LIGAND FREE ENERGY PREDICTED BY IDOCK:   -5.51 KCAL/MOL
REMARK 924 INTRA-LIGAND FREE ENERGY PREDICTED BY IDOCK:   -0.20 KCAL/MOL
REMARK 927      BINDING AFFINITY PREDICTED BY RF-SCORE:    0.00 PKD
ROOT
HETATM    1  F   UNL     1     -11.508  16.435  68.257  1.00  0.00    -0.353 F  
HETATM    2  C   UNL     1     -11.617  15.094  68.212  1.00  0.00    -0.339 C  
HETATM    3  C   UNL     1     -11.617  14.413  67.067  1.00  0.00    -0.384 C  
HETATM    4  N   UNL     1     -11.733  13.034  67.042  1.00  0.00    -0.366 N  
HETATM    5  C   UNL     1     -11.894  12.295  68.210  1.00  0.00    -0.310 C  
HETATM    6  O   UNL     1     -11.764  14.946  70.578  1.00  0.00    -0.261 OA 
HETATM    7  O   UNL     1     -12.072  11.080  68.237  1.00  0.00    -0.604 OA 
HETATM    8  H   UNL     1     -11.910  12.482  70.249  1.00  0.00     0.000 HD 
HETATM    9  N   UNL     1     -11.854  13.014  69.380  1.00  0.00    -0.322 N  
HETATM   10  C   UNL     1     -11.745  14.374  69.494  1.00  0.00    -0.313 C  
ENDROOT
BRANCH   4  11
HETATM   11  C   UNL     1     -11.737  12.295  65.789  1.00  0.00    -0.385 C  
HETATM   12  C   UNL     1     -12.764  12.793  64.783  1.00  0.00    -0.469 C  
HETATM   13  C   UNL     1     -12.203  12.238  63.498  1.00  0.00    -0.669 C  
HETATM   14  C   UNL     1     -10.708  12.388  63.705  1.00  0.00    -0.455 C  
HETATM   15  O   UNL     1     -10.466  12.388  65.120  1.00  0.00    -0.277 OA 
ENDBRANCH   4  11
TORSDOF 1
ENDMDL
MODEL        7
REMARK 921   NORMALIZED FREE ENERGY PREDICTED BY IDOCK:   -5.21 KCAL/MOL
REMARK 922        TOTAL FREE ENERGY PREDICTED BY IDOCK:   -5.71 KCAL/MOL
REMARK 923 INTER-LIGAND FREE ENERGY PREDICTED BY IDOCK:   -5.57 KCAL/MOL
REMARK 924 INTRA-LIGAND FREE ENERGY PREDICTED BY IDOCK:   -0.14 KCAL/MOL
REMARK 927      BINDING AFFINITY PREDICTED BY RF-SCORE:    0.00 PKD
ROOT
HETATM    1  F   UNL     1     -14.020  13.293  72.670  1.00  0.00    -0.624 F  
HETATM    2  C   UNL     1     -13.205  14.065  71.928  1.00  0.00    -0.395 C  
HETATM    3  C   UNL     1     -12.766  13.697  70.725  1.00  0.00    -0.268 C  
HETATM    4  N   UNL     1     -11.926  14.505  69.979  1.00  0.00    -0.310 N  
HETATM    5  C   UNL     1     -11.466  15.725  70.467  1.00  0.00    -0.381 C  
HETATM    6  O   UNL     1     -13.149  15.752  73.600  1.00  0.00    -0.533 OA 
HETATM    7  O   UNL     1     -10.665  16.445  69.876  1.00  0.00    -0.330 OA 
HETATM    8  H   UNL     1     -11.681  17.019  72.038  1.00  0.00     0.000 HD 
HETATM    9  N   UNL     1     -11.960  16.101  71.692  1.00  0.00    -0.481 N  
HETATM   10  C   UNL     1     -12.790  15.364  72.494  1.00  0.00    -0.397 C  
ENDROOT
BRANCH   4  11
HETATM   11  C   UNL     1     -11.446  14.097  68.668  1.00  0.00    -0.299 C  
HETATM   12  C   UNL     1     -11.652  12.619  68.369  1.00  0.00    -0.370 C  
HETATM   13  C   UNL     1     -11.566  12.614  66.864  1.00  0.00    -0.438 C  
HETATM   14  C   UNL     1     -12.254  13.914  66.494  1.00  0.00    -0.442 C  
HETATM   15  O   UNL     1     -12.130  14.802  67.615  1.00  0.00    -0.299 OA 
ENDBRANCH   4  11
TORSDOF 1
ENDMDL
MODEL        8
REMARK 921   NORMALIZED FREE ENERGY PREDICTED BY IDOCK:   -5.18 KCAL/MOL
REMARK 922        TOTAL FREE ENERGY PREDICTED BY IDOCK:   -5.67 KCAL/MOL
REMARK 923 INTER-LIGAND FREE ENERGY PREDICTED BY IDOCK:   -5.47 KCAL/MOL
REMARK 924 INTRA-LIGAND FREE ENERGY PREDICTED BY IDOCK:   -0.20 KCAL/MOL
REMARK 927      BINDING AFFINITY PREDICTED BY RF-SCORE:    0.00 PKD
ROOT
HETATM    1  F   UNL     1     -12.023  12.207  67.648  1.00  0.00    -0.398 F  
HETATM    2  C   UNL     1     -11.709  13.457  68.033  1.00  0.00    -0.356 C  
HETATM    3  C   UNL     1     -12.129  13.979  69.186  1.00  0.00    -0.337 C  
HETATM    4  N   UNL     1     -11.798  15.269  69.563  1.00  0.00    -0.328 N  
HETATM    5  C   UNL     1     -11.042  16.097  68.738  1.00  0.00    -0.354 C  
HETATM    6  O   UNL     1     -10.467  13.845  66.047  1.00  0.00    -0.285 OA 
HETATM    7  O   UNL     1     -10.781  17.270  68.995  1.00  0.00    -0.292 OA 
HETATM    8  H   UNL     1      -9.985  16.101  66.985  1.00  0.00     0.000 HD 
HETATM    9  N   UNL     1     -10.590  15.528  67.574  1.00  0.00    -0.290 N  
HETATM   10  C   UNL     1     -10.871  14.265  67.125  1.00  0.00    -0.296 C  
ENDROOT
BRANCH   4  11
HETATM   11  C   UNL     1     -12.261  15.835  70.820  1.00  0.00    -0.399 C  
HETATM   12  C   UNL     1     -13.637  15.345  71.246  1.00  0.00    -0.585 C  
HETATM   13  C   UNL     1     -13.610  15.655  72.722  1.00  0.00    -0.678 C  
HETATM   14  C   UNL     1     -12.173  15.345  73.093  1.00  0.00    -0.456 C  
HETATM   15  O   UNL     1     -11.379  15.498  71.906  1.00  0.00    -0.412 OA 
ENDBRANCH   4  11
TORSDOF 1
ENDMDL
MODEL        9
REMARK 921   NORMALIZED FREE ENERGY PREDICTED BY IDOCK:   -5.16 KCAL/MOL
REMARK 922        TOTAL FREE ENERGY PREDICTED BY IDOCK:   -5.65 KCAL/MOL
REMARK 923 INTER-LIGAND FREE ENERGY PREDICTED BY IDOCK:   -5.44 KCAL/MOL
REMARK 924 INTRA-LIGAND FREE ENERGY PREDICTED BY IDOCK:   -0.20 KCAL/MOL
REMARK 927      BINDING AFFINITY PREDICTED BY RF-SCORE:    0.00 PKD
ROOT
HETATM    1  F   UNL     1     -11.196  13.328  67.634  1.00  0.00    -0.261 F  
HETATM    2  C   UNL     1     -11.697  12.787  68.760  1.00  0.00    -0.323 C  
HETATM    3  C   UNL     1     -12.048  13.522  69.815  1.00  0.00    -0.318 C  
HETATM    4  N   UNL     1     -12.560  12.945  70.964  1.00  0.00    -0.345 N  
HETATM    5  C   UNL     1     -12.696  11.566  71.089  1.00  0.00    -0.356 C  
HETATM    6  O   UNL     1     -11.532  10.590  67.873  1.00  0.00    -0.417 OA 
HETATM    7  O   UNL     1     -13.077  11.001  72.112  1.00  0.00    -0.460 OA 
HETATM    8  H   UNL     1     -12.513   9.824  70.030  1.00  0.00     0.000 HD 
HETATM    9  N   UNL     1     -12.363  10.831  69.978  1.00  0.00    -0.325 N  
HETATM   10  C   UNL     1     -11.850  11.319  68.805  1.00  0.00    -0.329 C  
ENDROOT
BRANCH   4  11
HETATM   11  C   UNL     1     -12.938  13.752  72.114  1.00  0.00    -0.343 C  
HETATM   12  C   UNL     1     -11.938  14.847  72.454  1.00  0.00    -0.379 C  
HETATM   13  C   UNL     1     -12.796  15.777  73.275  1.00  0.00    -0.655 C  
HETATM   14  C   UNL     1     -14.134  15.695  72.566  1.00  0.00    -0.479 C  
HETATM   15  O   UNL     1     -14.190  14.427  71.894  1.00  0.00    -0.455 OA 
ENDBRANCH   4  11
TORSDOF 1
ENDMDL
MODEL       10
REMARK 921   NORMALIZED FREE ENERGY PREDICTED BY IDOCK:   -5.12 KCAL/MOL
REMARK 922        TOTAL FREE ENERGY PREDICTED BY IDOCK:   -5.60 KCAL/MOL
REMARK 923 INTER-LIGAND FREE ENERGY PREDICTED BY IDOCK:   -5.40 KCAL/MOL
REMARK 924 INTRA-LIGAND FREE ENERGY PREDICTED BY IDOCK:   -0.20 KCAL/MOL
REMARK 927      BINDING AFFINITY PREDICTED BY RF-SCORE:    0.00 PKD
ROOT
HETATM    1  F   UNL     1     -11.619  15.032  66.780  1.00  0.00    -0.347 F  
HETATM    2  C   UNL     1     -11.760  14.164  67.797  1.00  0.00    -0.373 C  
HETATM    3  C   UNL     1     -12.031  14.555  69.043  1.00  0.00    -0.299 C  
HETATM    4  N   UNL     1     -12.170  13.645  70.076  1.00  0.00    -0.338 N  
HETATM    5  C   UNL     1     -11.995  12.279  69.873  1.00  0.00    -0.306 C  
HETATM    6  O   UNL     1     -11.337  12.307  66.378  1.00  0.00    -0.315 OA 
HETATM    7  O   UNL     1     -12.037  11.439  70.768  1.00  0.00    -0.363 OA 
HETATM    8  H   UNL     1     -11.682  10.894  68.399  1.00  0.00     0.000 HD 
HETATM    9  N   UNL     1     -11.753  11.896  68.576  1.00  0.00    -0.315 N  
HETATM   10  C   UNL     1     -11.600  12.727  67.499  1.00  0.00    -0.356 C  
ENDROOT
BRANCH   4  11
HETATM   11  C   UNL     1     -12.461  14.077  71.434  1.00  0.00    -0.356 C  
HETATM   12  C   UNL     1     -11.579  15.218  71.920  1.00  0.00    -0.515 C  
HETATM   13  C   UNL     1     -12.411  15.762  73.054  1.00  0.00    -0.586 C  
HETATM   14  C   UNL     1     -13.823  15.619  72.520  1.00  0.00    -0.555 C  
HETATM   15  O   UNL     1     -13.813  14.557  71.554  1.00  0.00    -0.378 OA 
ENDBRANCH   4  11
TORSDOF 1
ENDMDL
MODEL       11
REMARK 921   NORMALIZED FREE ENERGY PREDICTED BY IDOCK:   -5.11 KCAL/MOL
REMARK 922        TOTAL FREE ENERGY PREDICTED BY IDOCK:   -5.60 KCAL/MOL
REMARK 923 INTER-LIGAND FREE ENERGY PREDICTED BY IDOCK:   -5.40 KCAL/MOL
REMARK 924 INTRA-LIGAND FREE ENERGY PREDICTED BY IDOCK:   -0.20 KCAL/MOL
REMARK 927      BINDING AFFINITY PREDICTED BY RF-SCORE:    0.00 PKD
ROOT
HETATM    1  F   UNL     1     -11.989  13.724  69.562  1.00  0.00    -0.305 F  
HETATM    2  C   UNL     1     -11.536  14.369  68.472  1.00  0.00    -0.314 C  
HETATM    3  C   UNL     1     -11.560  13.825  67.255  1.00  0.00    -0.361 C  
HETATM    4  N   UNL     1     -11.088  14.505  66.146  1.00  0.00    -0.328 N  
HETATM    5  C   UNL     1     -10.527  15.775  66.254  1.00  0.00    -0.309 C  
HETATM    6  O   UNL     1     -10.930  16.275  69.752  1.00  0.00    -0.322 OA 
HETATM    7  O   UNL     1     -10.030  16.390  65.314  1.00  0.00    -0.519 OA 
HETATM    8  H   UNL     1     -10.194  17.283  67.597  1.00  0.00     0.000 HD 
HETATM    9  N   UNL     1     -10.546  16.330  67.510  1.00  0.00    -0.309 N  
HETATM   10  C   UNL     1     -10.992  15.729  68.657  1.00  0.00    -0.307 C  
ENDROOT
BRANCH   4  11
HETATM   11  C   UNL     1     -11.113  13.907  64.821  1.00  0.00    -0.383 C  
HETATM   12  C   UNL     1     -10.383  12.575  64.733  1.00  0.00    -0.331 C  
HETATM   13  C   UNL     1     -10.998  11.990  63.486  1.00  0.00    -0.514 C  
HETATM   14  C   UNL     1     -12.441  12.445  63.591  1.00  0.00    -0.508 C  
HETATM   15  O   UNL     1     -12.460  13.638  64.390  1.00  0.00    -0.588 OA 
ENDBRANCH   4  11
TORSDOF 1
ENDMDL
MODEL       12
REMARK 921   NORMALIZED FREE ENERGY PREDICTED BY IDOCK:   -5.05 KCAL/MOL
REMARK 922        TOTAL FREE ENERGY PREDICTED BY IDOCK:   -5.53 KCAL/MOL
REMARK 923 INTER-LIGAND FREE ENERGY PREDICTED BY IDOCK:   -5.44 KCAL/MOL
REMARK 924 INTRA-LIGAND FREE ENERGY PREDICTED BY IDOCK:   -0.09 KCAL/MOL
REMARK 927      BINDING AFFINITY PREDICTED BY RF-SCORE:    0.00 PKD
ROOT
HETATM    1  F   UNL     1     -11.555  15.775  64.034  1.00  0.00    -0.352 F  
HETATM    2  C   UNL     1     -11.670  14.762  64.913  1.00  0.00    -0.390 C  
HETATM    3  C   UNL     1     -11.389  14.902  66.209  1.00  0.00    -0.306 C  
HETATM    4  N   UNL     1     -11.513  13.847  67.096  1.00  0.00    -0.329 N  
HETATM    5  C   UNL     1     -11.898  12.578  66.671  1.00  0.00    -0.352 C  
HETATM    6  O   UNL     1     -12.382  13.262  63.215  1.00  0.00    -0.721 OA 
HETATM    7  O   UNL     1     -11.954  11.594  67.405  1.00  0.00    -0.621 OA 
HETATM    8  H   UNL     1     -12.559  11.560  65.023  1.00  0.00     0.000 HD 
HETATM    9  N   UNL     1     -12.217  12.467  65.340  1.00  0.00    -0.455 N  
HETATM   10  C   UNL     1     -12.122  13.455  64.397  1.00  0.00    -0.416 C  
ENDROOT
BRANCH   4  11
HETATM   11  C   UNL     1     -11.201  14.003  68.508  1.00  0.00    -0.265 C  
HETATM   12  C   UNL     1     -10.535  15.327  68.850  1.00  0.00    -0.241 C  
HETATM   13  C   UNL     1     -10.811  15.416  70.329  1.00  0.00    -0.332 C  
HETATM   14  C   UNL     1     -12.206  14.832  70.436  1.00  0.00    -0.336 C  
HETATM   15  O   UNL     1     -12.390  13.949  69.318  1.00  0.00    -0.323 OA 
ENDBRANCH   4  11
TORSDOF 1
ENDMDL
MODEL       13
REMARK 921   NORMALIZED FREE ENERGY PREDICTED BY IDOCK:   -5.04 KCAL/MOL
REMARK 922        TOTAL FREE ENERGY PREDICTED BY IDOCK:   -5.52 KCAL/MOL
REMARK 923 INTER-LIGAND FREE ENERGY PREDICTED BY IDOCK:   -5.39 KCAL/MOL
REMARK 924 INTRA-LIGAND FREE ENERGY PREDICTED BY IDOCK:   -0.13 KCAL/MOL
REMARK 927      BINDING AFFINITY PREDICTED BY RF-SCORE:    0.00 PKD
ROOT
HETATM    1  F   UNL     1     -13.522   9.294  72.689  1.00  0.00    -0.469 F  
HETATM    2  C   UNL     1     -12.970  10.213  71.875  1.00  0.00    -0.447 C  
HETATM    3  C   UNL     1     -13.265  11.511  71.954  1.00  0.00    -0.374 C  
HETATM    4  N   UNL     1     -12.688  12.439  71.105  1.00  0.00    -0.313 N  
HETATM    5  C   UNL     1     -11.803  12.058  70.101  1.00  0.00    -0.301 C  
HETATM    6  O   UNL     1     -11.710   8.559  70.728  1.00  0.00    -0.277 OA 
HETATM    7  O   UNL     1     -11.320  12.832  69.278  1.00  0.00    -0.263 OA 
HETATM    8  H   UNL     1     -10.794  10.434  69.370  1.00  0.00     0.000 HD 
HETATM    9  N   UNL     1     -11.486  10.722  70.061  1.00  0.00    -0.306 N  
HETATM   10  C   UNL     1     -12.009   9.740  70.858  1.00  0.00    -0.328 C  
ENDROOT
BRANCH   4  11
HETATM   11  C   UNL     1     -13.015  13.854  71.193  1.00  0.00    -0.318 C  
HETATM   12  C   UNL     1     -14.246  14.150  72.038  1.00  0.00    -0.617 C  
HETATM   13  C   UNL     1     -14.028  15.607  72.363  1.00  0.00    -0.602 C  
HETATM   14  C   UNL     1     -12.525  15.677  72.552  1.00  0.00    -0.428 C  
HETATM   15  O   UNL     1     -11.945  14.605  71.794  1.00  0.00    -0.345 OA 
ENDBRANCH   4  11
TORSDOF 1
ENDMDL
MODEL       14
REMARK 921   NORMALIZED FREE ENERGY PREDICTED BY IDOCK:   -5.03 KCAL/MOL
REMARK 922        TOTAL FREE ENERGY PREDICTED BY IDOCK:   -5.52 KCAL/MOL
REMARK 923 INTER-LIGAND FREE ENERGY PREDICTED BY IDOCK:   -5.31 KCAL/MOL
REMARK 924 INTRA-LIGAND FREE ENERGY PREDICTED BY IDOCK:   -0.20 KCAL/MOL
REMARK 927      BINDING AFFINITY PREDICTED BY RF-SCORE:    0.00 PKD
ROOT
HETATM    1  F   UNL     1     -10.789  12.576  63.170  1.00  0.00    -0.470 F  
HETATM    2  C   UNL     1     -11.073  13.240  64.306  1.00  0.00    -0.388 C  
HETATM    3  C   UNL     1     -10.202  14.062  64.892  1.00  0.00    -0.348 C  
HETATM    4  N   UNL     1     -10.513  14.735  66.061  1.00  0.00    -0.290 N  
HETATM    5  C   UNL     1     -11.735  14.554  66.703  1.00  0.00    -0.371 C  
HETATM    6  O   UNL     1     -13.240  12.277  64.425  1.00  0.00    -0.806 OA 
HETATM    7  O   UNL     1     -12.031  15.072  67.778  1.00  0.00    -0.289 OA 
HETATM    8  H   UNL     1     -13.551  13.635  66.488  1.00  0.00     0.000 HD 
HETATM    9  N   UNL     1     -12.629  13.732  66.063  1.00  0.00    -0.442 N  
HETATM   10  C   UNL     1     -12.404  13.030  64.909  1.00  0.00    -0.459 C  
ENDROOT
BRANCH   4  11
HETATM   11  C   UNL     1      -9.559  15.628  66.699  1.00  0.00    -0.248 C  
HETATM   12  C   UNL     1      -8.176  15.021  66.886  1.00  0.00    -0.206 C  
HETATM   13  C   UNL     1      -7.336  16.262  67.055  1.00  0.00    -0.264 C  
HETATM   14  C   UNL     1      -7.987  17.229  66.085  1.00  0.00    -0.257 C  
HETATM   15  O   UNL     1      -9.353  16.821  65.921  1.00  0.00    -0.476 OA 
ENDBRANCH   4  11
TORSDOF 1
ENDMDL
MODEL       15
REMARK 921   NORMALIZED FREE ENERGY PREDICTED BY IDOCK:   -5.00 KCAL/MOL
REMARK 922        TOTAL FREE ENERGY PREDICTED BY IDOCK:   -5.48 KCAL/MOL
REMARK 923 INTER-LIGAND FREE ENERGY PREDICTED BY IDOCK:   -5.34 KCAL/MOL
REMARK 924 INTRA-LIGAND FREE ENERGY PREDICTED BY IDOCK:   -0.14 KCAL/MOL
REMARK 927      BINDING AFFINITY PREDICTED BY RF-SCORE:    0.00 PKD
ROOT
HETATM    1  F   UNL     1     -12.639  14.014  63.475  1.00  0.00    -0.435 F  
HETATM    2  C   UNL     1     -11.955  14.320  64.593  1.00  0.00    -0.455 C  
HETATM    3  C   UNL     1     -11.752  13.441  65.574  1.00  0.00    -0.340 C  
HETATM    4  N   UNL     1     -11.047  13.777  66.717  1.00  0.00    -0.304 N  
HETATM    5  C   UNL     1     -10.551  15.062  66.915  1.00  0.00    -0.297 C  
HETATM    6  O   UNL     1     -11.589  16.548  63.855  1.00  0.00    -1.175 OA 
HETATM    7  O   UNL     1      -9.982  15.430  67.940  1.00  0.00    -0.220 OA 
HETATM    8  H   UNL     1     -10.330  16.869  65.979  1.00  0.00     0.000 HD 
HETATM    9  N   UNL     1     -10.739  15.941  65.877  1.00  0.00    -0.317 N  
HETATM   10  C   UNL     1     -11.423  15.692  64.717  1.00  0.00    -0.283 C  
ENDROOT
BRANCH   4  11
HETATM   11  C   UNL     1     -10.831  12.815  67.786  1.00  0.00    -0.225 C  
HETATM   12  C   UNL     1     -11.907  12.838  68.862  1.00  0.00    -0.351 C  
HETATM   13  C   UNL     1     -11.718  11.479  69.488  1.00  0.00    -0.413 C  
HETATM   14  C   UNL     1     -11.384  10.612  68.289  1.00  0.00    -0.289 C  
HETATM   15  O   UNL     1     -10.816  11.466  67.284  1.00  0.00    -0.232 OA 
ENDBRANCH   4  11
TORSDOF 1
ENDMDL
MODEL       16
REMARK 921   NORMALIZED FREE ENERGY PREDICTED BY IDOCK:   -4.98 KCAL/MOL
REMARK 922        TOTAL FREE ENERGY PREDICTED BY IDOCK:   -5.46 KCAL/MOL
REMARK 923 INTER-LIGAND FREE ENERGY PREDICTED BY IDOCK:   -5.26 KCAL/MOL
REMARK 924 INTRA-LIGAND FREE ENERGY PREDICTED BY IDOCK:   -0.20 KCAL/MOL
REMARK 927      BINDING AFFINITY PREDICTED BY RF-SCORE:    0.00 PKD
ROOT
HETATM    1  F   UNL     1      -9.752  18.410  68.730  1.00  0.00    -0.320 F  
HETATM    2  C   UNL     1     -10.417  17.241  68.694  1.00  0.00    -0.356 C  
HETATM    3  C   UNL     1     -11.004  16.716  69.769  1.00  0.00    -0.205 C  
HETATM    4  N   UNL     1     -11.682  15.510  69.710  1.00  0.00    -0.325 N  
HETATM    5  C   UNL     1     -11.750  14.769  68.534  1.00  0.00    -0.317 C  
HETATM    6  O   UNL     1      -9.950  16.954  66.383  1.00  0.00    -0.281 OA 
HETATM    7  O   UNL     1     -12.277  13.662  68.447  1.00  0.00    -0.332 OA 
HETATM    8  H   UNL     1     -11.262  14.845  66.548  1.00  0.00     0.000 HD 
HETATM    9  N   UNL     1     -11.170  15.346  67.431  1.00  0.00    -0.317 N  
HETATM   10  C   UNL     1     -10.481  16.529  67.402  1.00  0.00    -0.310 C  
ENDROOT
BRANCH   4  11
HETATM   11  C   UNL     1     -12.318  14.939  70.887  1.00  0.00    -0.328 C  
HETATM   12  C   UNL     1     -11.611  15.272  72.192  1.00  0.00    -0.535 C  
HETATM   13  C   UNL     1     -12.714  15.024  73.190  1.00  0.00    -0.595 C  
HETATM   14  C   UNL     1     -13.941  15.521  72.450  1.00  0.00    -0.560 C  
HETATM   15  O   UNL     1     -13.665  15.423  71.044  1.00  0.00    -0.473 OA 
ENDBRANCH   4  11
TORSDOF 1
ENDMDL
MODEL       17
REMARK 921   NORMALIZED FREE ENERGY PREDICTED BY IDOCK:   -4.97 KCAL/MOL
REMARK 922        TOTAL FREE ENERGY PREDICTED BY IDOCK:   -5.45 KCAL/MOL
REMARK 923 INTER-LIGAND FREE ENERGY PREDICTED BY IDOCK:   -5.24 KCAL/MOL
REMARK 924 INTRA-LIGAND FREE ENERGY PREDICTED BY IDOCK:   -0.20 KCAL/MOL
REMARK 927      BINDING AFFINITY PREDICTED BY RF-SCORE:    0.00 PKD
ROOT
HETATM    1  F   UNL     1      -9.737  18.543  69.155  1.00  0.00    -0.336 F  
HETATM    2  C   UNL     1     -10.121  18.094  67.946  1.00  0.00    -0.357 C  
HETATM    3  C   UNL     1     -10.261  16.796  67.675  1.00  0.00    -0.289 C  
HETATM    4  N   UNL     1     -10.656  16.355  66.424  1.00  0.00    -0.277 N  
HETATM    5  C   UNL     1     -10.887  17.242  65.377  1.00  0.00    -0.021 C  
HETATM    6  O   UNL     1     -10.263  20.301  67.081  1.00  0.00    -0.424 OA 
HETATM    7  O   UNL     1     -11.169  16.898  64.232  1.00  0.00    -1.204 OA 
HETATM    8  H   UNL     1     -10.997  19.241  64.950  1.00  0.00     0.000 HD 
HETATM    9  N   UNL     1     -10.772  18.575  65.689  1.00  0.00    -0.262 N  
HETATM   10  C   UNL     1     -10.387  19.096  66.895  1.00  0.00    -0.416 C  
ENDROOT
BRANCH   4  11
HETATM   11  C   UNL     1     -10.804  14.937  66.131  1.00  0.00    -0.327 C  
HETATM   12  C   UNL     1      -9.766  14.057  66.812  1.00  0.00    -0.283 C  
HETATM   13  C   UNL     1     -10.452  12.714  66.764  1.00  0.00    -0.254 C  
HETATM   14  C   UNL     1     -11.904  13.081  67.001  1.00  0.00    -0.377 C  
HETATM   15  O   UNL     1     -12.081  14.440  66.571  1.00  0.00    -0.418 OA 
ENDBRANCH   4  11
TORSDOF 1
ENDMDL
MODEL       18
REMARK 921   NORMALIZED FREE ENERGY PREDICTED BY IDOCK:   -4.97 KCAL/MOL
REMARK 922        TOTAL FREE ENERGY PREDICTED BY IDOCK:   -5.44 KCAL/MOL
REMARK 923 INTER-LIGAND FREE ENERGY PREDICTED BY IDOCK:   -5.25 KCAL/MOL
REMARK 924 INTRA-LIGAND FREE ENERGY PREDICTED BY IDOCK:   -0.19 KCAL/MOL
REMARK 927      BINDING AFFINITY PREDICTED BY RF-SCORE:    0.00 PKD
ROOT
HETATM    1  F   UNL     1     -11.499  11.417  63.663  1.00  0.00    -0.477 F  
HETATM    2  C   UNL     1     -11.617  12.162  64.777  1.00  0.00    -0.321 C  
HETATM    3  C   UNL     1     -11.233  11.726  65.976  1.00  0.00    -0.296 C  
HETATM    4  N   UNL     1     -11.365  12.508  67.110  1.00  0.00    -0.304 N  
HETATM    5  C   UNL     1     -11.944  13.773  67.060  1.00  0.00    -0.413 C  
HETATM    6  O   UNL     1     -12.589  13.961  63.567  1.00  0.00    -0.842 OA 
HETATM    7  O   UNL     1     -12.148  14.476  68.046  1.00  0.00    -0.297 OA 
HETATM    8  H   UNL     1     -12.669  15.165  65.745  1.00  0.00     0.000 HD 
HETATM    9  N   UNL     1     -12.299  14.216  65.809  1.00  0.00    -0.458 N  
HETATM   10  C   UNL     1     -12.204  13.510  64.640  1.00  0.00    -0.406 C  
ENDROOT
BRANCH   4  11
HETATM   11  C   UNL     1     -10.948  12.026  68.418  1.00  0.00    -0.237 C  
HETATM   12  C   UNL     1     -11.965  11.120  69.094  1.00  0.00    -0.413 C  
HETATM   13  C   UNL     1     -11.094  10.404  70.095  1.00  0.00    -0.383 C  
HETATM   14  C   UNL     1      -9.800  10.218  69.326  1.00  0.00    -0.228 C  
HETATM   15  O   UNL     1      -9.738  11.250  68.330  1.00  0.00    -0.181 OA 
ENDBRANCH   4  11
TORSDOF 1
ENDMDL
MODEL       19
REMARK 921   NORMALIZED FREE ENERGY PREDICTED BY IDOCK:   -4.95 KCAL/MOL
REMARK 922        TOTAL FREE ENERGY PREDICTED BY IDOCK:   -5.43 KCAL/MOL
REMARK 923 INTER-LIGAND FREE ENERGY PREDICTED BY IDOCK:   -5.25 KCAL/MOL
REMARK 924 INTRA-LIGAND FREE ENERGY PREDICTED BY IDOCK:   -0.17 KCAL/MOL
REMARK 927      BINDING AFFINITY PREDICTED BY RF-SCORE:    0.00 PKD
ROOT
HETATM    1  F   UNL     1     -12.762  13.475  71.827  1.00  0.00    -0.403 F  
HETATM    2  C   UNL     1     -12.255  14.221  70.828  1.00  0.00    -0.353 C  
HETATM    3  C   UNL     1     -12.071  13.742  69.597  1.00  0.00    -0.336 C  
HETATM    4  N   UNL     1     -11.546  14.526  68.584  1.00  0.00    -0.298 N  
HETATM    5  C   UNL     1     -11.147  15.840  68.811  1.00  0.00    -0.321 C  
HETATM    6  O   UNL     1     -12.023  16.111  72.247  1.00  0.00    -0.483 OA 
HETATM    7  O   UNL     1     -10.611  16.552  67.966  1.00  0.00    -0.302 OA 
HETATM    8  H   UNL     1     -11.148  17.302  70.244  1.00  0.00     0.000 HD 
HETATM    9  N   UNL     1     -11.379  16.323  70.076  1.00  0.00    -0.318 N  
HETATM   10  C   UNL     1     -11.891  15.619  71.133  1.00  0.00    -0.408 C  
ENDROOT
BRANCH   4  11
HETATM   11  C   UNL     1     -11.344  13.998  67.244  1.00  0.00    -0.330 C  
HETATM   12  C   UNL     1     -11.296  12.478  67.181  1.00  0.00    -0.381 C  
HETATM   13  C   UNL     1     -11.601  12.240  65.723  1.00  0.00    -0.443 C  
HETATM   14  C   UNL     1     -12.625  13.319  65.424  1.00  0.00    -0.468 C  
HETATM   15  O   UNL     1     -12.410  14.387  66.359  1.00  0.00    -0.409 OA 
ENDBRANCH   4  11
TORSDOF 1
ENDMDL
MODEL       20
REMARK 921   NORMALIZED FREE ENERGY PREDICTED BY IDOCK:   -4.91 KCAL/MOL
REMARK 922        TOTAL FREE ENERGY PREDICTED BY IDOCK:   -5.39 KCAL/MOL
REMARK 923 INTER-LIGAND FREE ENERGY PREDICTED BY IDOCK:   -5.21 KCAL/MOL
REMARK 924 INTRA-LIGAND FREE ENERGY PREDICTED BY IDOCK:   -0.18 KCAL/MOL
REMARK 927      BINDING AFFINITY PREDICTED BY RF-SCORE:    0.00 PKD
ROOT
HETATM    1  F   UNL     1     -10.533  13.539  63.963  1.00  0.00    -0.411 F  
HETATM    2  C   UNL     1     -10.797  14.167  65.124  1.00  0.00    -0.372 C  
HETATM    3  C   UNL     1     -10.191  15.299  65.481  1.00  0.00    -0.388 C  
HETATM    4  N   UNL     1     -10.476  15.928  66.681  1.00  0.00    -0.303 N  
HETATM    5  C   UNL     1     -11.381  15.388  67.590  1.00  0.00    -0.290 C  
HETATM    6  O   UNL     1     -12.378  12.511  65.754  1.00  0.00    -0.627 OA 
HETATM    7  O   UNL     1     -11.615  15.869  68.696  1.00  0.00    -0.382 OA 
HETATM    8  H   UNL     1     -12.731  13.865  67.812  1.00  0.00     0.000 HD 
HETATM    9  N   UNL     1     -12.020  14.242  67.185  1.00  0.00    -0.420 N  
HETATM   10  C   UNL     1     -11.798  13.556  66.021  1.00  0.00    -0.379 C  
ENDROOT
BRANCH   4  11
HETATM   11  C   UNL     1      -9.808  17.161  67.068  1.00  0.00    -0.276 C  
HETATM   12  C   UNL     1      -8.486  17.397  66.353  1.00  0.00    -0.292 C  
HETATM   13  C   UNL     1      -8.318  18.884  66.540  1.00  0.00    -0.310 C  
HETATM   14  C   UNL     1      -9.742  19.391  66.409  1.00  0.00    -0.386 C  
HETATM   15  O   UNL     1     -10.618  18.313  66.771  1.00  0.00    -0.370 OA 
ENDBRANCH   4  11
TORSDOF 1
ENDMDL
MODEL       21
REMARK 921   NORMALIZED FREE ENERGY PREDICTED BY IDOCK:   -4.90 KCAL/MOL
REMARK 922        TOTAL FREE ENERGY PREDICTED BY IDOCK:   -5.37 KCAL/MOL
REMARK 923 INTER-LIGAND FREE ENERGY PREDICTED BY IDOCK:   -5.17 KCAL/MOL
REMARK 924 INTRA-LIGAND FREE ENERGY PREDICTED BY IDOCK:   -0.20 KCAL/MOL
REMARK 927      BINDING AFFINITY PREDICTED BY RF-SCORE:    0.00 PKD
ROOT
HETATM    1  F   UNL     1     -11.768  10.153  69.422  1.00  0.00    -0.254 F  
HETATM    2  C   UNL     1     -11.847  11.363  68.839  1.00  0.00    -0.347 C  
HETATM    3  C   UNL     1     -11.739  11.533  67.521  1.00  0.00    -0.184 C  
HETATM    4  N   UNL     1     -11.820  12.787  66.942  1.00  0.00    -0.388 N  
HETATM    5  C   UNL     1     -11.979  13.937  67.710  1.00  0.00    -0.355 C  
HETATM    6  O   UNL     1     -12.150  12.443  70.933  1.00  0.00    -0.292 OA 
HETATM    7  O   UNL     1     -11.987  15.076  67.251  1.00  0.00    -0.252 OA 
HETATM    8  H   UNL     1     -12.303  14.560  69.633  1.00  0.00     0.000 HD 
HETATM    9  N   UNL     1     -12.125  13.735  69.061  1.00  0.00    -0.350 N  
HETATM   10  C   UNL     1     -12.056  12.534  69.715  1.00  0.00    -0.224 C  
ENDROOT
BRANCH   4  11
HETATM   11  C   UNL     1     -11.698  12.968  65.503  1.00  0.00    -0.368 C  
HETATM   12  C   UNL     1     -10.665  12.058  64.854  1.00  0.00    -0.346 C  
HETATM   13  C   UNL     1     -11.118  12.087  63.416  1.00  0.00    -0.476 C  
HETATM   14  C   UNL     1     -12.629  12.111  63.551  1.00  0.00    -0.506 C  
HETATM   15  O   UNL     1     -12.938  12.685  64.830  1.00  0.00    -0.830 OA 
ENDBRANCH   4  11
TORSDOF 1
ENDMDL
MODEL       22
REMARK 921   NORMALIZED FREE ENERGY PREDICTED BY IDOCK:   -4.89 KCAL/MOL
REMARK 922        TOTAL FREE ENERGY PREDICTED BY IDOCK:   -5.36 KCAL/MOL
REMARK 923 INTER-LIGAND FREE ENERGY PREDICTED BY IDOCK:   -5.18 KCAL/MOL
REMARK 924 INTRA-LIGAND FREE ENERGY PREDICTED BY IDOCK:   -0.18 KCAL/MOL
REMARK 927      BINDING AFFINITY PREDICTED BY RF-SCORE:    0.00 PKD
ROOT
HETATM    1  F   UNL     1     -13.769  14.192  72.999  1.00  0.00    -0.532 F  
HETATM    2  C   UNL     1     -13.191  13.550  71.967  1.00  0.00    -0.439 C  
HETATM    3  C   UNL     1     -13.102  12.222  71.908  1.00  0.00    -0.363 C  
HETATM    4  N   UNL     1     -12.502  11.581  70.838  1.00  0.00    -0.389 N  
HETATM    5  C   UNL     1     -11.926  12.295  69.791  1.00  0.00    -0.295 C  
HETATM    6  O   UNL     1     -12.677  15.597  70.878  1.00  0.00    -0.451 OA 
HETATM    7  O   UNL     1     -11.320  11.777  68.856  1.00  0.00    -0.221 OA 
HETATM    8  H   UNL     1     -11.699  14.196  69.067  1.00  0.00     0.000 HD 
HETATM    9  N   UNL     1     -12.062  13.660  69.855  1.00  0.00    -0.337 N  
HETATM   10  C   UNL     1     -12.637  14.372  70.873  1.00  0.00    -0.352 C  
ENDROOT
BRANCH   4  11
HETATM   11  C   UNL     1     -12.403  10.131  70.780  1.00  0.00    -0.328 C  
HETATM   12  C   UNL     1     -11.221   9.562  71.551  1.00  0.00    -0.437 C  
HETATM   13  C   UNL     1     -11.663   8.133  71.743  1.00  0.00    -0.343 C  
HETATM   14  C   UNL     1     -13.154   8.281  71.975  1.00  0.00    -0.327 C  
HETATM   15  O   UNL     1     -13.569   9.502  71.343  1.00  0.00    -0.366 OA 
ENDBRANCH   4  11
TORSDOF 1
ENDMDL
MODEL       23
REMARK 921   NORMALIZED FREE ENERGY PREDICTED BY IDOCK:   -4.89 KCAL/MOL
REMARK 922        TOTAL FREE ENERGY PREDICTED BY IDOCK:   -5.36 KCAL/MOL
REMARK 923 INTER-LIGAND FREE ENERGY PREDICTED BY IDOCK:   -5.16 KCAL/MOL
REMARK 924 INTRA-LIGAND FREE ENERGY PREDICTED BY IDOCK:   -0.20 KCAL/MOL
REMARK 927      BINDING AFFINITY PREDICTED BY RF-SCORE:    0.00 PKD
ROOT
HETATM    1  F   UNL     1      -9.806  18.355  66.213  1.00  0.00    -0.316 F  
HETATM    2  C   UNL     1     -10.340  17.237  66.741  1.00  0.00    -0.308 C  
HETATM    3  C   UNL     1     -10.623  16.162  66.006  1.00  0.00    -0.295 C  
HETATM    4  N   UNL     1     -11.173  15.023  66.568  1.00  0.00    -0.335 N  
HETATM    5  C   UNL     1     -11.496  14.961  67.921  1.00  0.00    -0.340 C  
HETATM    6  O   UNL     1     -10.393  18.192  68.915  1.00  0.00    -0.356 OA 
HETATM    7  O   UNL     1     -12.050  14.002  68.453  1.00  0.00    -0.354 OA 
HETATM    8  H   UNL     1     -11.336  16.015  69.668  1.00  0.00     0.000 HD 
HETATM    9  N   UNL     1     -11.162  16.066  68.665  1.00  0.00    -0.348 N  
HETATM   10  C   UNL     1     -10.619  17.230  68.191  1.00  0.00    -0.386 C  
ENDROOT
BRANCH   4  11
HETATM   11  C   UNL     1     -11.484  13.853  65.762  1.00  0.00    -0.321 C  
HETATM   12  C   UNL     1     -12.277  14.166  64.502  1.00  0.00    -0.468 C  
HETATM   13  C   UNL     1     -11.995  12.939  63.672  1.00  0.00    -0.613 C  
HETATM   14  C   UNL     1     -10.547  12.642  64.011  1.00  0.00    -0.427 C  
HETATM   15  O   UNL     1     -10.287  13.193  65.311  1.00  0.00    -0.294 OA 
ENDBRANCH   4  11
TORSDOF 1
ENDMDL
MODEL       24
REMARK 921   NORMALIZED FREE ENERGY PREDICTED BY IDOCK:   -4.87 KCAL/MOL
REMARK 922        TOTAL FREE ENERGY PREDICTED BY IDOCK:   -5.34 KCAL/MOL
REMARK 923 INTER-LIGAND FREE ENERGY PREDICTED BY IDOCK:   -5.18 KCAL/MOL
REMARK 924 INTRA-LIGAND FREE ENERGY PREDICTED BY IDOCK:   -0.16 KCAL/MOL
REMARK 927      BINDING AFFINITY PREDICTED BY RF-SCORE:    0.00 PKD
ROOT
HETATM    1  F   UNL     1     -12.293  16.071  70.770  1.00  0.00    -0.416 F  
HETATM    2  C   UNL     1     -12.184  14.934  70.059  1.00  0.00    -0.333 C  
HETATM    3  C   UNL     1     -11.899  14.927  68.757  1.00  0.00    -0.296 C  
HETATM    4  N   UNL     1     -11.793  13.746  68.043  1.00  0.00    -0.360 N  
HETATM    5  C   UNL     1     -12.020  12.510  68.641  1.00  0.00    -0.224 C  
HETATM    6  O   UNL     1     -12.678  13.601  71.961  1.00  0.00    -0.278 OA 
HETATM    7  O   UNL     1     -12.009  11.441  68.036  1.00  0.00    -0.613 OA 
HETATM    8  H   UNL     1     -12.387  11.639  70.456  1.00  0.00     0.000 HD 
HETATM    9  N   UNL     1     -12.277  12.539  69.989  1.00  0.00    -0.240 N  
HETATM   10  C   UNL     1     -12.400  13.658  70.769  1.00  0.00    -0.371 C  
ENDROOT
BRANCH   4  11
HETATM   11  C   UNL     1     -11.485  13.744  66.621  1.00  0.00    -0.345 C  
HETATM   12  C   UNL     1     -12.711  13.835  65.725  1.00  0.00    -0.494 C  
HETATM   13  C   UNL     1     -12.093  14.322  64.438  1.00  0.00    -0.490 C  
HETATM   14  C   UNL     1     -11.023  15.277  64.933  1.00  0.00    -0.430 C  
HETATM   15  O   UNL     1     -10.659  14.867  66.260  1.00  0.00    -0.292 OA 
ENDBRANCH   4  11
TORSDOF 1
ENDMDL
MODEL       25
REMARK 921   NORMALIZED FREE ENERGY PREDICTED BY IDOCK:   -4.83 KCAL/MOL
REMARK 922        TOTAL FREE ENERGY PREDICTED BY IDOCK:   -5.30 KCAL/MOL
REMARK 923 INTER-LIGAND FREE ENERGY PREDICTED BY IDOCK:   -5.10 KCAL/MOL
REMARK 924 INTRA-LIGAND FREE ENERGY PREDICTED BY IDOCK:   -0.20 KCAL/MOL
REMARK 927      BINDING AFFINITY PREDICTED BY RF-SCORE:    0.00 PKD
ROOT
HETATM    1  F   UNL     1     -13.154  10.928  72.209  1.00  0.00    -0.560 F  
HETATM    2  C   UNL     1     -12.838  11.952  71.395  1.00  0.00    -0.307 C  
HETATM    3  C   UNL     1     -12.144  11.786  70.270  1.00  0.00    -0.342 C  
HETATM    4  N   UNL     1     -11.827  12.854  69.448  1.00  0.00    -0.316 N  
HETATM    5  C   UNL     1     -12.183  14.159  69.779  1.00  0.00    -0.344 C  
HETATM    6  O   UNL     1     -13.911  13.520  72.820  1.00  0.00    -0.733 OA 
HETATM    7  O   UNL     1     -11.865  15.147  69.121  1.00  0.00    -0.308 OA 
HETATM    8  H   UNL     1     -13.249  15.243  71.149  1.00  0.00     0.000 HD 
HETATM    9  N   UNL     1     -12.928  14.301  70.923  1.00  0.00    -0.343 N  
HETATM   10  C   UNL     1     -13.283  13.303  71.791  1.00  0.00    -0.405 C  
ENDROOT
BRANCH   4  11
HETATM   11  C   UNL     1     -11.066  12.669  68.222  1.00  0.00    -0.261 C  
HETATM   12  C   UNL     1      -9.677  12.087  68.441  1.00  0.00    -0.199 C  
HETATM   13  C   UNL     1      -9.371  11.547  67.066  1.00  0.00    -0.185 C  
HETATM   14  C   UNL     1     -10.721  11.024  66.614  1.00  0.00    -0.249 C  
HETATM   15  O   UNL     1     -11.729  11.760  67.324  1.00  0.00    -0.546 OA 
ENDBRANCH   4  11
TORSDOF 1
ENDMDL
MODEL       26
REMARK 921   NORMALIZED FREE ENERGY PREDICTED BY IDOCK:   -4.80 KCAL/MOL
REMARK 922        TOTAL FREE ENERGY PREDICTED BY IDOCK:   -5.27 KCAL/MOL
REMARK 923 INTER-LIGAND FREE ENERGY PREDICTED BY IDOCK:   -5.11 KCAL/MOL
REMARK 924 INTRA-LIGAND FREE ENERGY PREDICTED BY IDOCK:   -0.17 KCAL/MOL
REMARK 927      BINDING AFFINITY PREDICTED BY RF-SCORE:    0.00 PKD
ROOT
HETATM    1  F   UNL     1     -11.214   9.732  69.826  1.00  0.00    -0.236 F  
HETATM    2  C   UNL     1     -11.888  10.690  70.488  1.00  0.00    -0.357 C  
HETATM    3  C   UNL     1     -11.817  11.978  70.155  1.00  0.00    -0.301 C  
HETATM    4  N   UNL     1     -12.517  12.948  70.851  1.00  0.00    -0.351 N  
HETATM    5  C   UNL     1     -13.297  12.630  71.959  1.00  0.00    -0.454 C  
HETATM    6  O   UNL     1     -12.822   9.106  71.992  1.00  0.00    -0.350 OA 
HETATM    7  O   UNL     1     -13.879  13.461  72.652  1.00  0.00    -0.726 OA 
HETATM    8  H   UNL     1     -14.000  11.036  73.034  1.00  0.00     0.000 HD 
HETATM    9  N   UNL     1     -13.385  11.294  72.262  1.00  0.00    -0.223 N  
HETATM   10  C   UNL     1     -12.728  10.273  71.629  1.00  0.00    -0.456 C  
ENDROOT
BRANCH   4  11
HETATM   11  C   UNL     1     -12.433  14.354  70.486  1.00  0.00    -0.350 C  
HETATM   12  C   UNL     1     -11.275  15.092  71.139  1.00  0.00    -0.329 C  
HETATM   13  C   UNL     1     -11.136  16.281  70.222  1.00  0.00    -0.340 C  
HETATM   14  C   UNL     1     -11.423  15.677  68.861  1.00  0.00    -0.361 C  
HETATM   15  O   UNL     1     -12.244  14.518  69.068  1.00  0.00    -0.275 OA 
ENDBRANCH   4  11
TORSDOF 1
ENDMDL
MODEL       27
REMARK 921   NORMALIZED FREE ENERGY PREDICTED BY IDOCK:   -4.80 KCAL/MOL
REMARK 922        TOTAL FREE ENERGY PREDICTED BY IDOCK:   -5.27 KCAL/MOL
REMARK 923 INTER-LIGAND FREE ENERGY PREDICTED BY IDOCK:   -5.07 KCAL/MOL
REMARK 924 INTRA-LIGAND FREE ENERGY PREDICTED BY IDOCK:   -0.20 KCAL/MOL
REMARK 927      BINDING AFFINITY PREDICTED BY RF-SCORE:    0.00 PKD
ROOT
HETATM    1  F   UNL     1     -13.199  14.136  65.615  1.00  0.00    -0.568 F  
HETATM    2  C   UNL     1     -12.330  13.153  65.313  1.00  0.00    -0.481 C  
HETATM    3  C   UNL     1     -11.682  12.457  66.246  1.00  0.00    -0.395 C  
HETATM    4  N   UNL     1     -10.791  11.452  65.914  1.00  0.00    -0.261 N  
HETATM    5  C   UNL     1     -10.498  11.146  64.588  1.00  0.00    -0.335 C  
HETATM    6  O   UNL     1     -12.655  13.473  62.982  1.00  0.00    -0.716 OA 
HETATM    7  O   UNL     1      -9.664  10.313  64.242  1.00  0.00    -0.304 OA 
HETATM    8  H   UNL     1     -11.046  11.598  62.669  1.00  0.00     0.000 HD 
HETATM    9  N   UNL     1     -11.204  11.851  63.644  1.00  0.00    -0.420 N  
HETATM   10  C   UNL     1     -12.099  12.858  63.885  1.00  0.00    -0.480 C  
ENDROOT
BRANCH   4  11
HETATM   11  C   UNL     1     -10.083  10.697  66.936  1.00  0.00    -0.214 C  
HETATM   12  C   UNL     1      -9.785  11.495  68.197  1.00  0.00    -0.192 C  
HETATM   13  C   UNL     1      -9.556  10.387  69.193  1.00  0.00    -0.226 C  
HETATM   14  C   UNL     1     -10.577   9.350  68.768  1.00  0.00    -0.208 C  
HETATM   15  O   UNL     1     -10.847   9.558  67.373  1.00  0.00    -0.269 OA 
ENDBRANCH   4  11
TORSDOF 1
ENDMDL
MODEL       28
REMARK 921   NORMALIZED FREE ENERGY PREDICTED BY IDOCK:   -4.80 KCAL/MOL
REMARK 922        TOTAL FREE ENERGY PREDICTED BY IDOCK:   -5.27 KCAL/MOL
REMARK 923 INTER-LIGAND FREE ENERGY PREDICTED BY IDOCK:   -5.07 KCAL/MOL
REMARK 924 INTRA-LIGAND FREE ENERGY PREDICTED BY IDOCK:   -0.19 KCAL/MOL
REMARK 927      BINDING AFFINITY PREDICTED BY RF-SCORE:    0.00 PKD
ROOT
HETATM    1  F   UNL     1     -13.441  15.801  71.352  1.00  0.00    -0.523 F  
HETATM    2  C   UNL     1     -12.987  14.588  70.988  1.00  0.00    -0.358 C  
HETATM    3  C   UNL     1     -12.227  14.401  69.909  1.00  0.00    -0.340 C  
HETATM    4  N   UNL     1     -11.771  13.144  69.550  1.00  0.00    -0.312 N  
HETATM    5  C   UNL     1     -12.118  12.009  70.276  1.00  0.00    -0.312 C  
HETATM    6  O   UNL     1     -14.070  13.541  72.824  1.00  0.00    -0.719 OA 
HETATM    7  O   UNL     1     -11.799  10.865  69.960  1.00  0.00    -0.284 OA 
HETATM    8  H   UNL     1     -13.084  11.416  71.981  1.00  0.00     0.000 HD 
HETATM    9  N   UNL     1     -12.871  12.229  71.403  1.00  0.00    -0.339 N  
HETATM   10  C   UNL     1     -13.363  13.434  71.829  1.00  0.00    -0.394 C  
ENDROOT
BRANCH   4  11
HETATM   11  C   UNL     1     -10.945  12.945  68.370  1.00  0.00    -0.258 C  
HETATM   12  C   UNL     1     -11.729  12.914  67.067  1.00  0.00    -0.447 C  
HETATM   13  C   UNL     1     -10.641  13.218  66.068  1.00  0.00    -0.292 C  
HETATM   14  C   UNL     1      -9.790  14.229  66.811  1.00  0.00    -0.270 C  
HETATM   15  O   UNL     1      -9.983  14.005  68.216  1.00  0.00    -0.224 OA 
ENDBRANCH   4  11
TORSDOF 1
ENDMDL
MODEL       29
REMARK 921   NORMALIZED FREE ENERGY PREDICTED BY IDOCK:   -4.78 KCAL/MOL
REMARK 922        TOTAL FREE ENERGY PREDICTED BY IDOCK:   -5.25 KCAL/MOL
REMARK 923 INTER-LIGAND FREE ENERGY PREDICTED BY IDOCK:   -5.13 KCAL/MOL
REMARK 924 INTRA-LIGAND FREE ENERGY PREDICTED BY IDOCK:   -0.12 KCAL/MOL
REMARK 927      BINDING AFFINITY PREDICTED BY RF-SCORE:    0.00 PKD
ROOT
HETATM    1  F   UNL     1      -9.780  10.168  65.522  1.00  0.00    -0.251 F  
HETATM    2  C   UNL     1     -10.447  11.302  65.242  1.00  0.00    -0.282 C  
HETATM    3  C   UNL     1     -10.878  12.134  66.190  1.00  0.00    -0.282 C  
HETATM    4  N   UNL     1     -11.564  13.296  65.879  1.00  0.00    -0.333 N  
HETATM    5  C   UNL     1     -11.873  13.630  64.564  1.00  0.00    -0.412 C  
HETATM    6  O   UNL     1     -10.345  10.880  62.907  1.00  0.00    -0.186 OA 
HETATM    7  O   UNL     1     -12.540  14.611  64.242  1.00  0.00    -0.688 OA 
HETATM    8  H   UNL     1     -11.553  13.039  62.631  1.00  0.00     0.000 HD 
HETATM    9  N   UNL     1     -11.388  12.778  63.603  1.00  0.00    -0.457 N  
HETATM   10  C   UNL     1     -10.704  11.612  63.821  1.00  0.00    -0.419 C  
ENDROOT
BRANCH   4  11
HETATM   11  C   UNL     1     -12.035  14.199  66.918  1.00  0.00    -0.449 C  
HETATM   12  C   UNL     1     -11.971  13.613  68.320  1.00  0.00    -0.385 C  
HETATM   13  C   UNL     1     -12.004  14.866  69.159  1.00  0.00    -0.313 C  
HETATM   14  C   UNL     1     -11.173  15.831  68.334  1.00  0.00    -0.362 C  
HETATM   15  O   UNL     1     -11.246  15.402  66.966  1.00  0.00    -0.312 OA 
ENDBRANCH   4  11
TORSDOF 1
ENDMDL
MODEL       30
REMARK 921   NORMALIZED FREE ENERGY PREDICTED BY IDOCK:   -4.77 KCAL/MOL
REMARK 922        TOTAL FREE ENERGY PREDICTED BY IDOCK:   -5.24 KCAL/MOL
REMARK 923 INTER-LIGAND FREE ENERGY PREDICTED BY IDOCK:   -5.04 KCAL/MOL
REMARK 924 INTRA-LIGAND FREE ENERGY PREDICTED BY IDOCK:   -0.20 KCAL/MOL
REMARK 927      BINDING AFFINITY PREDICTED BY RF-SCORE:    0.00 PKD
ROOT
HETATM    1  F   UNL     1     -11.399   9.839  67.870  1.00  0.00    -0.281 F  
HETATM    2  C   UNL     1     -11.613  11.126  68.201  1.00  0.00    -0.280 C  
HETATM    3  C   UNL     1     -11.711  12.095  67.291  1.00  0.00    -0.299 C  
HETATM    4  N   UNL     1     -11.929  13.412  67.653  1.00  0.00    -0.344 N  
HETATM    5  C   UNL     1     -12.017  13.796  68.988  1.00  0.00    -0.360 C  
HETATM    6  O   UNL     1     -11.640  10.609  70.519  1.00  0.00    -0.315 OA 
HETATM    7  O   UNL     1     -12.138  14.960  69.363  1.00  0.00    -0.298 OA 
HETATM    8  H   UNL     1     -12.072  13.033  70.886  1.00  0.00     0.000 HD 
HETATM    9  N   UNL     1     -11.950  12.778  69.907  1.00  0.00    -0.325 N  
HETATM   10  C   UNL     1     -11.735  11.453  69.636  1.00  0.00    -0.345 C  
ENDROOT
BRANCH   4  11
HETATM   11  C   UNL     1     -12.032  14.467  66.656  1.00  0.00    -0.392 C  
HETATM   12  C   UNL     1     -10.692  14.909  66.087  1.00  0.00    -0.317 C  
HETATM   13  C   UNL     1     -11.127  15.563  64.800  1.00  0.00    -0.421 C  
HETATM   14  C   UNL     1     -12.268  14.672  64.351  1.00  0.00    -0.452 C  
HETATM   15  O   UNL     1     -12.812  14.044  65.522  1.00  0.00    -0.615 OA 
ENDBRANCH   4  11
TORSDOF 1
ENDMDL
MODEL       31
REMARK 921   NORMALIZED FREE ENERGY PREDICTED BY IDOCK:   -4.75 KCAL/MOL
REMARK 922        TOTAL FREE ENERGY PREDICTED BY IDOCK:   -5.22 KCAL/MOL
REMARK 923 INTER-LIGAND FREE ENERGY PREDICTED BY IDOCK:   -5.02 KCAL/MOL
REMARK 924 INTRA-LIGAND FREE ENERGY PREDICTED BY IDOCK:   -0.20 KCAL/MOL
REMARK 927      BINDING AFFINITY PREDICTED BY RF-SCORE:    0.00 PKD
ROOT
HETATM    1  F   UNL     1     -12.449  15.657  70.466  1.00  0.00    -0.370 F  
HETATM    2  C   UNL     1     -12.627  14.375  70.836  1.00  0.00    -0.352 C  
HETATM    3  C   UNL     1     -12.175  13.351  70.113  1.00  0.00    -0.315 C  
HETATM    4  N   UNL     1     -12.370  12.039  70.511  1.00  0.00    -0.319 N  
HETATM    5  C   UNL     1     -13.083  11.726  71.665  1.00  0.00    -0.338 C  
HETATM    6  O   UNL     1     -13.809  15.019  72.793  1.00  0.00    -0.454 OA 
HETATM    7  O   UNL     1     -13.344  10.580  72.023  1.00  0.00    -0.434 OA 
HETATM    8  H   UNL     1     -13.978  12.586  73.292  1.00  0.00     0.000 HD 
HETATM    9  N   UNL     1     -13.507  12.797  72.412  1.00  0.00    -0.520 N  
HETATM   10  C   UNL     1     -13.358  14.120  72.093  1.00  0.00    -0.436 C  
ENDROOT
BRANCH   4  11
HETATM   11  C   UNL     1     -11.879  10.924  69.716  1.00  0.00    -0.345 C  
HETATM   12  C   UNL     1     -11.756  11.233  68.232  1.00  0.00    -0.344 C  
HETATM   13  C   UNL     1     -10.789  10.161  67.793  1.00  0.00    -0.346 C  
HETATM   14  C   UNL     1      -9.845  10.071  68.977  1.00  0.00    -0.199 C  
HETATM   15  O   UNL     1     -10.563  10.519  70.137  1.00  0.00    -0.246 OA 
ENDBRANCH   4  11
TORSDOF 1
ENDMDL
MODEL       32
REMARK 921   NORMALIZED FREE ENERGY PREDICTED BY IDOCK:   -4.75 KCAL/MOL
REMARK 922        TOTAL FREE ENERGY PREDICTED BY IDOCK:   -5.21 KCAL/MOL
REMARK 923 INTER-LIGAND FREE ENERGY PREDICTED BY IDOCK:   -5.17 KCAL/MOL
REMARK 924 INTRA-LIGAND FREE ENERGY PREDICTED BY IDOCK:   -0.04 KCAL/MOL
REMARK 927      BINDING AFFINITY PREDICTED BY RF-SCORE:    0.00 PKD
ROOT
HETATM    1  F   UNL     1     -10.565  19.405  65.523  1.00  0.00    -0.514 F  
HETATM    2  C   UNL     1     -10.557  18.346  66.354  1.00  0.00    -0.309 C  
HETATM    3  C   UNL     1     -10.654  17.091  65.917  1.00  0.00    -0.216 C  
HETATM    4  N   UNL     1     -10.646  16.016  66.789  1.00  0.00    -0.315 N  
HETATM    5  C   UNL     1     -10.576  16.196  68.167  1.00  0.00    -0.290 C  
HETATM    6  O   UNL     1     -10.361  19.745  68.264  1.00  0.00    -0.435 OA 
HETATM    7  O   UNL     1     -10.636  15.281  68.985  1.00  0.00    -0.227 OA 
HETATM    8  H   UNL     1     -10.326  17.641  69.595  1.00  0.00     0.000 HD 
HETATM    9  N   UNL     1     -10.439  17.495  68.592  1.00  0.00    -0.358 N  
HETATM   10  C   UNL     1     -10.440  18.612  67.801  1.00  0.00    -0.411 C  
ENDROOT
BRANCH   4  11
HETATM   11  C   UNL     1     -10.756  14.648  66.308  1.00  0.00    -0.316 C  
HETATM   12  C   UNL     1     -12.151  14.056  66.447  1.00  0.00    -0.483 C  
HETATM   13  C   UNL     1     -12.086  12.927  65.450  1.00  0.00    -0.501 C  
HETATM   14  C   UNL     1     -11.257  13.528  64.331  1.00  0.00    -0.379 C  
HETATM   15  O   UNL     1     -10.436  14.555  64.907  1.00  0.00    -0.418 OA 
ENDBRANCH   4  11
TORSDOF 1
ENDMDL
MODEL       33
REMARK 921   NORMALIZED FREE ENERGY PREDICTED BY IDOCK:   -4.74 KCAL/MOL
REMARK 922        TOTAL FREE ENERGY PREDICTED BY IDOCK:   -5.20 KCAL/MOL
REMARK 923 INTER-LIGAND FREE ENERGY PREDICTED BY IDOCK:   -5.05 KCAL/MOL
REMARK 924 INTRA-LIGAND FREE ENERGY PREDICTED BY IDOCK:   -0.16 KCAL/MOL
REMARK 927      BINDING AFFINITY PREDICTED BY RF-SCORE:    0.00 PKD
ROOT
HETATM    1  F   UNL     1      -9.438  10.237  65.654  1.00  0.00    -0.203 F  
HETATM    2  C   UNL     1     -10.350  11.225  65.587  1.00  0.00    -0.256 C  
HETATM    3  C   UNL     1     -10.762  11.894  66.664  1.00  0.00    -0.256 C  
HETATM    4  N   UNL     1     -11.703  12.906  66.574  1.00  0.00    -0.374 N  
HETATM    5  C   UNL     1     -12.294  13.246  65.361  1.00  0.00    -0.479 C  
HETATM    6  O   UNL     1     -10.576  10.969  63.237  1.00  0.00    -0.312 OA 
HETATM    7  O   UNL     1     -13.183  14.085  65.239  1.00  0.00    -0.782 OA 
HETATM    8  H   UNL     1     -12.206  12.846  63.355  1.00  0.00     0.000 HD 
HETATM    9  N   UNL     1     -11.828  12.569  64.260  1.00  0.00    -0.368 N  
HETATM   10  C   UNL     1     -10.905  11.558  64.260  1.00  0.00    -0.359 C  
ENDROOT
BRANCH   4  11
HETATM   11  C   UNL     1     -12.152  13.631  67.752  1.00  0.00    -0.290 C  
HETATM   12  C   UNL     1     -11.828  12.934  69.065  1.00  0.00    -0.352 C  
HETATM   13  C   UNL     1     -11.919  14.086  70.034  1.00  0.00    -0.404 C  
HETATM   14  C   UNL     1     -11.340  15.234  69.230  1.00  0.00    -0.298 C  
HETATM   15  O   UNL     1     -11.531  14.927  67.840  1.00  0.00    -0.318 OA 
ENDBRANCH   4  11
TORSDOF 1
ENDMDL
MODEL       34
REMARK 921   NORMALIZED FREE ENERGY PREDICTED BY IDOCK:   -4.67 KCAL/MOL
REMARK 922        TOTAL FREE ENERGY PREDICTED BY IDOCK:   -5.13 KCAL/MOL
REMARK 923 INTER-LIGAND FREE ENERGY PREDICTED BY IDOCK:   -4.94 KCAL/MOL
REMARK 924 INTRA-LIGAND FREE ENERGY PREDICTED BY IDOCK:   -0.19 KCAL/MOL
REMARK 927      BINDING AFFINITY PREDICTED BY RF-SCORE:    0.00 PKD
ROOT
HETATM    1  F   UNL     1     -12.301  15.801  70.248  1.00  0.00    -0.378 F  
HETATM    2  C   UNL     1     -11.624  15.895  69.089  1.00  0.00    -0.379 C  
HETATM    3  C   UNL     1     -11.137  17.050  68.635  1.00  0.00    -0.128 C  
HETATM    4  N   UNL     1     -10.445  17.126  67.439  1.00  0.00    -0.343 N  
HETATM    5  C   UNL     1     -10.259  16.007  66.632  1.00  0.00    -0.291 C  
HETATM    6  O   UNL     1     -11.867  13.571  68.663  1.00  0.00    -0.333 OA 
HETATM    7  O   UNL     1      -9.715  16.035  65.531  1.00  0.00    -0.418 OA 
HETATM    8  H   UNL     1     -10.557  13.982  66.587  1.00  0.00     0.000 HD 
HETATM    9  N   UNL     1     -10.737  14.823  67.136  1.00  0.00    -0.293 N  
HETATM   10  C   UNL     1     -11.431  14.659  68.305  1.00  0.00    -0.314 C  
ENDROOT
BRANCH   4  11
HETATM   11  C   UNL     1      -9.918  18.389  66.946  1.00  0.00    -0.353 C  
HETATM   12  C   UNL     1     -10.634  19.613  67.498  1.00  0.00    -0.577 C  
HETATM   13  C   UNL     1      -9.602  20.685  67.255  1.00  0.00    -0.558 C  
HETATM   14  C   UNL     1      -8.302  19.956  67.536  1.00  0.00    -0.324 C  
HETATM   15  O   UNL     1      -8.534  18.558  67.305  1.00  0.00    -0.253 OA 
ENDBRANCH   4  11
TORSDOF 1
ENDMDL
MODEL       35
REMARK 921   NORMALIZED FREE ENERGY PREDICTED BY IDOCK:   -4.65 KCAL/MOL
REMARK 922        TOTAL FREE ENERGY PREDICTED BY IDOCK:   -5.11 KCAL/MOL
REMARK 923 INTER-LIGAND FREE ENERGY PREDICTED BY IDOCK:   -4.94 KCAL/MOL
REMARK 924 INTRA-LIGAND FREE ENERGY PREDICTED BY IDOCK:   -0.17 KCAL/MOL
REMARK 927      BINDING AFFINITY PREDICTED BY RF-SCORE:    0.00 PKD
ROOT
HETATM    1  F   UNL     1      -9.462  13.850  68.269  1.00  0.00    -0.192 F  
HETATM    2  C   UNL     1     -10.355  13.517  67.320  1.00  0.00    -0.241 C  
HETATM    3  C   UNL     1     -10.111  12.581  66.402  1.00  0.00    -0.243 C  
HETATM    4  N   UNL     1     -11.043  12.255  65.432  1.00  0.00    -0.302 N  
HETATM    5  C   UNL     1     -12.265  12.917  65.343  1.00  0.00    -0.478 C  
HETATM    6  O   UNL     1     -11.921  15.113  68.119  1.00  0.00    -0.290 OA 
HETATM    7  O   UNL     1     -13.095  12.715  64.460  1.00  0.00    -0.763 OA 
HETATM    8  H   UNL     1     -13.423  14.303  66.306  1.00  0.00     0.000 HD 
HETATM    9  N   UNL     1     -12.509  13.851  66.320  1.00  0.00    -0.443 N  
HETATM   10  C   UNL     1     -11.645  14.234  67.311  1.00  0.00    -0.377 C  
ENDROOT
BRANCH   4  11
HETATM   11  C   UNL     1     -10.772  11.236  64.431  1.00  0.00    -0.339 C  
HETATM   12  C   UNL     1     -10.022  11.753  63.213  1.00  0.00    -0.435 C  
HETATM   13  C   UNL     1      -9.455  10.471  62.657  1.00  0.00    -0.326 C  
HETATM   14  C   UNL     1      -9.104   9.698  63.914  1.00  0.00    -0.185 C  
HETATM   15  O   UNL     1      -9.955  10.178  64.966  1.00  0.00    -0.322 OA 
ENDBRANCH   4  11
TORSDOF 1
ENDMDL
MODEL       36
REMARK 921   NORMALIZED FREE ENERGY PREDICTED BY IDOCK:   -4.65 KCAL/MOL
REMARK 922        TOTAL FREE ENERGY PREDICTED BY IDOCK:   -5.10 KCAL/MOL
REMARK 923 INTER-LIGAND FREE ENERGY PREDICTED BY IDOCK:   -4.91 KCAL/MOL
REMARK 924 INTRA-LIGAND FREE ENERGY PREDICTED BY IDOCK:   -0.19 KCAL/MOL
REMARK 927      BINDING AFFINITY PREDICTED BY RF-SCORE:    0.00 PKD
ROOT
HETATM    1  F   UNL     1      -8.913  11.469  66.330  1.00  0.00    -0.180 F  
HETATM    2  C   UNL     1      -9.797  12.327  65.788  1.00  0.00    -0.244 C  
HETATM    3  C   UNL     1      -9.984  13.558  66.262  1.00  0.00    -0.298 C  
HETATM    4  N   UNL     1     -10.900  14.425  65.691  1.00  0.00    -0.304 N  
HETATM    5  C   UNL     1     -11.698  14.038  64.618  1.00  0.00    -0.405 C  
HETATM    6  O   UNL     1     -10.464  10.736  64.156  1.00  0.00    -0.364 OA 
HETATM    7  O   UNL     1     -12.573  14.744  64.122  1.00  0.00    -0.784 OA 
HETATM    8  H   UNL     1     -11.997  12.501  63.300  1.00  0.00     0.000 HD 
HETATM    9  N   UNL     1     -11.463  12.779  64.124  1.00  0.00    -0.365 N  
HETATM   10  C   UNL     1     -10.581  11.861  64.627  1.00  0.00    -0.306 C  
ENDROOT
BRANCH   4  11
HETATM   11  C   UNL     1     -11.103  15.767  66.214  1.00  0.00    -0.073 C  
HETATM   12  C   UNL     1     -10.706  15.926  67.674  1.00  0.00    -0.312 C  
HETATM   13  C   UNL     1     -10.530  17.421  67.764  1.00  0.00    -0.376 C  
HETATM   14  C   UNL     1      -9.917  17.758  66.419  1.00  0.00    -0.344 C  
HETATM   15  O   UNL     1     -10.319  16.736  65.494  1.00  0.00    -0.558 OA 
ENDBRANCH   4  11
TORSDOF 1
ENDMDL
MODEL       37
REMARK 921   NORMALIZED FREE ENERGY PREDICTED BY IDOCK:   -4.58 KCAL/MOL
REMARK 922        TOTAL FREE ENERGY PREDICTED BY IDOCK:   -5.03 KCAL/MOL
REMARK 923 INTER-LIGAND FREE ENERGY PREDICTED BY IDOCK:   -4.87 KCAL/MOL
REMARK 924 INTRA-LIGAND FREE ENERGY PREDICTED BY IDOCK:   -0.16 KCAL/MOL
REMARK 927      BINDING AFFINITY PREDICTED BY RF-SCORE:    0.00 PKD
ROOT
HETATM    1  F   UNL     1     -13.006  13.238  65.318  1.00  0.00    -0.517 F  
HETATM    2  C   UNL     1     -12.106  13.684  66.213  1.00  0.00    -0.434 C  
HETATM    3  C   UNL     1     -11.628  14.929  66.191  1.00  0.00    -0.228 C  
HETATM    4  N   UNL     1     -10.701  15.368  67.120  1.00  0.00    -0.310 N  
HETATM    5  C   UNL     1     -10.191  14.519  68.098  1.00  0.00    -0.230 C  
HETATM    6  O   UNL     1     -12.032  11.579  67.310  1.00  0.00    -0.605 OA 
HETATM    7  O   UNL     1      -9.317  14.838  68.900  1.00  0.00    -0.199 OA 
HETATM    8  H   UNL     1     -10.407  12.636  68.873  1.00  0.00     0.000 HD 
HETATM    9  N   UNL     1     -10.724  13.253  68.125  1.00  0.00    -0.242 N  
HETATM   10  C   UNL     1     -11.640  12.739  67.247  1.00  0.00    -0.360 C  
ENDROOT
BRANCH   4  11
HETATM   11  C   UNL     1     -10.180  16.725  67.089  1.00  0.00    -0.295 C  
HETATM   12  C   UNL     1     -10.394  17.437  65.761  1.00  0.00    -0.226 C  
HETATM   13  C   UNL     1     -10.253  18.879  66.181  1.00  0.00    -0.485 C  
HETATM   14  C   UNL     1     -10.911  18.886  67.548  1.00  0.00    -0.364 C  
HETATM   15  O   UNL     1     -10.816  17.555  68.078  1.00  0.00    -0.378 OA 
ENDBRANCH   4  11
TORSDOF 1
ENDMDL
MODEL       38
REMARK 921   NORMALIZED FREE ENERGY PREDICTED BY IDOCK:   -4.57 KCAL/MOL
REMARK 922        TOTAL FREE ENERGY PREDICTED BY IDOCK:   -5.03 KCAL/MOL
REMARK 923 INTER-LIGAND FREE ENERGY PREDICTED BY IDOCK:   -4.95 KCAL/MOL
REMARK 924 INTRA-LIGAND FREE ENERGY PREDICTED BY IDOCK:   -0.08 KCAL/MOL
REMARK 927      BINDING AFFINITY PREDICTED BY RF-SCORE:    0.00 PKD
ROOT
HETATM    1  F   UNL     1     -10.896  16.571  67.289  1.00  0.00    -0.320 F  
HETATM    2  C   UNL     1     -11.198  15.268  67.436  1.00  0.00    -0.311 C  
HETATM    3  C   UNL     1     -11.134  14.398  66.428  1.00  0.00    -0.326 C  
HETATM    4  N   UNL     1     -11.451  13.062  66.601  1.00  0.00    -0.319 N  
HETATM    5  C   UNL     1     -11.890  12.570  67.826  1.00  0.00    -0.313 C  
HETATM    6  O   UNL     1     -11.711  15.564  69.736  1.00  0.00    -0.302 OA 
HETATM    7  O   UNL     1     -12.251  11.410  68.013  1.00  0.00    -0.607 OA 
HETATM    8  H   UNL     1     -12.176  13.119  69.777  1.00  0.00     0.000 HD 
HETATM    9  N   UNL     1     -11.914  13.475  68.859  1.00  0.00    -0.349 N  
HETATM   10  C   UNL     1     -11.619  14.810  68.775  1.00  0.00    -0.320 C  
ENDROOT
BRANCH   4  11
HETATM   11  C   UNL     1     -11.382  12.117  65.497  1.00  0.00    -0.344 C  
HETATM   12  C   UNL     1     -11.140  12.768  64.143  1.00  0.00    -0.432 C  
HETATM   13  C   UNL     1     -10.617  11.597  63.350  1.00  0.00    -0.472 C  
HETATM   14  C   UNL     1      -9.781  10.856  64.376  1.00  0.00    -0.290 C  
HETATM   15  O   UNL     1     -10.304  11.180  65.673  1.00  0.00    -0.242 OA 
ENDBRANCH   4  11
TORSDOF 1
ENDMDL
MODEL       39
REMARK 921   NORMALIZED FREE ENERGY PREDICTED BY IDOCK:   -4.57 KCAL/MOL
REMARK 922        TOTAL FREE ENERGY PREDICTED BY IDOCK:   -5.03 KCAL/MOL
REMARK 923 INTER-LIGAND FREE ENERGY PREDICTED BY IDOCK:   -4.84 KCAL/MOL
REMARK 924 INTRA-LIGAND FREE ENERGY PREDICTED BY IDOCK:   -0.19 KCAL/MOL
REMARK 927      BINDING AFFINITY PREDICTED BY RF-SCORE:    0.00 PKD
ROOT
HETATM    1  F   UNL     1     -10.538  19.981  68.105  1.00  0.00    -0.524 F  
HETATM    2  C   UNL     1      -9.827  18.908  67.713  1.00  0.00    -0.337 C  
HETATM    3  C   UNL     1     -10.318  17.985  66.885  1.00  0.00    -0.370 C  
HETATM    4  N   UNL     1      -9.570  16.887  66.496  1.00  0.00    -0.264 N  
HETATM    5  C   UNL     1      -8.283  16.672  66.981  1.00  0.00    -0.191 C  
HETATM    6  O   UNL     1      -7.953  19.574  69.011  1.00  0.00    -0.356 OA 
HETATM    7  O   UNL     1      -7.607  15.680  66.723  1.00  0.00    -0.204 OA 
HETATM    8  H   UNL     1      -6.822  17.543  68.120  1.00  0.00     0.000 HD 
HETATM    9  N   UNL     1      -7.785  17.653  67.803  1.00  0.00    -0.205 N  
HETATM   10  C   UNL     1      -8.454  18.766  68.237  1.00  0.00    -0.327 C  
ENDROOT
BRANCH   4  11
HETATM   11  C   UNL     1     -10.112  15.881  65.596  1.00  0.00    -0.358 C  
HETATM   12  C   UNL     1     -11.013  14.863  66.280  1.00  0.00    -0.338 C  
HETATM   13  C   UNL     1     -11.789  14.329  65.103  1.00  0.00    -0.384 C  
HETATM   14  C   UNL     1     -11.984  15.568  64.251  1.00  0.00    -0.153 C  
HETATM   15  O   UNL     1     -10.918  16.478  64.564  1.00  0.00    -0.827 OA 
ENDBRANCH   4  11
TORSDOF 1
ENDMDL
MODEL       40
REMARK 921   NORMALIZED FREE ENERGY PREDICTED BY IDOCK:   -4.50 KCAL/MOL
REMARK 922        TOTAL FREE ENERGY PREDICTED BY IDOCK:   -4.95 KCAL/MOL
REMARK 923 INTER-LIGAND FREE ENERGY PREDICTED BY IDOCK:   -4.76 KCAL/MOL
REMARK 924 INTRA-LIGAND FREE ENERGY PREDICTED BY IDOCK:   -0.19 KCAL/MOL
REMARK 927      BINDING AFFINITY PREDICTED BY RF-SCORE:    0.00 PKD
ROOT
HETATM    1  F   UNL     1     -11.027  12.543  67.548  1.00  0.00    -0.235 F  
HETATM    2  C   UNL     1     -11.565  12.590  68.781  1.00  0.00    -0.322 C  
HETATM    3  C   UNL     1     -11.667  11.514  69.560  1.00  0.00    -0.346 C  
HETATM    4  N   UNL     1     -12.226  11.583  70.825  1.00  0.00    -0.381 N  
HETATM    5  C   UNL     1     -12.746  12.772  71.327  1.00  0.00    -0.269 C  
HETATM    6  O   UNL     1     -12.007  14.916  68.587  1.00  0.00    -0.302 OA 
HETATM    7  O   UNL     1     -13.315  12.871  72.412  1.00  0.00    -0.528 OA 
HETATM    8  H   UNL     1     -12.919  14.767  70.899  1.00  0.00     0.000 HD 
HETATM    9  N   UNL     1     -12.598  13.875  70.522  1.00  0.00    -0.331 N  
HETATM   10  C   UNL     1     -12.060  13.895  69.263  1.00  0.00    -0.339 C  
ENDROOT
BRANCH   4  11
HETATM   11  C   UNL     1     -12.338  10.405  71.671  1.00  0.00    -0.304 C  
HETATM   12  C   UNL     1     -13.534   9.523  71.343  1.00  0.00    -0.405 C  
HETATM   13  C   UNL     1     -13.109   8.218  71.967  1.00  0.00    -0.351 C  
HETATM   14  C   UNL     1     -11.618   8.193  71.687  1.00  0.00    -0.279 C  
HETATM   15  O   UNL     1     -11.184   9.554  71.543  1.00  0.00    -0.372 OA 
ENDBRANCH   4  11
TORSDOF 1
ENDMDL
MODEL       41
REMARK 921   NORMALIZED FREE ENERGY PREDICTED BY IDOCK:   -4.50 KCAL/MOL
REMARK 922        TOTAL FREE ENERGY PREDICTED BY IDOCK:   -4.95 KCAL/MOL
REMARK 923 INTER-LIGAND FREE ENERGY PREDICTED BY IDOCK:   -4.75 KCAL/MOL
REMARK 924 INTRA-LIGAND FREE ENERGY PREDICTED BY IDOCK:   -0.20 KCAL/MOL
REMARK 927      BINDING AFFINITY PREDICTED BY RF-SCORE:    0.00 PKD
ROOT
HETATM    1  F   UNL     1     -10.836  13.967  65.787  1.00  0.00    -0.281 F  
HETATM    2  C   UNL     1     -10.997  14.590  66.969  1.00  0.00    -0.312 C  
HETATM    3  C   UNL     1     -10.588  15.840  67.182  1.00  0.00    -0.313 C  
HETATM    4  N   UNL     1     -10.762  16.462  68.406  1.00  0.00    -0.310 N  
HETATM    5  C   UNL     1     -11.336  15.798  69.486  1.00  0.00    -0.328 C  
HETATM    6  O   UNL     1     -12.034  12.679  67.926  1.00  0.00    -0.349 OA 
HETATM    7  O   UNL     1     -11.448  16.281  70.611  1.00  0.00    -0.377 OA 
HETATM    8  H   UNL     1     -12.259  14.044  69.996  1.00  0.00     0.000 HD 
HETATM    9  N   UNL     1     -11.782  14.524  69.233  1.00  0.00    -0.292 N  
HETATM   10  C   UNL     1     -11.650  13.836  68.057  1.00  0.00    -0.333 C  
ENDROOT
BRANCH   4  11
HETATM   11  C   UNL     1     -10.311  17.826  68.635  1.00  0.00    -0.350 C  
HETATM   12  C   UNL     1      -8.800  17.994  68.572  1.00  0.00    -0.304 C  
HETATM   13  C   UNL     1      -8.685  19.478  68.324  1.00  0.00    -0.380 C  
HETATM   14  C   UNL     1      -9.858  19.745  67.400  1.00  0.00    -0.391 C  
HETATM   15  O   UNL     1     -10.841  18.728  67.647  1.00  0.00    -0.426 OA 
ENDBRANCH   4  11
TORSDOF 1
ENDMDL
MODEL       42
REMARK 921   NORMALIZED FREE ENERGY PREDICTED BY IDOCK:   -4.49 KCAL/MOL
REMARK 922        TOTAL FREE ENERGY PREDICTED BY IDOCK:   -4.94 KCAL/MOL
REMARK 923 INTER-LIGAND FREE ENERGY PREDICTED BY IDOCK:   -4.74 KCAL/MOL
REMARK 924 INTRA-LIGAND FREE ENERGY PREDICTED BY IDOCK:   -0.20 KCAL/MOL
REMARK 927      BINDING AFFINITY PREDICTED BY RF-SCORE:    0.00 PKD
ROOT
HETATM    1  F   UNL     1     -13.092  13.017  65.164  1.00  0.00    -0.522 F  
HETATM    2  C   UNL     1     -12.052  13.366  65.943  1.00  0.00    -0.439 C  
HETATM    3  C   UNL     1     -12.193  13.674  67.233  1.00  0.00    -0.275 C  
HETATM    4  N   UNL     1     -11.110  14.032  68.016  1.00  0.00    -0.255 N  
HETATM    5  C   UNL     1      -9.827  14.127  67.486  1.00  0.00    -0.235 C  
HETATM    6  O   UNL     1     -10.523  13.149  64.139  1.00  0.00    -0.421 OA 
HETATM    7  O   UNL     1      -8.846  14.509  68.121  1.00  0.00    -0.163 OA 
HETATM    8  H   UNL     1      -8.757  13.777  65.777  1.00  0.00     0.000 HD 
HETATM    9  N   UNL     1      -9.699  13.771  66.166  1.00  0.00    -0.286 N  
HETATM   10  C   UNL     1     -10.714  13.407  65.322  1.00  0.00    -0.313 C  
ENDROOT
BRANCH   4  11
HETATM   11  C   UNL     1     -11.270  14.370  69.422  1.00  0.00    -0.281 C  
HETATM   12  C   UNL     1     -11.972  15.699  69.660  1.00  0.00    -0.367 C  
HETATM   13  C   UNL     1     -12.439  15.527  71.084  1.00  0.00    -0.491 C  
HETATM   14  C   UNL     1     -12.823  14.061  71.127  1.00  0.00    -0.357 C  
HETATM   15  O   UNL     1     -12.061  13.386  70.114  1.00  0.00    -0.333 OA 
ENDBRANCH   4  11
TORSDOF 1
ENDMDL
MODEL       43
REMARK 921   NORMALIZED FREE ENERGY PREDICTED BY IDOCK:   -4.48 KCAL/MOL
REMARK 922        TOTAL FREE ENERGY PREDICTED BY IDOCK:   -4.92 KCAL/MOL
REMARK 923 INTER-LIGAND FREE ENERGY PREDICTED BY IDOCK:   -4.74 KCAL/MOL
REMARK 924 INTRA-LIGAND FREE ENERGY PREDICTED BY IDOCK:   -0.19 KCAL/MOL
REMARK 927      BINDING AFFINITY PREDICTED BY RF-SCORE:    0.00 PKD
ROOT
HETATM    1  F   UNL     1     -11.398  10.948  70.031  1.00  0.00    -0.295 F  
HETATM    2  C   UNL     1     -11.951  12.155  70.246  1.00  0.00    -0.305 C  
HETATM    3  C   UNL     1     -11.626  13.231  69.529  1.00  0.00    -0.286 C  
HETATM    4  N   UNL     1     -12.205  14.465  69.767  1.00  0.00    -0.326 N  
HETATM    5  C   UNL     1     -13.126  14.652  70.794  1.00  0.00    -0.323 C  
HETATM    6  O   UNL     1     -13.279  11.320  72.029  1.00  0.00    -0.506 OA 
HETATM    7  O   UNL     1     -13.614  15.739  71.092  1.00  0.00    -0.576 OA 
HETATM    8  H   UNL     1     -14.191  13.630  72.213  1.00  0.00     0.000 HD 
HETATM    9  N   UNL     1     -13.473  13.523  71.496  1.00  0.00    -0.288 N  
HETATM   10  C   UNL     1     -12.950  12.269  71.327  1.00  0.00    -0.204 C  
ENDROOT
BRANCH   4  11
HETATM   11  C   UNL     1     -11.844  15.637  68.984  1.00  0.00    -0.364 C  
HETATM   12  C   UNL     1     -10.576  16.329  69.460  1.00  0.00    -0.314 C  
HETATM   13  C   UNL     1     -10.194  17.111  68.228  1.00  0.00    -0.334 C  
HETATM   14  C   UNL     1     -10.570  16.158  67.109  1.00  0.00    -0.294 C  
HETATM   15  O   UNL     1     -11.604  15.295  67.607  1.00  0.00    -0.326 OA 
ENDBRANCH   4  11
TORSDOF 1
ENDMDL
MODEL       44
REMARK 921   NORMALIZED FREE ENERGY PREDICTED BY IDOCK:   -4.46 KCAL/MOL
REMARK 922        TOTAL FREE ENERGY PREDICTED BY IDOCK:   -4.91 KCAL/MOL
REMARK 923 INTER-LIGAND FREE ENERGY PREDICTED BY IDOCK:   -5.46 KCAL/MOL
REMARK 924 INTRA-LIGAND FREE ENERGY PREDICTED BY IDOCK:    0.54 KCAL/MOL
REMARK 927      BINDING AFFINITY PREDICTED BY RF-SCORE:    0.00 PKD
ROOT
HETATM    1  F   UNL     1      -9.422  17.143  66.126  1.00  0.00    -0.266 F  
HETATM    2  C   UNL     1     -10.177  16.030  66.089  1.00  0.00    -0.324 C  
HETATM    3  C   UNL     1     -10.075  15.063  67.001  1.00  0.00    -0.244 C  
HETATM    4  N   UNL     1     -10.860  13.925  66.944  1.00  0.00    -0.284 N  
HETATM    5  C   UNL     1     -11.766  13.716  65.908  1.00  0.00    -0.354 C  
HETATM    6  O   UNL     1     -11.275  16.743  64.107  1.00  0.00    -1.155 OA 
HETATM    7  O   UNL     1     -12.434  12.693  65.773  1.00  0.00    -0.607 OA 
HETATM    8  H   UNL     1     -12.583  14.630  64.269  1.00  0.00     0.000 HD 
HETATM    9  N   UNL     1     -11.881  14.740  65.001  1.00  0.00    -0.364 N  
HETATM   10  C   UNL     1     -11.146  15.895  64.982  1.00  0.00    -0.360 C  
ENDROOT
BRANCH   4  11
HETATM   11  C   UNL     1     -10.743  12.871  67.939  1.00  0.00    -0.220 C  
HETATM   12  C   UNL     1     -11.876  12.853  68.954  1.00  0.00    -0.352 C  
HETATM   13  C   UNL     1     -11.775  11.441  69.474  1.00  0.00    -0.417 C  
HETATM   14  C   UNL     1     -11.407  10.660  68.228  1.00  0.00    -0.289 C  
HETATM   15  O   UNL     1     -10.750  11.567  67.329  1.00  0.00    -0.220 OA 
ENDBRANCH   4  11
TORSDOF 1
ENDMDL
MODEL       45
REMARK 921   NORMALIZED FREE ENERGY PREDICTED BY IDOCK:   -4.44 KCAL/MOL
REMARK 922        TOTAL FREE ENERGY PREDICTED BY IDOCK:   -4.89 KCAL/MOL
REMARK 923 INTER-LIGAND FREE ENERGY PREDICTED BY IDOCK:   -4.84 KCAL/MOL
REMARK 924 INTRA-LIGAND FREE ENERGY PREDICTED BY IDOCK:   -0.05 KCAL/MOL
REMARK 927      BINDING AFFINITY PREDICTED BY RF-SCORE:    0.00 PKD
ROOT
HETATM    1  F   UNL     1     -10.126  17.701  68.332  1.00  0.00    -0.287 F  
HETATM    2  C   UNL     1     -10.517  16.808  67.404  1.00  0.00    -0.310 C  
HETATM    3  C   UNL     1     -10.927  15.580  67.718  1.00  0.00    -0.317 C  
HETATM    4  N   UNL     1     -11.323  14.676  66.747  1.00  0.00    -0.348 N  
HETATM    5  C   UNL     1     -11.275  14.993  65.393  1.00  0.00    -0.356 C  
HETATM    6  O   UNL     1     -10.097  18.339  65.637  1.00  0.00    -0.532 OA 
HETATM    7  O   UNL     1     -11.548  14.204  64.491  1.00  0.00    -0.380 OA 
HETATM    8  H   UNL     1     -10.901  16.544  64.111  1.00  0.00     0.000 HD 
HETATM    9  N   UNL     1     -10.885  16.275  65.095  1.00  0.00    -0.378 N  
HETATM   10  C   UNL     1     -10.477  17.229  65.989  1.00  0.00    -0.282 C  
ENDROOT
BRANCH   4  11
HETATM   11  C   UNL     1     -11.766  13.335  67.095  1.00  0.00    -0.376 C  
HETATM   12  C   UNL     1     -10.700  12.266  66.907  1.00  0.00    -0.264 C  
HETATM   13  C   UNL     1     -11.235  11.167  67.791  1.00  0.00    -0.359 C  
HETATM   14  C   UNL     1     -11.818  11.941  68.957  1.00  0.00    -0.308 C  
HETATM   15  O   UNL     1     -12.157  13.252  68.478  1.00  0.00    -0.341 OA 
ENDBRANCH   4  11
TORSDOF 1
ENDMDL
MODEL       46
REMARK 921   NORMALIZED FREE ENERGY PREDICTED BY IDOCK:   -4.43 KCAL/MOL
REMARK 922        TOTAL FREE ENERGY PREDICTED BY IDOCK:   -4.88 KCAL/MOL
REMARK 923 INTER-LIGAND FREE ENERGY PREDICTED BY IDOCK:   -4.71 KCAL/MOL
REMARK 924 INTRA-LIGAND FREE ENERGY PREDICTED BY IDOCK:   -0.17 KCAL/MOL
REMARK 927      BINDING AFFINITY PREDICTED BY RF-SCORE:    0.00 PKD
ROOT
HETATM    1  F   UNL     1     -12.145  15.175  64.312  1.00  0.00    -0.453 F  
HETATM    2  C   UNL     1     -11.055  15.365  65.078  1.00  0.00    -0.418 C  
HETATM    3  C   UNL     1     -10.751  16.548  65.612  1.00  0.00    -0.248 C  
HETATM    4  N   UNL     1      -9.623  16.723  66.395  1.00  0.00    -0.267 N  
HETATM    5  C   UNL     1      -8.731  15.682  66.631  1.00  0.00    -0.298 C  
HETATM    6  O   UNL     1     -10.394  13.096  64.843  1.00  0.00    -0.323 OA 
HETATM    7  O   UNL     1      -7.682  15.803  67.258  1.00  0.00    -0.161 OA 
HETATM    8  H   UNL     1      -8.472  13.676  66.315  1.00  0.00     0.000 HD 
HETATM    9  N   UNL     1      -9.083  14.464  66.102  1.00  0.00    -0.106 N  
HETATM   10  C   UNL     1     -10.175  14.205  65.318  1.00  0.00    -0.375 C  
ENDROOT
BRANCH   4  11
HETATM   11  C   UNL     1      -9.293  18.017  66.972  1.00  0.00    -0.265 C  
HETATM   12  C   UNL     1      -9.980  19.190  66.288  1.00  0.00    -0.462 C  
HETATM   13  C   UNL     1      -9.882  20.247  67.359  1.00  0.00    -0.586 C  
HETATM   14  C   UNL     1     -10.090  19.443  68.629  1.00  0.00    -0.428 C  
HETATM   15  O   UNL     1      -9.688  18.092  68.354  1.00  0.00    -0.319 OA 
ENDBRANCH   4  11
TORSDOF 1
ENDMDL
MODEL       47
REMARK 921   NORMALIZED FREE ENERGY PREDICTED BY IDOCK:   -4.41 KCAL/MOL
REMARK 922        TOTAL FREE ENERGY PREDICTED BY IDOCK:   -4.86 KCAL/MOL
REMARK 923 INTER-LIGAND FREE ENERGY PREDICTED BY IDOCK:   -4.69 KCAL/MOL
REMARK 924 INTRA-LIGAND FREE ENERGY PREDICTED BY IDOCK:   -0.17 KCAL/MOL
REMARK 927      BINDING AFFINITY PREDICTED BY RF-SCORE:    0.00 PKD
ROOT
HETATM    1  F   UNL     1     -13.630  12.686  72.533  1.00  0.00    -0.622 F  
HETATM    2  C   UNL     1     -12.879  12.211  71.523  1.00  0.00    -0.289 C  
HETATM    3  C   UNL     1     -12.315  13.007  70.614  1.00  0.00    -0.310 C  
HETATM    4  N   UNL     1     -11.547  12.498  69.581  1.00  0.00    -0.277 N  
HETATM    5  C   UNL     1     -11.359  11.128  69.418  1.00  0.00    -0.283 C  
HETATM    6  O   UNL     1     -13.196   9.967  72.233  1.00  0.00    -0.427 OA 
HETATM    7  O   UNL     1     -10.747  10.624  68.479  1.00  0.00    -0.189 OA 
HETATM    8  H   UNL     1     -11.741   9.329  70.316  1.00  0.00     0.000 HD 
HETATM    9  N   UNL     1     -11.919  10.331  70.386  1.00  0.00    -0.293 N  
HETATM   10  C   UNL     1     -12.691  10.750  71.436  1.00  0.00    -0.439 C  
ENDROOT
BRANCH   4  11
HETATM   11  C   UNL     1     -10.936  13.369  68.589  1.00  0.00    -0.260 C  
HETATM   12  C   UNL     1     -11.846  13.701  67.416  1.00  0.00    -0.429 C  
HETATM   13  C   UNL     1     -11.187  14.949  66.883  1.00  0.00    -0.343 C  
HETATM   14  C   UNL     1     -10.736  15.646  68.152  1.00  0.00    -0.287 C  
HETATM   15  O   UNL     1     -10.565  14.638  69.160  1.00  0.00    -0.239 OA 
ENDBRANCH   4  11
TORSDOF 1
ENDMDL
MODEL       48
REMARK 921   NORMALIZED FREE ENERGY PREDICTED BY IDOCK:   -4.41 KCAL/MOL
REMARK 922        TOTAL FREE ENERGY PREDICTED BY IDOCK:   -4.85 KCAL/MOL
REMARK 923 INTER-LIGAND FREE ENERGY PREDICTED BY IDOCK:   -4.70 KCAL/MOL
REMARK 924 INTRA-LIGAND FREE ENERGY PREDICTED BY IDOCK:   -0.15 KCAL/MOL
REMARK 927      BINDING AFFINITY PREDICTED BY RF-SCORE:    0.00 PKD
ROOT
HETATM    1  F   UNL     1     -12.713  11.003  70.959  1.00  0.00    -0.396 F  
HETATM    2  C   UNL     1     -12.523  12.248  70.486  1.00  0.00    -0.189 C  
HETATM    3  C   UNL     1     -11.983  12.486  69.291  1.00  0.00    -0.250 C  
HETATM    4  N   UNL     1     -11.793  13.775  68.824  1.00  0.00    -0.346 N  
HETATM    5  C   UNL     1     -12.121  14.886  69.596  1.00  0.00    -0.295 C  
HETATM    6  O   UNL     1     -13.420  13.222  72.458  1.00  0.00    -0.573 OA 
HETATM    7  O   UNL     1     -11.908  16.047  69.256  1.00  0.00    -0.345 OA 
HETATM    8  H   UNL     1     -13.011  15.419  71.360  1.00  0.00     0.000 HD 
HETATM    9  N   UNL     1     -12.709  14.617  70.807  1.00  0.00    -0.343 N  
HETATM   10  C   UNL     1     -12.931  13.378  71.345  1.00  0.00    -0.328 C  
ENDROOT
BRANCH   4  11
HETATM   11  C   UNL     1     -11.200  14.030  67.520  1.00  0.00    -0.309 C  
HETATM   12  C   UNL     1     -10.485  12.827  66.923  1.00  0.00    -0.250 C  
HETATM   13  C   UNL     1     -10.453  13.206  65.463  1.00  0.00    -0.297 C  
HETATM   14  C   UNL     1     -11.794  13.890  65.275  1.00  0.00    -0.357 C  
HETATM   15  O   UNL     1     -12.198  14.406  66.553  1.00  0.00    -0.424 OA 
ENDBRANCH   4  11
TORSDOF 1
ENDMDL
MODEL       49
REMARK 921   NORMALIZED FREE ENERGY PREDICTED BY IDOCK:   -4.40 KCAL/MOL
REMARK 922        TOTAL FREE ENERGY PREDICTED BY IDOCK:   -4.85 KCAL/MOL
REMARK 923 INTER-LIGAND FREE ENERGY PREDICTED BY IDOCK:   -4.65 KCAL/MOL
REMARK 924 INTRA-LIGAND FREE ENERGY PREDICTED BY IDOCK:   -0.20 KCAL/MOL
REMARK 927      BINDING AFFINITY PREDICTED BY RF-SCORE:    0.00 PKD
ROOT
HETATM    1  F   UNL     1     -10.571  10.809  63.360  1.00  0.00    -0.376 F  
HETATM    2  C   UNL     1     -10.940  11.736  64.263  1.00  0.00    -0.359 C  
HETATM    3  C   UNL     1     -10.133  12.144  65.243  1.00  0.00    -0.265 C  
HETATM    4  N   UNL     1     -10.533  13.098  66.163  1.00  0.00    -0.276 N  
HETATM    5  C   UNL     1     -11.812  13.648  66.133  1.00  0.00    -0.392 C  
HETATM    6  O   UNL     1     -13.088  11.960  63.275  1.00  0.00    -0.674 OA 
HETATM    7  O   UNL     1     -12.238  14.443  66.966  1.00  0.00    -0.400 OA 
HETATM    8  H   UNL     1     -13.530  13.678  65.021  1.00  0.00     0.000 HD 
HETATM    9  N   UNL     1     -12.612  13.241  65.094  1.00  0.00    -0.468 N  
HETATM   10  C   UNL     1     -12.297  12.305  64.145  1.00  0.00    -0.451 C  
ENDROOT
BRANCH   4  11
HETATM   11  C   UNL     1      -9.651  13.537  67.232  1.00  0.00    -0.235 C  
HETATM   12  C   UNL     1      -8.696  12.460  67.725  1.00  0.00    -0.176 C  
HETATM   13  C   UNL     1      -7.634  13.299  68.391  1.00  0.00    -0.137 C  
HETATM   14  C   UNL     1      -7.549  14.504  67.475  1.00  0.00    -0.190 C  
HETATM   15  O   UNL     1      -8.815  14.630  66.809  1.00  0.00    -0.250 OA 
ENDBRANCH   4  11
TORSDOF 1
ENDMDL
MODEL       50
REMARK 921   NORMALIZED FREE ENERGY PREDICTED BY IDOCK:   -4.39 KCAL/MOL
REMARK 922        TOTAL FREE ENERGY PREDICTED BY IDOCK:   -4.83 KCAL/MOL
REMARK 923 INTER-LIGAND FREE ENERGY PREDICTED BY IDOCK:   -4.64 KCAL/MOL
REMARK 924 INTRA-LIGAND FREE ENERGY PREDICTED BY IDOCK:   -0.19 KCAL/MOL
REMARK 927      BINDING AFFINITY PREDICTED BY RF-SCORE:    0.00 PKD
ROOT
HETATM    1  F   UNL     1      -9.758  16.924  67.960  1.00  0.00    -0.237 F  
HETATM    2  C   UNL     1     -10.427  15.859  67.481  1.00  0.00    -0.298 C  
HETATM    3  C   UNL     1     -10.868  14.876  68.266  1.00  0.00    -0.257 C  
HETATM    4  N   UNL     1     -11.551  13.788  67.752  1.00  0.00    -0.325 N  
HETATM    5  C   UNL     1     -11.776  13.647  66.386  1.00  0.00    -0.373 C  
HETATM    6  O   UNL     1     -10.269  16.662  65.251  1.00  0.00    -0.600 OA 
HETATM    7  O   UNL     1     -12.314  12.668  65.874  1.00  0.00    -0.593 OA 
HETATM    8  H   UNL     1     -11.554  14.630  64.604  1.00  0.00     0.000 HD 
HETATM    9  N   UNL     1     -11.345  14.688  65.601  1.00  0.00    -0.334 N  
HETATM   10  C   UNL     1     -10.663  15.796  66.025  1.00  0.00    -0.306 C  
ENDROOT
BRANCH   4  11
HETATM   11  C   UNL     1     -12.028  12.716  68.612  1.00  0.00    -0.223 C  
HETATM   12  C   UNL     1     -10.960  11.693  68.971  1.00  0.00    -0.283 C  
HETATM   13  C   UNL     1     -11.563  11.068  70.204  1.00  0.00    -0.421 C  
HETATM   14  C   UNL     1     -12.217  12.255  70.885  1.00  0.00    -0.197 C  
HETATM   15  O   UNL     1     -12.512  13.225  69.868  1.00  0.00    -0.192 OA 
ENDBRANCH   4  11
TORSDOF 1
ENDMDL
MODEL       51
REMARK 921   NORMALIZED FREE ENERGY PREDICTED BY IDOCK:   -4.38 KCAL/MOL
REMARK 922        TOTAL FREE ENERGY PREDICTED BY IDOCK:   -4.82 KCAL/MOL
REMARK 923 INTER-LIGAND FREE ENERGY PREDICTED BY IDOCK:   -4.63 KCAL/MOL
REMARK 924 INTRA-LIGAND FREE ENERGY PREDICTED BY IDOCK:   -0.20 KCAL/MOL
REMARK 927      BINDING AFFINITY PREDICTED BY RF-SCORE:    0.00 PKD
ROOT
HETATM    1  F   UNL     1      -7.221  18.748  69.199  1.00  0.00    -0.309 F  
HETATM    2  C   UNL     1      -8.168  18.611  68.252  1.00  0.00    -0.323 C  
HETATM    3  C   UNL     1      -8.884  17.496  68.110  1.00  0.00    -0.263 C  
HETATM    4  N   UNL     1      -9.852  17.375  67.128  1.00  0.00    -0.269 N  
HETATM    5  C   UNL     1     -10.096  18.397  66.215  1.00  0.00    -0.392 C  
HETATM    6  O   UNL     1      -7.764  20.798  67.418  1.00  0.00    -0.345 OA 
HETATM    7  O   UNL     1     -10.893  18.313  65.284  1.00  0.00    -0.629 OA 
HETATM    8  H   UNL     1      -9.582  20.331  65.782  1.00  0.00     0.000 HD 
HETATM    9  N   UNL     1      -9.373  19.550  66.404  1.00  0.00    -0.364 N  
HETATM   10  C   UNL     1      -8.400  19.753  67.345  1.00  0.00    -0.309 C  
ENDROOT
BRANCH   4  11
HETATM   11  C   UNL     1     -10.628  16.155  66.974  1.00  0.00    -0.292 C  
HETATM   12  C   UNL     1      -9.854  15.008  66.341  1.00  0.00    -0.290 C  
HETATM   13  C   UNL     1     -10.681  13.825  66.779  1.00  0.00    -0.276 C  
HETATM   14  C   UNL     1     -11.101  14.223  68.181  1.00  0.00    -0.258 C  
HETATM   15  O   UNL     1     -11.084  15.657  68.245  1.00  0.00    -0.304 OA 
ENDBRANCH   4  11
TORSDOF 1
ENDMDL
MODEL       52
REMARK 921   NORMALIZED FREE ENERGY PREDICTED BY IDOCK:   -4.36 KCAL/MOL
REMARK 922        TOTAL FREE ENERGY PREDICTED BY IDOCK:   -4.81 KCAL/MOL
REMARK 923 INTER-LIGAND FREE ENERGY PREDICTED BY IDOCK:   -4.61 KCAL/MOL
REMARK 924 INTRA-LIGAND FREE ENERGY PREDICTED BY IDOCK:   -0.19 KCAL/MOL
REMARK 927      BINDING AFFINITY PREDICTED BY RF-SCORE:    0.00 PKD
ROOT
HETATM    1  F   UNL     1      -8.657   8.417  70.880  1.00  0.00    -0.114 F  
HETATM    2  C   UNL     1      -9.877   8.969  71.011  1.00  0.00    -0.282 C  
HETATM    3  C   UNL     1     -10.357   9.863  70.146  1.00  0.00    -0.282 C  
HETATM    4  N   UNL     1     -11.614  10.420  70.301  1.00  0.00    -0.303 N  
HETATM    5  C   UNL     1     -12.423  10.103  71.388  1.00  0.00    -0.423 C  
HETATM    6  O   UNL     1     -10.304   7.748  73.003  1.00  0.00    -0.295 OA 
HETATM    7  O   UNL     1     -13.515  10.622  71.608  1.00  0.00    -0.300 OA 
HETATM    8  H   UNL     1     -12.529   8.865  73.015  1.00  0.00     0.000 HD 
HETATM    9  N   UNL     1     -11.925   9.153  72.245  1.00  0.00    -0.280 N  
HETATM   10  C   UNL     1     -10.695   8.555  72.168  1.00  0.00    -0.356 C  
ENDROOT
BRANCH   4  11
HETATM   11  C   UNL     1     -12.132  11.398  69.357  1.00  0.00    -0.291 C  
HETATM   12  C   UNL     1     -11.592  12.805  69.569  1.00  0.00    -0.342 C  
HETATM   13  C   UNL     1     -11.861  13.424  68.220  1.00  0.00    -0.393 C  
HETATM   14  C   UNL     1     -11.582  12.273  67.273  1.00  0.00    -0.357 C  
HETATM   15  O   UNL     1     -11.790  11.054  68.002  1.00  0.00    -0.593 OA 
ENDBRANCH   4  11
TORSDOF 1
ENDMDL
MODEL       53
REMARK 921   NORMALIZED FREE ENERGY PREDICTED BY IDOCK:   -4.34 KCAL/MOL
REMARK 922        TOTAL FREE ENERGY PREDICTED BY IDOCK:   -4.78 KCAL/MOL
REMARK 923 INTER-LIGAND FREE ENERGY PREDICTED BY IDOCK:   -4.61 KCAL/MOL
REMARK 924 INTRA-LIGAND FREE ENERGY PREDICTED BY IDOCK:   -0.17 KCAL/MOL
REMARK 927      BINDING AFFINITY PREDICTED BY RF-SCORE:    0.00 PKD
ROOT
HETATM    1  F   UNL     1     -10.934  10.932  65.482  1.00  0.00    -0.273 F  
HETATM    2  C   UNL     1     -11.236  11.646  66.581  1.00  0.00    -0.299 C  
HETATM    3  C   UNL     1     -11.246  11.112  67.803  1.00  0.00    -0.294 C  
HETATM    4  N   UNL     1     -11.562  11.864  68.921  1.00  0.00    -0.285 N  
HETATM    5  C   UNL     1     -11.923  13.204  68.820  1.00  0.00    -0.280 C  
HETATM    6  O   UNL     1     -11.592  13.616  65.304  1.00  0.00    -0.310 OA 
HETATM    7  O   UNL     1     -12.280  13.895  69.772  1.00  0.00    -0.330 OA 
HETATM    8  H   UNL     1     -12.074  14.738  67.473  1.00  0.00     0.000 HD 
HETATM    9  N   UNL     1     -11.870  13.742  67.558  1.00  0.00    -0.372 N  
HETATM   10  C   UNL     1     -11.571  13.073  66.402  1.00  0.00    -0.363 C  
ENDROOT
BRANCH   4  11
HETATM   11  C   UNL     1     -11.575  11.276  70.252  1.00  0.00    -0.275 C  
HETATM   12  C   UNL     1     -12.896  10.619  70.622  1.00  0.00    -0.404 C  
HETATM   13  C   UNL     1     -12.461   9.704  71.738  1.00  0.00    -0.487 C  
HETATM   14  C   UNL     1     -11.098   9.236  71.263  1.00  0.00    -0.357 C  
HETATM   15  O   UNL     1     -10.581  10.243  70.380  1.00  0.00    -0.278 OA 
ENDBRANCH   4  11
TORSDOF 1
ENDMDL
MODEL       54
REMARK 921   NORMALIZED FREE ENERGY PREDICTED BY IDOCK:   -4.33 KCAL/MOL
REMARK 922        TOTAL FREE ENERGY PREDICTED BY IDOCK:   -4.77 KCAL/MOL
REMARK 923 INTER-LIGAND FREE ENERGY PREDICTED BY IDOCK:   -5.21 KCAL/MOL
REMARK 924 INTRA-LIGAND FREE ENERGY PREDICTED BY IDOCK:    0.44 KCAL/MOL
REMARK 927      BINDING AFFINITY PREDICTED BY RF-SCORE:    0.00 PKD
ROOT
HETATM    1  F   UNL     1     -12.886  11.697  62.931  1.00  0.00    -0.636 F  
HETATM    2  C   UNL     1     -12.073  12.096  63.926  1.00  0.00    -0.488 C  
HETATM    3  C   UNL     1     -12.517  12.762  64.992  1.00  0.00    -0.506 C  
HETATM    4  N   UNL     1     -11.663  13.165  66.004  1.00  0.00    -0.360 N  
HETATM    5  C   UNL     1     -10.292  12.931  65.938  1.00  0.00    -0.285 C  
HETATM    6  O   UNL     1     -10.166  11.182  62.844  1.00  0.00    -0.256 OA 
HETATM    7  O   UNL     1      -9.485  13.330  66.773  1.00  0.00    -0.243 OA 
HETATM    8  H   UNL     1      -8.870  11.980  64.814  1.00  0.00     0.000 HD 
HETATM    9  N   UNL     1      -9.862  12.213  64.849  1.00  0.00    -0.201 N  
HETATM   10  C   UNL     1     -10.636  11.778  63.806  1.00  0.00    -0.415 C  
ENDROOT
BRANCH   4  11
HETATM   11  C   UNL     1     -12.152  13.894  67.164  1.00  0.00    -0.387 C  
HETATM   12  C   UNL     1     -11.817  13.233  68.493  1.00  0.00    -0.384 C  
HETATM   13  C   UNL     1     -11.962  14.398  69.440  1.00  0.00    -0.370 C  
HETATM   14  C   UNL     1     -11.416  15.552  68.621  1.00  0.00    -0.359 C  
HETATM   15  O   UNL     1     -11.581  15.213  67.235  1.00  0.00    -0.323 OA 
ENDBRANCH   4  11
TORSDOF 1
ENDMDL
MODEL       55
REMARK 921   NORMALIZED FREE ENERGY PREDICTED BY IDOCK:   -4.31 KCAL/MOL
REMARK 922        TOTAL FREE ENERGY PREDICTED BY IDOCK:   -4.75 KCAL/MOL
REMARK 923 INTER-LIGAND FREE ENERGY PREDICTED BY IDOCK:   -4.56 KCAL/MOL
REMARK 924 INTRA-LIGAND FREE ENERGY PREDICTED BY IDOCK:   -0.19 KCAL/MOL
REMARK 927      BINDING AFFINITY PREDICTED BY RF-SCORE:    0.00 PKD
ROOT
HETATM    1  F   UNL     1     -11.074  11.453  70.294  1.00  0.00    -0.268 F  
HETATM    2  C   UNL     1     -11.775  10.402  70.757  1.00  0.00    -0.368 C  
HETATM    3  C   UNL     1     -11.440   9.141  70.485  1.00  0.00    -0.229 C  
HETATM    4  N   UNL     1     -12.176   8.073  70.969  1.00  0.00    -0.241 N  
HETATM    5  C   UNL     1     -13.325   8.266  71.731  1.00  0.00    -0.352 C  
HETATM    6  O   UNL     1     -13.325  11.820  71.865  1.00  0.00    -0.448 OA 
HETATM    7  O   UNL     1     -14.051   7.356  72.125  1.00  0.00    -0.200 OA 
HETATM    8  H   UNL     1     -14.434   9.729  72.637  1.00  0.00     0.000 HD 
HETATM    9  N   UNL     1     -13.630   9.571  72.030  1.00  0.00    -0.420 N  
HETATM   10  C   UNL     1     -12.960  10.682  71.592  1.00  0.00    -0.477 C  
ENDROOT
BRANCH   4  11
HETATM   11  C   UNL     1     -11.809   6.699  70.667  1.00  0.00    -0.383 C  
HETATM   12  C   UNL     1     -10.984   6.547  69.397  1.00  0.00    -0.395 C  
HETATM   13  C   UNL     1     -10.349   5.198  69.625  1.00  0.00    -0.316 C  
HETATM   14  C   UNL     1     -10.074   5.216  71.117  1.00  0.00    -0.222 C  
HETATM   15  O   UNL     1     -11.010   6.124  71.717  1.00  0.00    -0.244 OA 
ENDBRANCH   4  11
TORSDOF 1
ENDMDL
MODEL       56
REMARK 921   NORMALIZED FREE ENERGY PREDICTED BY IDOCK:   -4.29 KCAL/MOL
REMARK 922        TOTAL FREE ENERGY PREDICTED BY IDOCK:   -4.73 KCAL/MOL
REMARK 923 INTER-LIGAND FREE ENERGY PREDICTED BY IDOCK:   -4.53 KCAL/MOL
REMARK 924 INTRA-LIGAND FREE ENERGY PREDICTED BY IDOCK:   -0.20 KCAL/MOL
REMARK 927      BINDING AFFINITY PREDICTED BY RF-SCORE:    0.00 PKD
ROOT
HETATM    1  F   UNL     1      -9.189   9.534  64.004  1.00  0.00    -0.276 F  
HETATM    2  C   UNL     1      -9.874  10.103  65.013  1.00  0.00    -0.322 C  
HETATM    3  C   UNL     1     -10.302  11.365  64.967  1.00  0.00    -0.287 C  
HETATM    4  N   UNL     1     -11.004  11.932  66.016  1.00  0.00    -0.299 N  
HETATM    5  C   UNL     1     -11.261  11.225  67.187  1.00  0.00    -0.275 C  
HETATM    6  O   UNL     1      -9.764   8.120  66.314  1.00  0.00    -0.216 OA 
HETATM    7  O   UNL     1     -11.816  11.705  68.173  1.00  0.00    -0.481 OA 
HETATM    8  H   UNL     1     -11.076   9.366  68.024  1.00  0.00     0.000 HD 
HETATM    9  N   UNL     1     -10.843   9.917  67.198  1.00  0.00    -0.209 N  
HETATM   10  C   UNL     1     -10.144   9.280  66.208  1.00  0.00    -0.252 C  
ENDROOT
BRANCH   4  11
HETATM   11  C   UNL     1     -11.466  13.310  65.963  1.00  0.00    -0.330 C  
HETATM   12  C   UNL     1     -10.361  14.320  65.691  1.00  0.00    -0.352 C  
HETATM   13  C   UNL     1     -11.163  15.497  65.192  1.00  0.00    -0.322 C  
HETATM   14  C   UNL     1     -12.258  14.825  64.386  1.00  0.00    -0.428 C  
HETATM   15  O   UNL     1     -12.431  13.501  64.912  1.00  0.00    -0.477 OA 
ENDBRANCH   4  11
TORSDOF 1
ENDMDL
MODEL       57
REMARK 921   NORMALIZED FREE ENERGY PREDICTED BY IDOCK:   -4.28 KCAL/MOL
REMARK 922        TOTAL FREE ENERGY PREDICTED BY IDOCK:   -4.72 KCAL/MOL
REMARK 923 INTER-LIGAND FREE ENERGY PREDICTED BY IDOCK:   -4.52 KCAL/MOL
REMARK 924 INTRA-LIGAND FREE ENERGY PREDICTED BY IDOCK:   -0.20 KCAL/MOL
REMARK 927      BINDING AFFINITY PREDICTED BY RF-SCORE:    0.00 PKD
ROOT
HETATM    1  F   UNL     1      -9.899  10.435  69.072  1.00  0.00    -0.172 F  
HETATM    2  C   UNL     1     -10.894  10.168  69.938  1.00  0.00    -0.299 C  
HETATM    3  C   UNL     1     -10.861   9.126  70.769  1.00  0.00    -0.268 C  
HETATM    4  N   UNL     1     -11.897   8.868  71.650  1.00  0.00    -0.320 N  
HETATM    5  C   UNL     1     -13.040   9.661  71.685  1.00  0.00    -0.412 C  
HETATM    6  O   UNL     1     -12.151  12.042  69.197  1.00  0.00    -0.274 OA 
HETATM    7  O   UNL     1     -14.014   9.434  72.398  1.00  0.00    -0.426 OA 
HETATM    8  H   UNL     1     -13.838  11.376  70.902  1.00  0.00     0.000 HD 
HETATM    9  N   UNL     1     -13.035  10.749  70.847  1.00  0.00    -0.336 N  
HETATM   10  C   UNL     1     -12.058  11.076  69.946  1.00  0.00    -0.361 C  
ENDROOT
BRANCH   4  11
HETATM   11  C   UNL     1     -11.859   7.727  72.552  1.00  0.00    -0.302 C  
HETATM   12  C   UNL     1     -11.788   6.383  71.843  1.00  0.00    -0.380 C  
HETATM   13  C   UNL     1     -11.253   5.503  72.945  1.00  0.00    -0.358 C  
HETATM   14  C   UNL     1     -10.276   6.423  73.651  1.00  0.00    -0.269 C  
HETATM   15  O   UNL     1     -10.703   7.772  73.409  1.00  0.00    -0.348 OA 
ENDBRANCH   4  11
TORSDOF 1
ENDMDL
MODEL       58
REMARK 921   NORMALIZED FREE ENERGY PREDICTED BY IDOCK:   -4.21 KCAL/MOL
REMARK 922        TOTAL FREE ENERGY PREDICTED BY IDOCK:   -4.65 KCAL/MOL
REMARK 923 INTER-LIGAND FREE ENERGY PREDICTED BY IDOCK:   -4.44 KCAL/MOL
REMARK 924 INTRA-LIGAND FREE ENERGY PREDICTED BY IDOCK:   -0.20 KCAL/MOL
REMARK 927      BINDING AFFINITY PREDICTED BY RF-SCORE:    0.00 PKD
ROOT
HETATM    1  F   UNL     1     -11.107  19.912  67.866  1.00  0.00    -0.419 F  
HETATM    2  C   UNL     1     -10.339  18.877  67.481  1.00  0.00    -0.426 C  
HETATM    3  C   UNL     1     -10.729  17.608  67.608  1.00  0.00    -0.314 C  
HETATM    4  N   UNL     1      -9.923  16.557  67.208  1.00  0.00    -0.258 N  
HETATM    5  C   UNL     1      -8.649  16.772  66.689  1.00  0.00    -0.252 C  
HETATM    6  O   UNL     1      -8.597  20.327  66.773  1.00  0.00    -0.305 OA 
HETATM    7  O   UNL     1      -7.869  15.873  66.385  1.00  0.00    -0.215 OA 
HETATM    8  H   UNL     1      -7.378  18.264  66.098  1.00  0.00     0.000 HD 
HETATM    9  N   UNL     1      -8.283  18.087  66.532  1.00  0.00    -0.264 N  
HETATM   10  C   UNL     1      -9.016  19.183  66.902  1.00  0.00    -0.305 C  
ENDROOT
BRANCH   4  11
HETATM   11  C   UNL     1     -10.351  15.175  67.352  1.00  0.00    -0.244 C  
HETATM   12  C   UNL     1     -11.196  14.918  68.591  1.00  0.00    -0.288 C  
HETATM   13  C   UNL     1     -11.884  13.631  68.208  1.00  0.00    -0.404 C  
HETATM   14  C   UNL     1     -12.141  13.828  66.727  1.00  0.00    -0.418 C  
HETATM   15  O   UNL     1     -11.161  14.756  66.238  1.00  0.00    -0.332 OA 
ENDBRANCH   4  11
TORSDOF 1
ENDMDL
MODEL       59
REMARK 921   NORMALIZED FREE ENERGY PREDICTED BY IDOCK:   -4.21 KCAL/MOL
REMARK 922        TOTAL FREE ENERGY PREDICTED BY IDOCK:   -4.64 KCAL/MOL
REMARK 923 INTER-LIGAND FREE ENERGY PREDICTED BY IDOCK:   -4.44 KCAL/MOL
REMARK 924 INTRA-LIGAND FREE ENERGY PREDICTED BY IDOCK:   -0.20 KCAL/MOL
REMARK 927      BINDING AFFINITY PREDICTED BY RF-SCORE:    0.00 PKD
ROOT
HETATM    1  F   UNL     1     -12.455  14.081  70.397  1.00  0.00    -0.356 F  
HETATM    2  C   UNL     1     -12.091  12.941  69.782  1.00  0.00    -0.245 C  
HETATM    3  C   UNL     1     -11.977  11.781  70.430  1.00  0.00    -0.332 C  
HETATM    4  N   UNL     1     -11.599  10.620  69.779  1.00  0.00    -0.284 N  
HETATM    5  C   UNL     1     -11.281  10.614  68.424  1.00  0.00    -0.288 C  
HETATM    6  O   UNL     1     -11.881  14.041  67.688  1.00  0.00    -0.357 OA 
HETATM    7  O   UNL     1     -10.873   9.627  67.817  1.00  0.00    -0.270 OA 
HETATM    8  H   UNL     1     -11.269  11.812  66.764  1.00  0.00     0.000 HD 
HETATM    9  N   UNL     1     -11.440  11.811  67.769  1.00  0.00    -0.302 N  
HETATM   10  C   UNL     1     -11.807  13.003  68.334  1.00  0.00    -0.334 C  
ENDROOT
BRANCH   4  11
HETATM   11  C   UNL     1     -11.473   9.358  70.491  1.00  0.00    -0.262 C  
HETATM   12  C   UNL     1     -10.255   9.283  71.400  1.00  0.00    -0.371 C  
HETATM   13  C   UNL     1     -10.660   8.170  72.334  1.00  0.00    -0.393 C  
HETATM   14  C   UNL     1     -12.146   8.417  72.509  1.00  0.00    -0.337 C  
HETATM   15  O   UNL     1     -12.607   9.119  71.345  1.00  0.00    -0.312 OA 
ENDBRANCH   4  11
TORSDOF 1
ENDMDL
MODEL       60
REMARK 921   NORMALIZED FREE ENERGY PREDICTED BY IDOCK:   -4.12 KCAL/MOL
REMARK 922        TOTAL FREE ENERGY PREDICTED BY IDOCK:   -4.55 KCAL/MOL
REMARK 923 INTER-LIGAND FREE ENERGY PREDICTED BY IDOCK:   -4.36 KCAL/MOL
REMARK 924 INTRA-LIGAND FREE ENERGY PREDICTED BY IDOCK:   -0.19 KCAL/MOL
REMARK 927      BINDING AFFINITY PREDICTED BY RF-SCORE:    0.00 PKD
ROOT
HETATM    1  F   UNL     1     -13.329  11.121  72.216  1.00  0.00    -0.582 F  
HETATM    2  C   UNL     1     -12.491  10.585  71.310  1.00  0.00    -0.419 C  
HETATM    3  C   UNL     1     -12.097  11.244  70.220  1.00  0.00    -0.373 C  
HETATM    4  N   UNL     1     -11.236  10.673  69.298  1.00  0.00    -0.253 N  
HETATM    5  C   UNL     1     -10.772   9.369  69.444  1.00  0.00    -0.217 C  
HETATM    6  O   UNL     1     -12.346   8.550  72.526  1.00  0.00    -0.388 OA 
HETATM    7  O   UNL     1     -10.065   8.794  68.620  1.00  0.00    -0.178 OA 
HETATM    8  H   UNL     1     -10.783   7.788  70.744  1.00  0.00     0.000 HD 
HETATM    9  N   UNL     1     -11.161   8.723  70.591  1.00  0.00    -0.255 N  
HETATM   10  C   UNL     1     -12.008   9.211  71.551  1.00  0.00    -0.352 C  
ENDROOT
BRANCH   4  11
HETATM   11  C   UNL     1     -10.812  11.395  68.109  1.00  0.00    -0.213 C  
HETATM   12  C   UNL     1     -11.776  12.489  67.675  1.00  0.00    -0.423 C  
HETATM   13  C   UNL     1     -10.877  13.343  66.818  1.00  0.00    -0.286 C  
HETATM   14  C   UNL     1      -9.558  13.277  67.564  1.00  0.00    -0.218 C  
HETATM   15  O   UNL     1      -9.549  12.054  68.316  1.00  0.00    -0.197 OA 
ENDBRANCH   4  11
TORSDOF 1
ENDMDL
MODEL       61
REMARK 921   NORMALIZED FREE ENERGY PREDICTED BY IDOCK:   -4.12 KCAL/MOL
REMARK 922        TOTAL FREE ENERGY PREDICTED BY IDOCK:   -4.54 KCAL/MOL
REMARK 923 INTER-LIGAND FREE ENERGY PREDICTED BY IDOCK:   -4.34 KCAL/MOL
REMARK 924 INTRA-LIGAND FREE ENERGY PREDICTED BY IDOCK:   -0.20 KCAL/MOL
REMARK 927      BINDING AFFINITY PREDICTED BY RF-SCORE:    0.00 PKD
ROOT
HETATM    1  F   UNL     1     -11.524  10.361  68.231  1.00  0.00    -0.331 F  
HETATM    2  C   UNL     1     -11.010  10.603  67.011  1.00  0.00    -0.208 C  
HETATM    3  C   UNL     1     -11.102  11.793  66.417  1.00  0.00    -0.307 C  
HETATM    4  N   UNL     1     -10.569  12.019  65.160  1.00  0.00    -0.277 N  
HETATM    5  C   UNL     1      -9.946  11.005  64.438  1.00  0.00    -0.312 C  
HETATM    6  O   UNL     1     -10.226   8.370  66.811  1.00  0.00    -0.280 OA 
HETATM    7  O   UNL     1      -9.520  11.136  63.293  1.00  0.00    -0.272 OA 
HETATM    8  H   UNL     1      -9.324   9.061  64.595  1.00  0.00     0.000 HD 
HETATM    9  N   UNL     1      -9.831   9.799  65.084  1.00  0.00    -0.294 N  
HETATM   10  C   UNL     1     -10.329   9.489  66.322  1.00  0.00    -0.156 C  
ENDROOT
BRANCH   4  11
HETATM   11  C   UNL     1     -10.674  13.318  64.514  1.00  0.00    -0.411 C  
HETATM   12  C   UNL     1     -12.097  13.849  64.426  1.00  0.00    -0.477 C  
HETATM   13  C   UNL     1     -11.844  15.322  64.222  1.00  0.00    -0.235 C  
HETATM   14  C   UNL     1     -10.634  15.569  65.103  1.00  0.00    -0.431 C  
HETATM   15  O   UNL     1      -9.931  14.323  65.229  1.00  0.00    -0.351 OA 
ENDBRANCH   4  11
TORSDOF 1
ENDMDL
MODEL       62
REMARK 921   NORMALIZED FREE ENERGY PREDICTED BY IDOCK:   -4.09 KCAL/MOL
REMARK 922        TOTAL FREE ENERGY PREDICTED BY IDOCK:   -4.51 KCAL/MOL
REMARK 923 INTER-LIGAND FREE ENERGY PREDICTED BY IDOCK:   -4.34 KCAL/MOL
REMARK 924 INTRA-LIGAND FREE ENERGY PREDICTED BY IDOCK:   -0.18 KCAL/MOL
REMARK 927      BINDING AFFINITY PREDICTED BY RF-SCORE:    0.00 PKD
ROOT
HETATM    1  F   UNL     1     -10.694   5.318  68.742  1.00  0.00    -0.264 F  
HETATM    2  C   UNL     1     -10.672   5.825  69.989  1.00  0.00    -0.330 C  
HETATM    3  C   UNL     1     -11.056   7.071  70.263  1.00  0.00    -0.285 C  
HETATM    4  N   UNL     1     -11.024   7.575  71.552  1.00  0.00    -0.228 N  
HETATM    5  C   UNL     1     -10.550   6.816  72.618  1.00  0.00    -0.223 C  
HETATM    6  O   UNL     1      -9.815   3.799  70.885  1.00  0.00    -0.185 OA 
HETATM    7  O   UNL     1     -10.435   7.239  73.766  1.00  0.00    -0.370 OA 
HETATM    8  H   UNL     1      -9.902   4.935  73.099  1.00  0.00     0.000 HD 
HETATM    9  N   UNL     1     -10.194   5.524  72.319  1.00  0.00    -0.193 N  
HETATM   10  C   UNL     1     -10.194   4.949  71.077  1.00  0.00    -0.192 C  
ENDROOT
BRANCH   4  11
HETATM   11  C   UNL     1     -11.441   8.937  71.845  1.00  0.00    -0.372 C  
HETATM   12  C   UNL     1     -11.434   9.858  70.634  1.00  0.00    -0.411 C  
HETATM   13  C   UNL     1     -12.356  10.956  71.102  1.00  0.00    -0.479 C  
HETATM   14  C   UNL     1     -13.400  10.191  71.892  1.00  0.00    -0.402 C  
HETATM   15  O   UNL     1     -12.787   8.977  72.353  1.00  0.00    -0.401 OA 
ENDBRANCH   4  11
TORSDOF 1
ENDMDL
MODEL       63
REMARK 921   NORMALIZED FREE ENERGY PREDICTED BY IDOCK:   -4.07 KCAL/MOL
REMARK 922        TOTAL FREE ENERGY PREDICTED BY IDOCK:   -4.49 KCAL/MOL
REMARK 923 INTER-LIGAND FREE ENERGY PREDICTED BY IDOCK:   -4.29 KCAL/MOL
REMARK 924 INTRA-LIGAND FREE ENERGY PREDICTED BY IDOCK:   -0.20 KCAL/MOL
REMARK 927      BINDING AFFINITY PREDICTED BY RF-SCORE:    0.00 PKD
ROOT
HETATM    1  F   UNL     1     -12.897  15.000  64.608  1.00  0.00    -0.318 F  
HETATM    2  C   UNL     1     -11.929  14.162  65.023  1.00  0.00    -0.408 C  
HETATM    3  C   UNL     1     -10.919  14.560  65.795  1.00  0.00    -0.319 C  
HETATM    4  N   UNL     1      -9.931  13.683  66.209  1.00  0.00    -0.293 N  
HETATM    5  C   UNL     1      -9.924  12.351  65.805  1.00  0.00    -0.254 C  
HETATM    6  O   UNL     1     -12.905  12.332  63.865  1.00  0.00    -0.720 OA 
HETATM    7  O   UNL     1      -9.034  11.551  66.085  1.00  0.00    -0.207 OA 
HETATM    8  H   UNL     1     -11.036  10.968  64.785  1.00  0.00     0.000 HD 
HETATM    9  N   UNL     1     -10.993  11.955  65.040  1.00  0.00    -0.306 N  
HETATM   10  C   UNL     1     -12.008  12.754  64.587  1.00  0.00    -0.396 C  
ENDROOT
BRANCH   4  11
HETATM   11  C   UNL     1      -8.828  14.123  67.049  1.00  0.00    -0.221 C  
HETATM   12  C   UNL     1      -8.406  15.564  66.806  1.00  0.00    -0.301 C  
HETATM   13  C   UNL     1      -7.677  15.872  68.090  1.00  0.00    -0.135 C  
HETATM   14  C   UNL     1      -8.507  15.131  69.121  1.00  0.00    -0.220 C  
HETATM   15  O   UNL     1      -9.170  14.051  68.445  1.00  0.00    -0.196 OA 
ENDBRANCH   4  11
TORSDOF 1
ENDMDL
MODEL       64
REMARK 921   NORMALIZED FREE ENERGY PREDICTED BY IDOCK:   -4.05 KCAL/MOL
REMARK 922        TOTAL FREE ENERGY PREDICTED BY IDOCK:   -4.47 KCAL/MOL
REMARK 923 INTER-LIGAND FREE ENERGY PREDICTED BY IDOCK:   -4.28 KCAL/MOL
REMARK 924 INTRA-LIGAND FREE ENERGY PREDICTED BY IDOCK:   -0.20 KCAL/MOL
REMARK 927      BINDING AFFINITY PREDICTED BY RF-SCORE:    0.00 PKD
ROOT
HETATM    1  F   UNL     1     -11.010  19.247  67.097  1.00  0.00    -0.530 F  
HETATM    2  C   UNL     1     -10.233  18.317  67.681  1.00  0.00    -0.382 C  
HETATM    3  C   UNL     1     -10.699  17.457  68.586  1.00  0.00    -0.249 C  
HETATM    4  N   UNL     1      -9.881  16.509  69.176  1.00  0.00    -0.264 N  
HETATM    5  C   UNL     1      -8.523  16.434  68.882  1.00  0.00    -0.247 C  
HETATM    6  O   UNL     1      -8.320  19.045  66.476  1.00  0.00    -0.284 OA 
HETATM    7  O   UNL     1      -7.742  15.659  69.430  1.00  0.00    -0.211 OA 
HETATM    8  H   UNL     1      -7.092  17.224  67.650  1.00  0.00     0.000 HD 
HETATM    9  N   UNL     1      -8.072  17.305  67.921  1.00  0.00    -0.205 N  
HETATM   10  C   UNL     1      -8.809  18.272  67.291  1.00  0.00    -0.255 C  
ENDROOT
BRANCH   4  11
HETATM   11  C   UNL     1     -10.394  15.574  70.165  1.00  0.00    -0.262 C  
HETATM   12  C   UNL     1     -11.616  16.082  70.917  1.00  0.00    -0.453 C  
HETATM   13  C   UNL     1     -12.193  14.789  71.436  1.00  0.00    -0.400 C  
HETATM   14  C   UNL     1     -11.931  13.832  70.289  1.00  0.00    -0.326 C  
HETATM   15  O   UNL     1     -10.803  14.335  69.557  1.00  0.00    -0.210 OA 
ENDBRANCH   4  11
TORSDOF 1
ENDMDL
MODEL       65
REMARK 921   NORMALIZED FREE ENERGY PREDICTED BY IDOCK:   -4.04 KCAL/MOL
REMARK 922        TOTAL FREE ENERGY PREDICTED BY IDOCK:   -4.47 KCAL/MOL
REMARK 923 INTER-LIGAND FREE ENERGY PREDICTED BY IDOCK:   -4.27 KCAL/MOL
REMARK 924 INTRA-LIGAND FREE ENERGY PREDICTED BY IDOCK:   -0.20 KCAL/MOL
REMARK 927      BINDING AFFINITY PREDICTED BY RF-SCORE:    0.00 PKD
ROOT
HETATM    1  F   UNL     1     -11.136  10.879  65.511  1.00  0.00    -0.232 F  
HETATM    2  C   UNL     1     -11.092  12.215  65.355  1.00  0.00    -0.317 C  
HETATM    3  C   UNL     1     -10.519  13.023  66.247  1.00  0.00    -0.276 C  
HETATM    4  N   UNL     1     -10.487  14.395  66.069  1.00  0.00    -0.291 N  
HETATM    5  C   UNL     1     -11.087  15.002  64.969  1.00  0.00    -0.413 C  
HETATM    6  O   UNL     1     -12.269  12.095  63.295  1.00  0.00    -0.503 OA 
HETATM    7  O   UNL     1     -11.148  16.217  64.801  1.00  0.00    -0.561 OA 
HETATM    8  H   UNL     1     -12.030  14.571  63.203  1.00  0.00     0.000 HD 
HETATM    9  N   UNL     1     -11.639  14.148  64.045  1.00  0.00    -0.217 N  
HETATM   10  C   UNL     1     -11.715  12.784  64.144  1.00  0.00    -0.401 C  
ENDROOT
BRANCH   4  11
HETATM   11  C   UNL     1      -9.864  15.273  67.047  1.00  0.00    -0.229 C  
HETATM   12  C   UNL     1     -10.256  14.970  68.485  1.00  0.00    -0.227 C  
HETATM   13  C   UNL     1      -9.127  15.629  69.237  1.00  0.00    -0.270 C  
HETATM   14  C   UNL     1      -7.934  15.350  68.343  1.00  0.00    -0.131 C  
HETATM   15  O   UNL     1      -8.429  15.169  67.008  1.00  0.00    -0.199 OA 
ENDBRANCH   4  11
TORSDOF 1
ENDMDL
MODEL       66
REMARK 921   NORMALIZED FREE ENERGY PREDICTED BY IDOCK:   -4.00 KCAL/MOL
REMARK 922        TOTAL FREE ENERGY PREDICTED BY IDOCK:   -4.43 KCAL/MOL
REMARK 923 INTER-LIGAND FREE ENERGY PREDICTED BY IDOCK:   -4.32 KCAL/MOL
REMARK 924 INTRA-LIGAND FREE ENERGY PREDICTED BY IDOCK:   -0.11 KCAL/MOL
REMARK 927      BINDING AFFINITY PREDICTED BY RF-SCORE:    0.00 PKD
ROOT
HETATM    1  F   UNL     1     -14.393   8.714  71.328  1.00  0.00    -0.446 F  
HETATM    2  C   UNL     1     -13.059   8.698  71.502  1.00  0.00    -0.305 C  
HETATM    3  C   UNL     1     -12.413   7.642  71.998  1.00  0.00    -0.270 C  
HETATM    4  N   UNL     1     -11.040   7.647  72.171  1.00  0.00    -0.251 N  
HETATM    5  C   UNL     1     -10.272   8.769  71.873  1.00  0.00    -0.345 C  
HETATM    6  O   UNL     1     -12.844  10.915  70.680  1.00  0.00    -0.317 OA 
HETATM    7  O   UNL     1      -9.062   8.849  72.074  1.00  0.00    -0.353 OA 
HETATM    8  H   UNL     1     -10.398  10.639  71.050  1.00  0.00     0.000 HD 
HETATM    9  N   UNL     1     -10.953   9.831  71.330  1.00  0.00    -0.326 N  
HETATM   10  C   UNL     1     -12.305   9.910  71.127  1.00  0.00    -0.370 C  
ENDROOT
BRANCH   4  11
HETATM   11  C   UNL     1     -10.339   6.494  72.715  1.00  0.00    -0.202 C  
HETATM   12  C   UNL     1     -10.110   6.566  74.217  1.00  0.00    -0.379 C  
HETATM   13  C   UNL     1      -9.874   5.112  74.543  1.00  0.00    -0.220 C  
HETATM   14  C   UNL     1     -10.845   4.409  73.614  1.00  0.00    -0.288 C  
HETATM   15  O   UNL     1     -11.077   5.278  72.495  1.00  0.00    -0.246 OA 
ENDBRANCH   4  11
TORSDOF 1
ENDMDL
MODEL       67
REMARK 921   NORMALIZED FREE ENERGY PREDICTED BY IDOCK:   -3.98 KCAL/MOL
REMARK 922        TOTAL FREE ENERGY PREDICTED BY IDOCK:   -4.40 KCAL/MOL
REMARK 923 INTER-LIGAND FREE ENERGY PREDICTED BY IDOCK:   -4.20 KCAL/MOL
REMARK 924 INTRA-LIGAND FREE ENERGY PREDICTED BY IDOCK:   -0.20 KCAL/MOL
REMARK 927      BINDING AFFINITY PREDICTED BY RF-SCORE:    0.00 PKD
ROOT
HETATM    1  F   UNL     1     -11.369  11.594  70.023  1.00  0.00    -0.321 F  
HETATM    2  C   UNL     1     -11.656  10.364  70.486  1.00  0.00    -0.344 C  
HETATM    3  C   UNL     1     -11.054   9.266  70.028  1.00  0.00    -0.205 C  
HETATM    4  N   UNL     1     -11.366   8.009  70.517  1.00  0.00    -0.257 N  
HETATM    5  C   UNL     1     -12.352   7.826  71.482  1.00  0.00    -0.320 C  
HETATM    6  O   UNL     1     -13.283  11.221  71.989  1.00  0.00    -0.506 OA 
HETATM    7  O   UNL     1     -12.715   6.728  71.896  1.00  0.00    -0.343 OA 
HETATM    8  H   UNL     1     -13.615   8.863  72.716  1.00  0.00     0.000 HD 
HETATM    9  N   UNL     1     -12.933   8.973  71.965  1.00  0.00    -0.375 N  
HETATM   10  C   UNL     1     -12.686  10.251  71.538  1.00  0.00    -0.452 C  
ENDROOT
BRANCH   4  11
HETATM   11  C   UNL     1     -10.709   6.814  70.012  1.00  0.00    -0.247 C  
HETATM   12  C   UNL     1     -11.220   6.357  68.653  1.00  0.00    -0.338 C  
HETATM   13  C   UNL     1     -10.072   5.497  68.187  1.00  0.00    -0.221 C  
HETATM   14  C   UNL     1      -8.866   6.255  68.707  1.00  0.00    -0.123 C  
HETATM   15  O   UNL     1      -9.295   7.023  69.841  1.00  0.00    -0.151 OA 
ENDBRANCH   4  11
TORSDOF 1
ENDMDL
MODEL       68
REMARK 921   NORMALIZED FREE ENERGY PREDICTED BY IDOCK:   -3.94 KCAL/MOL
REMARK 922        TOTAL FREE ENERGY PREDICTED BY IDOCK:   -4.36 KCAL/MOL
REMARK 923 INTER-LIGAND FREE ENERGY PREDICTED BY IDOCK:   -4.29 KCAL/MOL
REMARK 924 INTRA-LIGAND FREE ENERGY PREDICTED BY IDOCK:   -0.07 KCAL/MOL
REMARK 927      BINDING AFFINITY PREDICTED BY RF-SCORE:    0.00 PKD
ROOT
HETATM    1  F   UNL     1     -12.398  13.230  64.356  1.00  0.00    -0.407 F  
HETATM    2  C   UNL     1     -11.726  12.447  65.220  1.00  0.00    -0.390 C  
HETATM    3  C   UNL     1     -11.802  12.606  66.541  1.00  0.00    -0.396 C  
HETATM    4  N   UNL     1     -11.102  11.790  67.413  1.00  0.00    -0.263 N  
HETATM    5  C   UNL     1     -10.252  10.789  66.950  1.00  0.00    -0.227 C  
HETATM    6  O   UNL     1     -10.754  11.193  63.453  1.00  0.00    -0.360 OA 
HETATM    7  O   UNL     1      -9.556  10.087  67.678  1.00  0.00    -0.146 OA 
HETATM    8  H   UNL     1      -9.647   9.851  65.234  1.00  0.00     0.000 HD 
HETATM    9  N   UNL     1     -10.218  10.619  65.588  1.00  0.00    -0.261 N  
HETATM   10  C   UNL     1     -10.875  11.379  64.658  1.00  0.00    -0.292 C  
ENDROOT
BRANCH   4  11
HETATM   11  C   UNL     1     -11.185  11.970  68.854  1.00  0.00    -0.261 C  
HETATM   12  C   UNL     1     -11.957  13.212  69.275  1.00  0.00    -0.344 C  
HETATM   13  C   UNL     1     -12.310  12.862  70.699  1.00  0.00    -0.385 C  
HETATM   14  C   UNL     1     -12.591  11.374  70.609  1.00  0.00    -0.271 C  
HETATM   15  O   UNL     1     -11.858  10.865  69.484  1.00  0.00    -0.288 OA 
ENDBRANCH   4  11
TORSDOF 1
ENDMDL
MODEL       69
REMARK 921   NORMALIZED FREE ENERGY PREDICTED BY IDOCK:   -3.91 KCAL/MOL
REMARK 922        TOTAL FREE ENERGY PREDICTED BY IDOCK:   -4.33 KCAL/MOL
REMARK 923 INTER-LIGAND FREE ENERGY PREDICTED BY IDOCK:   -4.13 KCAL/MOL
REMARK 924 INTRA-LIGAND FREE ENERGY PREDICTED BY IDOCK:   -0.20 KCAL/MOL
REMARK 927      BINDING AFFINITY PREDICTED BY RF-SCORE:    0.00 PKD
ROOT
HETATM    1  F   UNL     1     -12.937  14.038  66.189  1.00  0.00    -0.463 F  
HETATM    2  C   UNL     1     -11.744  13.924  66.799  1.00  0.00    -0.399 C  
HETATM    3  C   UNL     1     -10.836  14.900  66.788  1.00  0.00    -0.320 C  
HETATM    4  N   UNL     1      -9.613  14.762  67.421  1.00  0.00    -0.208 N  
HETATM    5  C   UNL     1      -9.255  13.581  68.065  1.00  0.00    -0.209 C  
HETATM    6  O   UNL     1     -12.237  11.719  67.530  1.00  0.00    -0.526 OA 
HETATM    7  O   UNL     1      -8.157  13.383  68.579  1.00  0.00    -0.150 OA 
HETATM    8  H   UNL     1      -9.996  11.754  68.615  1.00  0.00     0.000 HD 
HETATM    9  N   UNL     1     -10.219  12.603  68.095  1.00  0.00    -0.233 N  
HETATM   10  C   UNL     1     -11.449  12.657  67.497  1.00  0.00    -0.340 C  
ENDROOT
BRANCH   4  11
HETATM   11  C   UNL     1      -8.624  15.829  67.403  1.00  0.00    -0.175 C  
HETATM   12  C   UNL     1      -8.612  16.636  66.114  1.00  0.00    -0.324 C  
HETATM   13  C   UNL     1      -7.926  17.899  66.570  1.00  0.00    -0.303 C  
HETATM   14  C   UNL     1      -8.475  18.079  67.972  1.00  0.00    -0.261 C  
HETATM   15  O   UNL     1      -8.861  16.783  68.454  1.00  0.00    -0.219 OA 
ENDBRANCH   4  11
TORSDOF 1
ENDMDL
MODEL       70
REMARK 921   NORMALIZED FREE ENERGY PREDICTED BY IDOCK:   -3.90 KCAL/MOL
REMARK 922        TOTAL FREE ENERGY PREDICTED BY IDOCK:   -4.32 KCAL/MOL
REMARK 923 INTER-LIGAND FREE ENERGY PREDICTED BY IDOCK:   -4.12 KCAL/MOL
REMARK 924 INTRA-LIGAND FREE ENERGY PREDICTED BY IDOCK:   -0.20 KCAL/MOL
REMARK 927      BINDING AFFINITY PREDICTED BY RF-SCORE:    0.00 PKD
ROOT
HETATM    1  F   UNL     1     -12.380  12.487  69.669  1.00  0.00    -0.278 F  
HETATM    2  C   UNL     1     -11.801  11.332  69.291  1.00  0.00    -0.354 C  
HETATM    3  C   UNL     1     -11.475  10.375  70.161  1.00  0.00    -0.319 C  
HETATM    4  N   UNL     1     -10.878   9.196  69.752  1.00  0.00    -0.227 N  
HETATM    5  C   UNL     1     -10.553   8.967  68.418  1.00  0.00    -0.154 C  
HETATM    6  O   UNL     1     -11.786  11.991  67.010  1.00  0.00    -0.573 OA 
HETATM    7  O   UNL     1      -9.960   7.970  68.014  1.00  0.00    -0.165 OA 
HETATM    8  H   UNL     1     -10.755   9.773  66.547  1.00  0.00     0.000 HD 
HETATM    9  N   UNL     1     -10.931   9.950  67.536  1.00  0.00    -0.247 N  
HETATM   10  C   UNL     1     -11.522  11.143  67.854  1.00  0.00    -0.284 C  
ENDROOT
BRANCH   4  11
HETATM   11  C   UNL     1     -10.520   8.156  70.704  1.00  0.00    -0.210 C  
HETATM   12  C   UNL     1     -10.257   8.674  72.111  1.00  0.00    -0.394 C  
HETATM   13  C   UNL     1     -10.433   7.413  72.920  1.00  0.00    -0.344 C  
HETATM   14  C   UNL     1     -11.576   6.722  72.201  1.00  0.00    -0.288 C  
HETATM   15  O   UNL     1     -11.572   7.184  70.841  1.00  0.00    -0.286 OA 
ENDBRANCH   4  11
TORSDOF 1
ENDMDL
MODEL       71
REMARK 921   NORMALIZED FREE ENERGY PREDICTED BY IDOCK:   -3.90 KCAL/MOL
REMARK 922        TOTAL FREE ENERGY PREDICTED BY IDOCK:   -4.31 KCAL/MOL
REMARK 923 INTER-LIGAND FREE ENERGY PREDICTED BY IDOCK:   -4.12 KCAL/MOL
REMARK 924 INTRA-LIGAND FREE ENERGY PREDICTED BY IDOCK:   -0.19 KCAL/MOL
REMARK 927      BINDING AFFINITY PREDICTED BY RF-SCORE:    0.00 PKD
ROOT
HETATM    1  F   UNL     1     -10.892   5.959  66.606  1.00  0.00    -0.314 F  
HETATM    2  C   UNL     1     -10.769   7.006  67.441  1.00  0.00    -0.313 C  
HETATM    3  C   UNL     1     -10.652   8.261  67.007  1.00  0.00    -0.258 C  
HETATM    4  N   UNL     1     -10.525   9.324  67.884  1.00  0.00    -0.231 N  
HETATM    5  C   UNL     1     -10.472   9.131  69.261  1.00  0.00    -0.221 C  
HETATM    6  O   UNL     1     -10.851   5.596  69.351  1.00  0.00    -0.320 OA 
HETATM    7  O   UNL     1     -10.290  10.032  70.076  1.00  0.00    -0.253 OA 
HETATM    8  H   UNL     1     -10.656   7.682  70.695  1.00  0.00     0.000 HD 
HETATM    9  N   UNL     1     -10.631   7.835  69.687  1.00  0.00    -0.243 N  
HETATM   10  C   UNL     1     -10.761   6.729  68.891  1.00  0.00    -0.240 C  
ENDROOT
BRANCH   4  11
HETATM   11  C   UNL     1     -10.394  10.692  67.404  1.00  0.00    -0.219 C  
HETATM   12  C   UNL     1      -9.876  10.797  65.978  1.00  0.00    -0.285 C  
HETATM   13  C   UNL     1     -10.330  12.187  65.608  1.00  0.00    -0.289 C  
HETATM   14  C   UNL     1     -11.679  12.283  66.295  1.00  0.00    -0.366 C  
HETATM   15  O   UNL     1     -11.662  11.373  67.406  1.00  0.00    -0.574 OA 
ENDBRANCH   4  11
TORSDOF 1
ENDMDL
MODEL       72
REMARK 921   NORMALIZED FREE ENERGY PREDICTED BY IDOCK:   -3.89 KCAL/MOL
REMARK 922        TOTAL FREE ENERGY PREDICTED BY IDOCK:   -4.31 KCAL/MOL
REMARK 923 INTER-LIGAND FREE ENERGY PREDICTED BY IDOCK:   -4.10 KCAL/MOL
REMARK 924 INTRA-LIGAND FREE ENERGY PREDICTED BY IDOCK:   -0.20 KCAL/MOL
REMARK 927      BINDING AFFINITY PREDICTED BY RF-SCORE:    0.00 PKD
ROOT
HETATM    1  F   UNL     1      -9.730  10.854  68.360  1.00  0.00    -0.151 F  
HETATM    2  C   UNL     1      -9.727  10.144  69.503  1.00  0.00    -0.229 C  
HETATM    3  C   UNL     1     -10.848   9.785  70.127  1.00  0.00    -0.291 C  
HETATM    4  N   UNL     1     -10.823   9.057  71.304  1.00  0.00    -0.286 N  
HETATM    5  C   UNL     1      -9.624   8.698  71.913  1.00  0.00    -0.307 C  
HETATM    6  O   UNL     1      -7.353  10.078  69.550  1.00  0.00    -0.084 OA 
HETATM    7  O   UNL     1      -9.547   8.114  72.992  1.00  0.00    -0.272 OA 
HETATM    8  H   UNL     1      -7.596   8.739  71.635  1.00  0.00     0.000 HD 
HETATM    9  N   UNL     1      -8.482   9.046  71.234  1.00  0.00    -0.175 N  
HETATM   10  C   UNL     1      -8.417   9.765  70.070  1.00  0.00    -0.206 C  
ENDROOT
BRANCH   4  11
HETATM   11  C   UNL     1     -12.049   8.670  71.984  1.00  0.00    -0.375 C  
HETATM   12  C   UNL     1     -13.103   9.766  72.023  1.00  0.00    -0.546 C  
HETATM   13  C   UNL     1     -14.350   8.958  72.283  1.00  0.00    -0.418 C  
HETATM   14  C   UNL     1     -14.101   7.705  71.467  1.00  0.00    -0.421 C  
HETATM   15  O   UNL     1     -12.680   7.551  71.335  1.00  0.00    -0.342 OA 
ENDBRANCH   4  11
TORSDOF 1
ENDMDL
MODEL       73
REMARK 921   NORMALIZED FREE ENERGY PREDICTED BY IDOCK:   -3.84 KCAL/MOL
REMARK 922        TOTAL FREE ENERGY PREDICTED BY IDOCK:   -4.25 KCAL/MOL
REMARK 923 INTER-LIGAND FREE ENERGY PREDICTED BY IDOCK:   -4.10 KCAL/MOL
REMARK 924 INTRA-LIGAND FREE ENERGY PREDICTED BY IDOCK:   -0.14 KCAL/MOL
REMARK 927      BINDING AFFINITY PREDICTED BY RF-SCORE:    0.00 PKD
ROOT
HETATM    1  F   UNL     1      -9.047   8.183  72.268  1.00  0.00    -0.173 F  
HETATM    2  C   UNL     1     -10.370   8.395  72.137  1.00  0.00    -0.327 C  
HETATM    3  C   UNL     1     -10.871   9.541  71.677  1.00  0.00    -0.155 C  
HETATM    4  N   UNL     1     -12.235   9.738  71.553  1.00  0.00    -0.381 N  
HETATM    5  C   UNL     1     -13.151   8.765  71.940  1.00  0.00    -0.378 C  
HETATM    6  O   UNL     1     -10.880   6.231  72.974  1.00  0.00    -0.243 OA 
HETATM    7  O   UNL     1     -14.370   8.918  71.916  1.00  0.00    -0.368 OA 
HETATM    8  H   UNL     1     -13.268   6.833  72.608  1.00  0.00     0.000 HD 
HETATM    9  N   UNL     1     -12.612   7.579  72.376  1.00  0.00    -0.064 N  
HETATM   10  C   UNL     1     -11.280   7.301  72.531  1.00  0.00    -0.301 C  
ENDROOT
BRANCH   4  11
HETATM   11  C   UNL     1     -12.778  10.992  71.053  1.00  0.00    -0.386 C  
HETATM   12  C   UNL     1     -13.062  12.017  72.141  1.00  0.00    -0.352 C  
HETATM   13  C   UNL     1     -13.095  13.292  71.335  1.00  0.00    -0.361 C  
HETATM   14  C   UNL     1     -12.003  13.056  70.309  1.00  0.00    -0.285 C  
HETATM   15  O   UNL     1     -11.865  11.636  70.146  1.00  0.00    -0.330 OA 
ENDBRANCH   4  11
TORSDOF 1
ENDMDL
MODEL       74
REMARK 921   NORMALIZED FREE ENERGY PREDICTED BY IDOCK:   -3.78 KCAL/MOL
REMARK 922        TOTAL FREE ENERGY PREDICTED BY IDOCK:   -4.19 KCAL/MOL
REMARK 923 INTER-LIGAND FREE ENERGY PREDICTED BY IDOCK:   -3.99 KCAL/MOL
REMARK 924 INTRA-LIGAND FREE ENERGY PREDICTED BY IDOCK:   -0.20 KCAL/MOL
REMARK 927      BINDING AFFINITY PREDICTED BY RF-SCORE:    0.00 PKD
ROOT
HETATM    1  F   UNL     1      -9.417  17.043  67.422  1.00  0.00    -0.233 F  
HETATM    2  C   UNL     1      -9.350  15.699  67.419  1.00  0.00    -0.210 C  
HETATM    3  C   UNL     1      -9.993  14.950  66.523  1.00  0.00    -0.265 C  
HETATM    4  N   UNL     1      -9.913  13.569  66.539  1.00  0.00    -0.280 N  
HETATM    5  C   UNL     1      -9.189  12.892  67.516  1.00  0.00    -0.192 C  
HETATM    6  O   UNL     1      -7.928  15.685  69.321  1.00  0.00    -0.210 OA 
HETATM    7  O   UNL     1      -9.144  11.668  67.616  1.00  0.00    -0.166 OA 
HETATM    8  H   UNL     1      -7.921  13.206  69.092  1.00  0.00     0.000 HD 
HETATM    9  N   UNL     1      -8.505  13.683  68.406  1.00  0.00    -0.162 N  
HETATM   10  C   UNL     1      -8.531  15.051  68.462  1.00  0.00    -0.163 C  
ENDROOT
BRANCH   4  11
HETATM   11  C   UNL     1     -10.619  12.756  65.561  1.00  0.00    -0.281 C  
HETATM   12  C   UNL     1     -12.119  12.665  65.804  1.00  0.00    -0.484 C  
HETATM   13  C   UNL     1     -12.607  12.248  64.439  1.00  0.00    -0.447 C  
HETATM   14  C   UNL     1     -11.691  13.027  63.514  1.00  0.00    -0.471 C  
HETATM   15  O   UNL     1     -10.476  13.289  64.232  1.00  0.00    -0.424 OA 
ENDBRANCH   4  11
TORSDOF 1
ENDMDL
MODEL       75
REMARK 921   NORMALIZED FREE ENERGY PREDICTED BY IDOCK:   -3.78 KCAL/MOL
REMARK 922        TOTAL FREE ENERGY PREDICTED BY IDOCK:   -4.19 KCAL/MOL
REMARK 923 INTER-LIGAND FREE ENERGY PREDICTED BY IDOCK:   -3.99 KCAL/MOL
REMARK 924 INTRA-LIGAND FREE ENERGY PREDICTED BY IDOCK:   -0.20 KCAL/MOL
REMARK 927      BINDING AFFINITY PREDICTED BY RF-SCORE:    0.00 PKD
ROOT
HETATM    1  F   UNL     1      -6.566  14.504  68.351  1.00  0.00    -0.083 F  
HETATM    2  C   UNL     1      -7.596  15.348  68.158  1.00  0.00    -0.114 C  
HETATM    3  C   UNL     1      -8.671  15.016  67.444  1.00  0.00    -0.194 C  
HETATM    4  N   UNL     1      -9.719  15.900  67.255  1.00  0.00    -0.222 N  
HETATM    5  C   UNL     1      -9.682  17.194  67.768  1.00  0.00    -0.271 C  
HETATM    6  O   UNL     1      -6.536  17.058  69.420  1.00  0.00    -0.229 OA 
HETATM    7  O   UNL     1     -10.553  18.038  67.570  1.00  0.00    -0.395 OA 
HETATM    8  H   UNL     1      -8.567  18.424  68.964  1.00  0.00     0.000 HD 
HETATM    9  N   UNL     1      -8.582  17.501  68.531  1.00  0.00    -0.275 N  
HETATM   10  C   UNL     1      -7.505  16.690  68.766  1.00  0.00    -0.224 C  
ENDROOT
BRANCH   4  11
HETATM   11  C   UNL     1     -10.889  15.535  66.472  1.00  0.00    -0.284 C  
HETATM   12  C   UNL     1     -10.566  15.086  65.055  1.00  0.00    -0.437 C  
HETATM   13  C   UNL     1     -11.815  14.318  64.703  1.00  0.00    -0.459 C  
HETATM   14  C   UNL     1     -12.161  13.641  66.016  1.00  0.00    -0.449 C  
HETATM   15  O   UNL     1     -11.601  14.436  67.072  1.00  0.00    -0.352 OA 
ENDBRANCH   4  11
TORSDOF 1
ENDMDL
MODEL       76
REMARK 921   NORMALIZED FREE ENERGY PREDICTED BY IDOCK:   -3.77 KCAL/MOL
REMARK 922        TOTAL FREE ENERGY PREDICTED BY IDOCK:   -4.18 KCAL/MOL
REMARK 923 INTER-LIGAND FREE ENERGY PREDICTED BY IDOCK:   -3.98 KCAL/MOL
REMARK 924 INTRA-LIGAND FREE ENERGY PREDICTED BY IDOCK:   -0.20 KCAL/MOL
REMARK 927      BINDING AFFINITY PREDICTED BY RF-SCORE:    0.00 PKD
ROOT
HETATM    1  F   UNL     1     -14.256   6.349  72.273  1.00  0.00    -0.346 F  
HETATM    2  C   UNL     1     -13.331   7.176  71.751  1.00  0.00    -0.283 C  
HETATM    3  C   UNL     1     -12.348   6.745  70.961  1.00  0.00    -0.315 C  
HETATM    4  N   UNL     1     -11.406   7.613  70.436  1.00  0.00    -0.255 N  
HETATM    5  C   UNL     1     -11.415   8.971  70.741  1.00  0.00    -0.282 C  
HETATM    6  O   UNL     1     -14.300   9.064  72.819  1.00  0.00    -0.596 OA 
HETATM    7  O   UNL     1     -10.562   9.768  70.359  1.00  0.00    -0.265 OA 
HETATM    8  H   UNL     1     -12.514  10.399  71.711  1.00  0.00     0.000 HD 
HETATM    9  N   UNL     1     -12.457   9.398  71.527  1.00  0.00    -0.343 N  
HETATM   10  C   UNL     1     -13.428   8.611  72.087  1.00  0.00    -0.398 C  
ENDROOT
BRANCH   4  11
HETATM   11  C   UNL     1     -10.333   7.137  69.577  1.00  0.00    -0.215 C  
HETATM   12  C   UNL     1      -9.199   6.454  70.327  1.00  0.00    -0.158 C  
HETATM   13  C   UNL     1      -8.560   5.655  69.219  1.00  0.00    -0.106 C  
HETATM   14  C   UNL     1      -9.759   5.212  68.403  1.00  0.00    -0.147 C  
HETATM   15  O   UNL     1     -10.809   6.165  68.629  1.00  0.00    -0.277 OA 
ENDBRANCH   4  11
TORSDOF 1
ENDMDL
MODEL       77
REMARK 921   NORMALIZED FREE ENERGY PREDICTED BY IDOCK:   -3.76 KCAL/MOL
REMARK 922        TOTAL FREE ENERGY PREDICTED BY IDOCK:   -4.17 KCAL/MOL
REMARK 923 INTER-LIGAND FREE ENERGY PREDICTED BY IDOCK:   -3.97 KCAL/MOL
REMARK 924 INTRA-LIGAND FREE ENERGY PREDICTED BY IDOCK:   -0.20 KCAL/MOL
REMARK 927      BINDING AFFINITY PREDICTED BY RF-SCORE:    0.00 PKD
ROOT
HETATM    1  F   UNL     1     -13.207   6.351  71.965  1.00  0.00    -0.342 F  
HETATM    2  C   UNL     1     -12.066   7.065  71.935  1.00  0.00    -0.323 C  
HETATM    3  C   UNL     1     -11.904   8.123  71.141  1.00  0.00    -0.279 C  
HETATM    4  N   UNL     1     -10.721   8.843  71.123  1.00  0.00    -0.240 N  
HETATM    5  C   UNL     1      -9.631   8.472  71.904  1.00  0.00    -0.283 C  
HETATM    6  O   UNL     1     -11.051   5.665  73.562  1.00  0.00    -0.256 OA 
HETATM    7  O   UNL     1      -8.539   9.034  71.873  1.00  0.00    -0.361 OA 
HETATM    8  H   UNL     1      -9.065   7.154  73.365  1.00  0.00     0.000 HD 
HETATM    9  N   UNL     1      -9.833   7.402  72.741  1.00  0.00    -0.174 N  
HETATM   10  C   UNL     1     -10.966   6.637  72.821  1.00  0.00    -0.258 C  
ENDROOT
BRANCH   4  11
HETATM   11  C   UNL     1     -10.547   9.995  70.252  1.00  0.00    -0.295 C  
HETATM   12  C   UNL     1     -10.525   9.649  68.770  1.00  0.00    -0.238 C  
HETATM   13  C   UNL     1     -10.854  10.987  68.157  1.00  0.00    -0.274 C  
HETATM   14  C   UNL     1     -11.864  11.554  69.135  1.00  0.00    -0.340 C  
HETATM   15  O   UNL     1     -11.620  10.941  70.411  1.00  0.00    -0.308 OA 
ENDBRANCH   4  11
TORSDOF 1
ENDMDL
MODEL       78
REMARK 921   NORMALIZED FREE ENERGY PREDICTED BY IDOCK:   -3.76 KCAL/MOL
REMARK 922        TOTAL FREE ENERGY PREDICTED BY IDOCK:   -4.16 KCAL/MOL
REMARK 923 INTER-LIGAND FREE ENERGY PREDICTED BY IDOCK:   -3.96 KCAL/MOL
REMARK 924 INTRA-LIGAND FREE ENERGY PREDICTED BY IDOCK:   -0.20 KCAL/MOL
REMARK 927      BINDING AFFINITY PREDICTED BY RF-SCORE:    0.00 PKD
ROOT
HETATM    1  F   UNL     1     -10.694   9.287  71.917  1.00  0.00    -0.406 F  
HETATM    2  C   UNL     1     -10.993   9.868  70.741  1.00  0.00    -0.337 C  
HETATM    3  C   UNL     1     -10.303   9.626  69.626  1.00  0.00    -0.227 C  
HETATM    4  N   UNL     1     -10.625  10.236  68.426  1.00  0.00    -0.202 N  
HETATM    5  C   UNL     1     -11.660  11.162  68.334  1.00  0.00    -0.306 C  
HETATM    6  O   UNL     1     -12.792  11.081  71.704  1.00  0.00    -0.430 OA 
HETATM    7  O   UNL     1     -11.940  11.782  67.311  1.00  0.00    -0.618 OA 
HETATM    8  H   UNL     1     -13.180  11.997  69.422  1.00  0.00     0.000 HD 
HETATM    9  N   UNL     1     -12.380  11.367  69.485  1.00  0.00    -0.209 N  
HETATM   10  C   UNL     1     -12.130  10.809  70.710  1.00  0.00    -0.372 C  
ENDROOT
BRANCH   4  11
HETATM   11  C   UNL     1      -9.867   9.973  67.213  1.00  0.00    -0.181 C  
HETATM   12  C   UNL     1      -8.360   9.945  67.423  1.00  0.00    -0.118 C  
HETATM   13  C   UNL     1      -7.914   9.174  66.205  1.00  0.00    -0.103 C  
HETATM   14  C   UNL     1      -9.018   8.147  66.048  1.00  0.00    -0.171 C  
HETATM   15  O   UNL     1     -10.202   8.690  66.652  1.00  0.00    -0.282 OA 
ENDBRANCH   4  11
TORSDOF 1
ENDMDL
MODEL       79
REMARK 921   NORMALIZED FREE ENERGY PREDICTED BY IDOCK:   -3.75 KCAL/MOL
REMARK 922        TOTAL FREE ENERGY PREDICTED BY IDOCK:   -4.16 KCAL/MOL
REMARK 923 INTER-LIGAND FREE ENERGY PREDICTED BY IDOCK:   -3.96 KCAL/MOL
REMARK 924 INTRA-LIGAND FREE ENERGY PREDICTED BY IDOCK:   -0.20 KCAL/MOL
REMARK 927      BINDING AFFINITY PREDICTED BY RF-SCORE:    0.00 PKD
ROOT
HETATM    1  F   UNL     1      -9.928  15.463  67.250  1.00  0.00    -0.222 F  
HETATM    2  C   UNL     1     -10.172  14.484  66.360  1.00  0.00    -0.287 C  
HETATM    3  C   UNL     1     -10.147  13.192  66.688  1.00  0.00    -0.264 C  
HETATM    4  N   UNL     1     -10.400  12.201  65.756  1.00  0.00    -0.250 N  
HETATM    5  C   UNL     1     -10.653  12.503  64.421  1.00  0.00    -0.350 C  
HETATM    6  O   UNL     1     -10.496  16.051  64.604  1.00  0.00    -0.502 OA 
HETATM    7  O   UNL     1     -10.813  11.659  63.543  1.00  0.00    -0.394 OA 
HETATM    8  H   UNL     1     -10.954  14.081  63.152  1.00  0.00     0.000 HD 
HETATM    9  N   UNL     1     -10.710  13.840  64.113  1.00  0.00    -0.182 N  
HETATM   10  C   UNL     1     -10.472  14.881  64.970  1.00  0.00    -0.401 C  
ENDROOT
BRANCH   4  11
HETATM   11  C   UNL     1     -10.368  10.792  66.119  1.00  0.00    -0.239 C  
HETATM   12  C   UNL     1      -8.993  10.296  66.541  1.00  0.00    -0.161 C  
HETATM   13  C   UNL     1      -9.360   9.054  67.314  1.00  0.00    -0.172 C  
HETATM   14  C   UNL     1     -10.638   9.472  68.015  1.00  0.00    -0.230 C  
HETATM   15  O   UNL     1     -11.237  10.516  67.232  1.00  0.00    -0.307 OA 
ENDBRANCH   4  11
TORSDOF 1
ENDMDL
MODEL       80
REMARK 921   NORMALIZED FREE ENERGY PREDICTED BY IDOCK:   -3.75 KCAL/MOL
REMARK 922        TOTAL FREE ENERGY PREDICTED BY IDOCK:   -4.16 KCAL/MOL
REMARK 923 INTER-LIGAND FREE ENERGY PREDICTED BY IDOCK:   -4.76 KCAL/MOL
REMARK 924 INTRA-LIGAND FREE ENERGY PREDICTED BY IDOCK:    0.61 KCAL/MOL
REMARK 927      BINDING AFFINITY PREDICTED BY RF-SCORE:    0.00 PKD
ROOT
HETATM    1  F   UNL     1     -12.569  13.638  70.732  1.00  0.00    -0.374 F  
HETATM    2  C   UNL     1     -12.137  12.820  69.755  1.00  0.00    -0.237 C  
HETATM    3  C   UNL     1     -12.010  13.219  68.490  1.00  0.00    -0.304 C  
HETATM    4  N   UNL     1     -11.565  12.360  67.499  1.00  0.00    -0.348 N  
HETATM    5  C   UNL     1     -11.269  11.027  67.769  1.00  0.00    -0.308 C  
HETATM    6  O   UNL     1     -11.913  11.001  71.266  1.00  0.00    -0.241 OA 
HETATM    7  O   UNL     1     -10.940  10.208  66.914  1.00  0.00    -0.168 OA 
HETATM    8  H   UNL     1     -11.101   9.691  69.311  1.00  0.00     0.000 HD 
HETATM    9  N   UNL     1     -11.372  10.648  69.085  1.00  0.00    -0.257 N  
HETATM   10  C   UNL     1     -11.803  11.430  70.124  1.00  0.00    -0.355 C  
ENDROOT
BRANCH   4  11
HETATM   11  C   UNL     1     -11.431  12.799  66.119  1.00  0.00    -0.351 C  
HETATM   12  C   UNL     1     -10.220  12.218  65.403  1.00  0.00    -0.297 C  
HETATM   13  C   UNL     1     -10.621  12.404  63.961  1.00  0.00    -0.444 C  
HETATM   14  C   UNL     1     -12.111  12.124  63.999  1.00  0.00    -0.443 C  
HETATM   15  O   UNL     1     -12.570  12.408  65.330  1.00  0.00    -0.636 OA 
ENDBRANCH   4  11
TORSDOF 1
ENDMDL
MODEL       81
REMARK 921   NORMALIZED FREE ENERGY PREDICTED BY IDOCK:   -3.75 KCAL/MOL
REMARK 922        TOTAL FREE ENERGY PREDICTED BY IDOCK:   -4.15 KCAL/MOL
REMARK 923 INTER-LIGAND FREE ENERGY PREDICTED BY IDOCK:   -3.98 KCAL/MOL
REMARK 924 INTRA-LIGAND FREE ENERGY PREDICTED BY IDOCK:   -0.18 KCAL/MOL
REMARK 927      BINDING AFFINITY PREDICTED BY RF-SCORE:    0.00 PKD
ROOT
HETATM    1  F   UNL     1     -12.331  13.452  68.376  1.00  0.00    -0.361 F  
HETATM    2  C   UNL     1     -11.712  12.264  68.249  1.00  0.00    -0.336 C  
HETATM    3  C   UNL     1     -11.716  11.346  69.216  1.00  0.00    -0.337 C  
HETATM    4  N   UNL     1     -11.071  10.131  69.066  1.00  0.00    -0.222 N  
HETATM    5  C   UNL     1     -10.353   9.824  67.914  1.00  0.00    -0.213 C  
HETATM    6  O   UNL     1     -10.954  12.801  66.063  1.00  0.00    -0.271 OA 
HETATM    7  O   UNL     1      -9.706   8.791  67.760  1.00  0.00    -0.148 OA 
HETATM    8  H   UNL     1      -9.924  10.534  66.042  1.00  0.00     0.000 HD 
HETATM    9  N   UNL     1     -10.394  10.768  66.917  1.00  0.00    -0.231 N  
HETATM   10  C   UNL     1     -11.004  11.992  66.982  1.00  0.00    -0.274 C  
ENDROOT
BRANCH   4  11
HETATM   11  C   UNL     1     -11.074   9.134  70.126  1.00  0.00    -0.222 C  
HETATM   12  C   UNL     1      -9.984   9.338  71.167  1.00  0.00    -0.356 C  
HETATM   13  C   UNL     1     -10.538   8.546  72.324  1.00  0.00    -0.408 C  
HETATM   14  C   UNL     1     -12.026   8.822  72.225  1.00  0.00    -0.345 C  
HETATM   15  O   UNL     1     -12.314   9.148  70.857  1.00  0.00    -0.254 OA 
ENDBRANCH   4  11
TORSDOF 1
ENDMDL
MODEL       82
REMARK 921   NORMALIZED FREE ENERGY PREDICTED BY IDOCK:   -3.73 KCAL/MOL
REMARK 922        TOTAL FREE ENERGY PREDICTED BY IDOCK:   -4.14 KCAL/MOL
REMARK 923 INTER-LIGAND FREE ENERGY PREDICTED BY IDOCK:   -3.94 KCAL/MOL
REMARK 924 INTRA-LIGAND FREE ENERGY PREDICTED BY IDOCK:   -0.20 KCAL/MOL
REMARK 927      BINDING AFFINITY PREDICTED BY RF-SCORE:    0.00 PKD
ROOT
HETATM    1  F   UNL     1      -8.542   7.902  74.242  1.00  0.00    -0.260 F  
HETATM    2  C   UNL     1      -9.046   8.163  73.022  1.00  0.00    -0.274 C  
HETATM    3  C   UNL     1     -10.356   8.204  72.782  1.00  0.00    -0.313 C  
HETATM    4  N   UNL     1     -10.855   8.472  71.519  1.00  0.00    -0.244 N  
HETATM    5  C   UNL     1     -10.011   8.671  70.429  1.00  0.00    -0.187 C  
HETATM    6  O   UNL     1      -6.876   8.363  72.079  1.00  0.00    -0.078 OA 
HETATM    7  O   UNL     1     -10.403   8.841  69.277  1.00  0.00    -0.207 OA 
HETATM    8  H   UNL     1      -8.035   8.863  69.933  1.00  0.00     0.000 HD 
HETATM    9  N   UNL     1      -8.666   8.659  70.707  1.00  0.00    -0.157 N  
HETATM   10  C   UNL     1      -8.090   8.402  71.923  1.00  0.00    -0.145 C  
ENDROOT
BRANCH   4  11
HETATM   11  C   UNL     1     -12.286   8.513  71.260  1.00  0.00    -0.277 C  
HETATM   12  C   UNL     1     -12.971   7.159  71.372  1.00  0.00    -0.419 C  
HETATM   13  C   UNL     1     -14.406   7.578  71.574  1.00  0.00    -0.603 C  
HETATM   14  C   UNL     1     -14.265   8.811  72.445  1.00  0.00    -0.385 C  
HETATM   15  O   UNL     1     -12.965   9.368  72.198  1.00  0.00    -0.390 OA 
ENDBRANCH   4  11
TORSDOF 1
ENDMDL
MODEL       83
REMARK 921   NORMALIZED FREE ENERGY PREDICTED BY IDOCK:   -3.73 KCAL/MOL
REMARK 922        TOTAL FREE ENERGY PREDICTED BY IDOCK:   -4.13 KCAL/MOL
REMARK 923 INTER-LIGAND FREE ENERGY PREDICTED BY IDOCK:   -3.93 KCAL/MOL
REMARK 924 INTRA-LIGAND FREE ENERGY PREDICTED BY IDOCK:   -0.20 KCAL/MOL
REMARK 927      BINDING AFFINITY PREDICTED BY RF-SCORE:    0.00 PKD
ROOT
HETATM    1  F   UNL     1      -8.166  14.599  69.268  1.00  0.00    -0.148 F  
HETATM    2  C   UNL     1      -7.681  15.854  69.233  1.00  0.00    -0.222 C  
HETATM    3  C   UNL     1      -8.330  16.857  68.643  1.00  0.00    -0.261 C  
HETATM    4  N   UNL     1      -7.812  18.141  68.615  1.00  0.00    -0.305 N  
HETATM    5  C   UNL     1      -6.569  18.437  69.167  1.00  0.00    -0.268 C  
HETATM    6  O   UNL     1      -5.723  15.217  70.418  1.00  0.00    -0.135 OA 
HETATM    7  O   UNL     1      -6.034  19.542  69.106  1.00  0.00    -0.235 OA 
HETATM    8  H   UNL     1      -5.050  17.609  70.262  1.00  0.00     0.000 HD 
HETATM    9  N   UNL     1      -5.935  17.397  69.800  1.00  0.00    -0.245 N  
HETATM   10  C   UNL     1      -6.373  16.102  69.873  1.00  0.00    -0.138 C  
ENDROOT
BRANCH   4  11
HETATM   11  C   UNL     1      -8.523  19.232  67.968  1.00  0.00    -0.317 C  
HETATM   12  C   UNL     1      -8.520  19.154  66.448  1.00  0.00    -0.325 C  
HETATM   13  C   UNL     1      -9.694  20.038  66.111  1.00  0.00    -0.517 C  
HETATM   14  C   UNL     1     -10.673  19.716  67.224  1.00  0.00    -0.458 C  
HETATM   15  O   UNL     1      -9.911  19.256  68.350  1.00  0.00    -0.360 OA 
ENDBRANCH   4  11
TORSDOF 1
ENDMDL
MODEL       84
REMARK 921   NORMALIZED FREE ENERGY PREDICTED BY IDOCK:   -3.70 KCAL/MOL
REMARK 922        TOTAL FREE ENERGY PREDICTED BY IDOCK:   -4.11 KCAL/MOL
REMARK 923 INTER-LIGAND FREE ENERGY PREDICTED BY IDOCK:   -3.90 KCAL/MOL
REMARK 924 INTRA-LIGAND FREE ENERGY PREDICTED BY IDOCK:   -0.20 KCAL/MOL
REMARK 927      BINDING AFFINITY PREDICTED BY RF-SCORE:    0.00 PKD
ROOT
HETATM    1  F   UNL     1      -8.395  15.410  68.187  1.00  0.00    -0.138 F  
HETATM    2  C   UNL     1      -9.501  14.992  67.545  1.00  0.00    -0.203 C  
HETATM    3  C   UNL     1      -9.675  13.725  67.167  1.00  0.00    -0.244 C  
HETATM    4  N   UNL     1     -10.819  13.316  66.505  1.00  0.00    -0.280 N  
HETATM    5  C   UNL     1     -11.826  14.214  66.166  1.00  0.00    -0.407 C  
HETATM    6  O   UNL     1     -10.436  17.175  67.562  1.00  0.00    -0.337 OA 
HETATM    7  O   UNL     1     -12.826  13.915  65.518  1.00  0.00    -0.609 OA 
HETATM    8  H   UNL     1     -12.398  16.165  66.409  1.00  0.00     0.000 HD 
HETATM    9  N   UNL     1     -11.642  15.506  66.596  1.00  0.00     0.047 N  
HETATM   10  C   UNL     1     -10.545  15.994  67.253  1.00  0.00    -0.313 C  
ENDROOT
BRANCH   4  11
HETATM   11  C   UNL     1     -11.003  11.933  66.092  1.00  0.00    -0.308 C  
HETATM   12  C   UNL     1      -9.759  11.300  65.488  1.00  0.00    -0.268 C  
HETATM   13  C   UNL     1     -10.073   9.834  65.650  1.00  0.00    -0.282 C  
HETATM   14  C   UNL     1     -10.781   9.799  66.991  1.00  0.00    -0.166 C  
HETATM   15  O   UNL     1     -11.361  11.094  67.206  1.00  0.00    -0.397 OA 
ENDBRANCH   4  11
TORSDOF 1
ENDMDL
MODEL       85
REMARK 921   NORMALIZED FREE ENERGY PREDICTED BY IDOCK:   -3.70 KCAL/MOL
REMARK 922        TOTAL FREE ENERGY PREDICTED BY IDOCK:   -4.11 KCAL/MOL
REMARK 923 INTER-LIGAND FREE ENERGY PREDICTED BY IDOCK:   -3.91 KCAL/MOL
REMARK 924 INTRA-LIGAND FREE ENERGY PREDICTED BY IDOCK:   -0.20 KCAL/MOL
REMARK 927      BINDING AFFINITY PREDICTED BY RF-SCORE:    0.00 PKD
ROOT
HETATM    1  F   UNL     1     -12.243  12.163  69.893  1.00  0.00    -0.335 F  
HETATM    2  C   UNL     1     -11.898  10.890  70.160  1.00  0.00    -0.353 C  
HETATM    3  C   UNL     1     -11.113  10.175  69.355  1.00  0.00    -0.243 C  
HETATM    4  N   UNL     1     -10.773   8.866  69.648  1.00  0.00    -0.233 N  
HETATM    5  C   UNL     1     -11.267   8.219  70.777  1.00  0.00    -0.264 C  
HETATM    6  O   UNL     1     -13.166  10.884  72.169  1.00  0.00    -0.474 OA 
HETATM    7  O   UNL     1     -11.052   7.039  71.044  1.00  0.00    -0.248 OA 
HETATM    8  H   UNL     1     -12.365   8.546  72.473  1.00  0.00     0.000 HD 
HETATM    9  N   UNL     1     -12.044   8.986  71.610  1.00  0.00    -0.328 N  
HETATM   10  C   UNL     1     -12.429  10.282  71.397  1.00  0.00    -0.424 C  
ENDROOT
BRANCH   4  11
HETATM   11  C   UNL     1      -9.918   8.088  68.764  1.00  0.00    -0.189 C  
HETATM   12  C   UNL     1     -10.552   7.767  67.419  1.00  0.00    -0.345 C  
HETATM   13  C   UNL     1      -9.331   7.455  66.591  1.00  0.00    -0.215 C  
HETATM   14  C   UNL     1      -8.318   8.455  67.115  1.00  0.00    -0.122 C  
HETATM   15  O   UNL     1      -8.700   8.791  68.458  1.00  0.00    -0.133 OA 
ENDBRANCH   4  11
TORSDOF 1
ENDMDL
MODEL       86
REMARK 921   NORMALIZED FREE ENERGY PREDICTED BY IDOCK:   -3.70 KCAL/MOL
REMARK 922        TOTAL FREE ENERGY PREDICTED BY IDOCK:   -4.10 KCAL/MOL
REMARK 923 INTER-LIGAND FREE ENERGY PREDICTED BY IDOCK:   -3.90 KCAL/MOL
REMARK 924 INTRA-LIGAND FREE ENERGY PREDICTED BY IDOCK:   -0.20 KCAL/MOL
REMARK 927      BINDING AFFINITY PREDICTED BY RF-SCORE:    0.00 PKD
ROOT
HETATM    1  F   UNL     1      -6.375  16.823  69.020  1.00  0.00    -0.149 F  
HETATM    2  C   UNL     1      -7.604  17.278  68.713  1.00  0.00    -0.256 C  
HETATM    3  C   UNL     1      -8.709  16.565  68.934  1.00  0.00    -0.247 C  
HETATM    4  N   UNL     1      -9.963  17.051  68.609  1.00  0.00    -0.278 N  
HETATM    5  C   UNL     1     -10.129  18.291  67.999  1.00  0.00    -0.364 C  
HETATM    6  O   UNL     1      -6.727  19.315  67.865  1.00  0.00    -0.223 OA 
HETATM    7  O   UNL     1     -11.213  18.736  67.628  1.00  0.00    -0.176 OA 
HETATM    8  H   UNL     1      -9.091  19.959  67.424  1.00  0.00     0.000 HD 
HETATM    9  N   UNL     1      -8.982  19.023  67.815  1.00  0.00    -0.289 N  
HETATM   10  C   UNL     1      -7.706  18.619  68.105  1.00  0.00    -0.281 C  
ENDROOT
BRANCH   4  11
HETATM   11  C   UNL     1     -11.166  16.268  68.849  1.00  0.00    -0.337 C  
HETATM   12  C   UNL     1     -11.044  14.809  68.433  1.00  0.00    -0.274 C  
HETATM   13  C   UNL     1     -12.155  14.186  69.239  1.00  0.00    -0.364 C  
HETATM   14  C   UNL     1     -12.091  14.965  70.539  1.00  0.00    -0.320 C  
HETATM   15  O   UNL     1     -11.507  16.243  70.247  1.00  0.00    -0.341 OA 
ENDBRANCH   4  11
TORSDOF 1
ENDMDL
MODEL       87
REMARK 921   NORMALIZED FREE ENERGY PREDICTED BY IDOCK:   -3.68 KCAL/MOL
REMARK 922        TOTAL FREE ENERGY PREDICTED BY IDOCK:   -4.08 KCAL/MOL
REMARK 923 INTER-LIGAND FREE ENERGY PREDICTED BY IDOCK:   -3.88 KCAL/MOL
REMARK 924 INTRA-LIGAND FREE ENERGY PREDICTED BY IDOCK:   -0.20 KCAL/MOL
REMARK 927      BINDING AFFINITY PREDICTED BY RF-SCORE:    0.00 PKD
ROOT
HETATM    1  F   UNL     1     -13.131  12.791  64.966  1.00  0.00    -0.538 F  
HETATM    2  C   UNL     1     -11.883  12.700  65.459  1.00  0.00    -0.431 C  
HETATM    3  C   UNL     1     -11.021  11.764  65.060  1.00  0.00    -0.300 C  
HETATM    4  N   UNL     1      -9.741  11.686  65.581  1.00  0.00    -0.233 N  
HETATM    5  C   UNL     1      -9.305  12.555  66.577  1.00  0.00    -0.233 C  
HETATM    6  O   UNL     1     -12.229  14.554  66.902  1.00  0.00    -0.375 OA 
HETATM    7  O   UNL     1      -8.206  12.483  67.122  1.00  0.00    -0.180 OA 
HETATM    8  H   UNL     1      -9.873  14.215  67.632  1.00  0.00     0.000 HD 
HETATM    9  N   UNL     1     -10.196  13.533  66.947  1.00  0.00    -0.253 N  
HETATM   10  C   UNL     1     -11.477  13.681  66.485  1.00  0.00    -0.335 C  
ENDROOT
BRANCH   4  11
HETATM   11  C   UNL     1      -8.805  10.661  65.145  1.00  0.00    -0.193 C  
HETATM   12  C   UNL     1      -9.186   9.254  65.581  1.00  0.00    -0.291 C  
HETATM   13  C   UNL     1      -8.394   8.425  64.601  1.00  0.00    -0.137 C  
HETATM   14  C   UNL     1      -8.492   9.243  63.328  1.00  0.00    -0.204 C  
HETATM   15  O   UNL     1      -8.714  10.609  63.710  1.00  0.00    -0.180 OA 
ENDBRANCH   4  11
TORSDOF 1
ENDMDL
MODEL       88
REMARK 921   NORMALIZED FREE ENERGY PREDICTED BY IDOCK:   -3.66 KCAL/MOL
REMARK 922        TOTAL FREE ENERGY PREDICTED BY IDOCK:   -4.06 KCAL/MOL
REMARK 923 INTER-LIGAND FREE ENERGY PREDICTED BY IDOCK:   -3.91 KCAL/MOL
REMARK 924 INTRA-LIGAND FREE ENERGY PREDICTED BY IDOCK:   -0.15 KCAL/MOL
REMARK 927      BINDING AFFINITY PREDICTED BY RF-SCORE:    0.00 PKD
ROOT
HETATM    1  F   UNL     1     -11.949  11.887  63.115  1.00  0.00    -0.498 F  
HETATM    2  C   UNL     1     -11.498  11.913  64.383  1.00  0.00    -0.320 C  
HETATM    3  C   UNL     1     -10.697  10.970  64.878  1.00  0.00    -0.208 C  
HETATM    4  N   UNL     1     -10.246  11.014  66.186  1.00  0.00    -0.240 N  
HETATM    5  C   UNL     1     -10.640  12.024  67.059  1.00  0.00    -0.227 C  
HETATM    6  O   UNL     1     -12.673  13.925  64.845  1.00  0.00    -0.648 OA 
HETATM    7  O   UNL     1     -10.325  12.070  68.246  1.00  0.00    -0.192 OA 
HETATM    8  H   UNL     1     -11.685  13.783  67.126  1.00  0.00     0.000 HD 
HETATM    9  N   UNL     1     -11.436  13.004  66.517  1.00  0.00    -0.323 N  
HETATM   10  C   UNL     1     -11.927  13.036  65.240  1.00  0.00    -0.407 C  
ENDROOT
BRANCH   4  11
HETATM   11  C   UNL     1      -9.374   9.982  66.724  1.00  0.00    -0.160 C  
HETATM   12  C   UNL     1     -10.118   8.804  67.335  1.00  0.00    -0.289 C  
HETATM   13  C   UNL     1      -9.048   7.742  67.312  1.00  0.00    -0.147 C  
HETATM   14  C   UNL     1      -8.333   8.029  66.006  1.00  0.00    -0.126 C  
HETATM   15  O   UNL     1      -8.534   9.417  65.700  1.00  0.00    -0.125 OA 
ENDBRANCH   4  11
TORSDOF 1
ENDMDL
MODEL       89
REMARK 921   NORMALIZED FREE ENERGY PREDICTED BY IDOCK:   -3.65 KCAL/MOL
REMARK 922        TOTAL FREE ENERGY PREDICTED BY IDOCK:   -4.05 KCAL/MOL
REMARK 923 INTER-LIGAND FREE ENERGY PREDICTED BY IDOCK:   -3.87 KCAL/MOL
REMARK 924 INTRA-LIGAND FREE ENERGY PREDICTED BY IDOCK:   -0.18 KCAL/MOL
REMARK 927      BINDING AFFINITY PREDICTED BY RF-SCORE:    0.00 PKD
ROOT
HETATM    1  F   UNL     1     -12.409  13.686  68.752  1.00  0.00    -0.379 F  
HETATM    2  C   UNL     1     -11.860  12.863  67.841  1.00  0.00    -0.339 C  
HETATM    3  C   UNL     1     -11.142  11.792  68.181  1.00  0.00    -0.243 C  
HETATM    4  N   UNL     1     -10.584  10.959  67.227  1.00  0.00    -0.236 N  
HETATM    5  C   UNL     1     -10.712  11.221  65.866  1.00  0.00    -0.232 C  
HETATM    6  O   UNL     1     -12.709  14.158  66.040  1.00  0.00    -0.469 OA 
HETATM    7  O   UNL     1     -10.178  10.553  64.983  1.00  0.00    -0.315 OA 
HETATM    8  H   UNL     1     -11.640  12.479  64.545  1.00  0.00     0.000 HD 
HETATM    9  N   UNL     1     -11.486  12.307  65.538  1.00  0.00    -0.350 N  
HETATM   10  C   UNL     1     -12.071  13.181  66.414  1.00  0.00    -0.382 C  
ENDROOT
BRANCH   4  11
HETATM   11  C   UNL     1      -9.799   9.794  67.603  1.00  0.00    -0.165 C  
HETATM   12  C   UNL     1      -9.237   9.860  69.015  1.00  0.00    -0.168 C  
HETATM   13  C   UNL     1      -8.958   8.402  69.283  1.00  0.00    -0.150 C  
HETATM   14  C   UNL     1     -10.125   7.716  68.598  1.00  0.00    -0.190 C  
HETATM   15  O   UNL     1     -10.588   8.591  67.557  1.00  0.00    -0.256 OA 
ENDBRANCH   4  11
TORSDOF 1
ENDMDL
MODEL       90
REMARK 921   NORMALIZED FREE ENERGY PREDICTED BY IDOCK:   -3.65 KCAL/MOL
REMARK 922        TOTAL FREE ENERGY PREDICTED BY IDOCK:   -4.05 KCAL/MOL
REMARK 923 INTER-LIGAND FREE ENERGY PREDICTED BY IDOCK:   -3.85 KCAL/MOL
REMARK 924 INTRA-LIGAND FREE ENERGY PREDICTED BY IDOCK:   -0.20 KCAL/MOL
REMARK 927      BINDING AFFINITY PREDICTED BY RF-SCORE:    0.00 PKD
ROOT
HETATM    1  F   UNL     1      -7.895   8.440  66.850  1.00  0.00    -0.091 F  
HETATM    2  C   UNL     1      -8.987   9.155  67.176  1.00  0.00    -0.123 C  
HETATM    3  C   UNL     1      -9.466  10.128  66.400  1.00  0.00    -0.176 C  
HETATM    4  N   UNL     1     -10.590  10.853  66.755  1.00  0.00    -0.255 N  
HETATM    5  C   UNL     1     -11.252  10.628  67.959  1.00  0.00    -0.307 C  
HETATM    6  O   UNL     1      -9.259   7.962  69.211  1.00  0.00    -0.148 OA 
HETATM    7  O   UNL     1     -12.209  11.291  68.352  1.00  0.00    -0.604 OA 
HETATM    8  H   UNL     1     -11.272   9.380  69.581  1.00  0.00     0.000 HD 
HETATM    9  N   UNL     1     -10.763   9.598  68.725  1.00  0.00    -0.221 N  
HETATM   10  C   UNL     1      -9.660   8.835  68.450  1.00  0.00    -0.147 C  
ENDROOT
BRANCH   4  11
HETATM   11  C   UNL     1     -11.107  11.915  65.907  1.00  0.00    -0.316 C  
HETATM   12  C   UNL     1     -10.251  13.173  65.905  1.00  0.00    -0.294 C  
HETATM   13  C   UNL     1     -10.706  13.830  64.626  1.00  0.00    -0.427 C  
HETATM   14  C   UNL     1     -10.912  12.642  63.706  1.00  0.00    -0.435 C  
HETATM   15  O   UNL     1     -11.184  11.500  64.531  1.00  0.00    -0.305 OA 
ENDBRANCH   4  11
TORSDOF 1
ENDMDL
MODEL       91
REMARK 921   NORMALIZED FREE ENERGY PREDICTED BY IDOCK:   -3.65 KCAL/MOL
REMARK 922        TOTAL FREE ENERGY PREDICTED BY IDOCK:   -4.05 KCAL/MOL
REMARK 923 INTER-LIGAND FREE ENERGY PREDICTED BY IDOCK:   -4.33 KCAL/MOL
REMARK 924 INTRA-LIGAND FREE ENERGY PREDICTED BY IDOCK:    0.29 KCAL/MOL
REMARK 927      BINDING AFFINITY PREDICTED BY RF-SCORE:    0.00 PKD
ROOT
HETATM    1  F   UNL     1     -12.014  11.376  71.322  1.00  0.00    -0.353 F  
HETATM    2  C   UNL     1     -11.986  12.130  70.208  1.00  0.00    -0.305 C  
HETATM    3  C   UNL     1     -11.706  11.624  69.007  1.00  0.00    -0.324 C  
HETATM    4  N   UNL     1     -11.680  12.418  67.873  1.00  0.00    -0.357 N  
HETATM    5  C   UNL     1     -11.905  13.790  67.938  1.00  0.00    -0.378 C  
HETATM    6  O   UNL     1     -12.523  14.096  71.427  1.00  0.00    -0.334 OA 
HETATM    7  O   UNL     1     -11.823  14.548  66.974  1.00  0.00    -0.394 OA 
HETATM    8  H   UNL     1     -12.453  15.275  69.235  1.00  0.00     0.000 HD 
HETATM    9  N   UNL     1     -12.227  14.283  69.179  1.00  0.00    -0.289 N  
HETATM   10  C   UNL     1     -12.273  13.571  70.348  1.00  0.00    -0.356 C  
ENDROOT
BRANCH   4  11
HETATM   11  C   UNL     1     -11.371  11.862  66.564  1.00  0.00    -0.341 C  
HETATM   12  C   UNL     1     -10.151  12.486  65.903  1.00  0.00    -0.270 C  
HETATM   13  C   UNL     1      -9.792  11.420  64.898  1.00  0.00    -0.301 C  
HETATM   14  C   UNL     1     -10.095  10.142  65.656  1.00  0.00    -0.254 C  
HETATM   15  O   UNL     1     -11.088  10.453  66.645  1.00  0.00    -0.079 OA 
ENDBRANCH   4  11
TORSDOF 1
ENDMDL
MODEL       92
REMARK 921   NORMALIZED FREE ENERGY PREDICTED BY IDOCK:   -3.59 KCAL/MOL
REMARK 922        TOTAL FREE ENERGY PREDICTED BY IDOCK:   -3.98 KCAL/MOL
REMARK 923 INTER-LIGAND FREE ENERGY PREDICTED BY IDOCK:   -3.80 KCAL/MOL
REMARK 924 INTRA-LIGAND FREE ENERGY PREDICTED BY IDOCK:   -0.18 KCAL/MOL
REMARK 927      BINDING AFFINITY PREDICTED BY RF-SCORE:    0.00 PKD
ROOT
HETATM    1  F   UNL     1      -7.890   9.806  66.986  1.00  0.00    -0.099 F  
HETATM    2  C   UNL     1      -8.740  10.369  66.108  1.00  0.00    -0.152 C  
HETATM    3  C   UNL     1      -9.340  11.537  66.339  1.00  0.00    -0.209 C  
HETATM    4  N   UNL     1     -10.213  12.098  65.423  1.00  0.00    -0.264 N  
HETATM    5  C   UNL     1     -10.538  11.451  64.235  1.00  0.00    -0.355 C  
HETATM    6  O   UNL     1      -8.497   8.560  64.589  1.00  0.00    -0.166 OA 
HETATM    7  O   UNL     1     -11.360  11.872  63.424  1.00  0.00    -0.404 OA 
HETATM    8  H   UNL     1     -10.062   9.809  63.109  1.00  0.00     0.000 HD 
HETATM    9  N   UNL     1      -9.881  10.268  64.002  1.00  0.00    -0.289 N  
HETATM   10  C   UNL     1      -9.007   9.643  64.851  1.00  0.00    -0.217 C  
ENDROOT
BRANCH   4  11
HETATM   11  C   UNL     1     -10.868  13.371  65.681  1.00  0.00    -0.283 C  
HETATM   12  C   UNL     1     -10.937  13.741  67.155  1.00  0.00    -0.299 C  
HETATM   13  C   UNL     1     -11.157  15.231  67.069  1.00  0.00    -0.305 C  
HETATM   14  C   UNL     1     -10.299  15.618  65.880  1.00  0.00    -0.350 C  
HETATM   15  O   UNL     1     -10.174  14.459  65.042  1.00  0.00    -0.409 OA 
ENDBRANCH   4  11
TORSDOF 1
ENDMDL
MODEL       93
REMARK 921   NORMALIZED FREE ENERGY PREDICTED BY IDOCK:   -3.58 KCAL/MOL
REMARK 922        TOTAL FREE ENERGY PREDICTED BY IDOCK:   -3.97 KCAL/MOL
REMARK 923 INTER-LIGAND FREE ENERGY PREDICTED BY IDOCK:   -3.77 KCAL/MOL
REMARK 924 INTRA-LIGAND FREE ENERGY PREDICTED BY IDOCK:   -0.20 KCAL/MOL
REMARK 927      BINDING AFFINITY PREDICTED BY RF-SCORE:    0.00 PKD
ROOT
HETATM    1  F   UNL     1     -12.904  11.150  70.597  1.00  0.00    -0.372 F  
HETATM    2  C   UNL     1     -12.144  10.149  71.080  1.00  0.00    -0.377 C  
HETATM    3  C   UNL     1     -10.894   9.936  70.670  1.00  0.00    -0.330 C  
HETATM    4  N   UNL     1     -10.130   8.899  71.177  1.00  0.00    -0.245 N  
HETATM    5  C   UNL     1     -10.645   8.004  72.111  1.00  0.00    -0.272 C  
HETATM    6  O   UNL     1     -13.892   9.400  72.503  1.00  0.00    -0.444 OA 
HETATM    7  O   UNL     1     -10.034   7.028  72.539  1.00  0.00    -0.166 OA 
HETATM    8  H   UNL     1     -12.293   7.655  73.274  1.00  0.00     0.000 HD 
HETATM    9  N   UNL     1     -11.921   8.265  72.546  1.00  0.00    -0.391 N  
HETATM   10  C   UNL     1     -12.744   9.263  72.097  1.00  0.00    -0.390 C  
ENDROOT
BRANCH   4  11
HETATM   11  C   UNL     1      -8.767   8.668  70.725  1.00  0.00    -0.173 C  
HETATM   12  C   UNL     1      -8.614   8.663  69.211  1.00  0.00    -0.131 C  
HETATM   13  C   UNL     1      -7.136   8.925  69.070  1.00  0.00    -0.064 C  
HETATM   14  C   UNL     1      -6.871   9.907  70.196  1.00  0.00    -0.125 C  
HETATM   15  O   UNL     1      -7.875   9.693  71.199  1.00  0.00    -0.289 OA 
ENDBRANCH   4  11
TORSDOF 1
ENDMDL
MODEL       94
REMARK 921   NORMALIZED FREE ENERGY PREDICTED BY IDOCK:   -3.57 KCAL/MOL
REMARK 922        TOTAL FREE ENERGY PREDICTED BY IDOCK:   -3.97 KCAL/MOL
REMARK 923 INTER-LIGAND FREE ENERGY PREDICTED BY IDOCK:   -3.77 KCAL/MOL
REMARK 924 INTRA-LIGAND FREE ENERGY PREDICTED BY IDOCK:   -0.20 KCAL/MOL
REMARK 927      BINDING AFFINITY PREDICTED BY RF-SCORE:    0.00 PKD
ROOT
HETATM    1  F   UNL     1     -10.697   5.569  70.138  1.00  0.00    -0.329 F  
HETATM    2  C   UNL     1     -11.097   6.809  70.472  1.00  0.00    -0.298 C  
HETATM    3  C   UNL     1     -10.683   7.896  69.820  1.00  0.00    -0.233 C  
HETATM    4  N   UNL     1     -11.105   9.164  70.180  1.00  0.00    -0.240 N  
HETATM    5  C   UNL     1     -11.950   9.369  71.267  1.00  0.00    -0.353 C  
HETATM    6  O   UNL     1     -12.430   5.988  72.258  1.00  0.00    -0.206 OA 
HETATM    7  O   UNL     1     -12.296  10.477  71.670  1.00  0.00    -0.362 OA 
HETATM    8  H   UNL     1     -13.060   8.362  72.662  1.00  0.00     0.000 HD 
HETATM    9  N   UNL     1     -12.393   8.234  71.901  1.00  0.00    -0.319 N  
HETATM   10  C   UNL     1     -12.026   6.947  71.611  1.00  0.00    -0.339 C  
ENDROOT
BRANCH   4  11
HETATM   11  C   UNL     1     -10.648  10.347  69.468  1.00  0.00    -0.246 C  
HETATM   12  C   UNL     1      -9.137  10.430  69.317  1.00  0.00    -0.188 C  
HETATM   13  C   UNL     1      -9.014  11.393  68.164  1.00  0.00    -0.169 C  
HETATM   14  C   UNL     1     -10.183  10.997  67.283  1.00  0.00    -0.199 C  
HETATM   15  O   UNL     1     -11.172  10.389  68.128  1.00  0.00    -0.288 OA 
ENDBRANCH   4  11
TORSDOF 1
ENDMDL
MODEL       95
REMARK 921   NORMALIZED FREE ENERGY PREDICTED BY IDOCK:   -3.57 KCAL/MOL
REMARK 922        TOTAL FREE ENERGY PREDICTED BY IDOCK:   -3.96 KCAL/MOL
REMARK 923 INTER-LIGAND FREE ENERGY PREDICTED BY IDOCK:   -3.78 KCAL/MOL
REMARK 924 INTRA-LIGAND FREE ENERGY PREDICTED BY IDOCK:   -0.19 KCAL/MOL
REMARK 927      BINDING AFFINITY PREDICTED BY RF-SCORE:    0.00 PKD
ROOT
HETATM    1  F   UNL     1     -11.713  11.772  67.417  1.00  0.00    -0.373 F  
HETATM    2  C   UNL     1     -11.084  10.604  67.642  1.00  0.00    -0.319 C  
HETATM    3  C   UNL     1     -11.161   9.961  68.807  1.00  0.00    -0.135 C  
HETATM    4  N   UNL     1     -10.504   8.762  69.019  1.00  0.00    -0.216 N  
HETATM    5  C   UNL     1      -9.699   8.189  68.039  1.00  0.00    -0.161 C  
HETATM    6  O   UNL     1     -10.160  10.588  65.455  1.00  0.00    -0.271 OA 
HETATM    7  O   UNL     1      -9.040   7.164  68.201  1.00  0.00    -0.134 OA 
HETATM    8  H   UNL     1      -9.127   8.412  66.086  1.00  0.00     0.000 HD 
HETATM    9  N   UNL     1      -9.664   8.849  66.835  1.00  0.00    -0.183 N  
HETATM   10  C   UNL     1     -10.279  10.037  66.543  1.00  0.00    -0.224 C  
ENDROOT
BRANCH   4  11
HETATM   11  C   UNL     1     -10.588   8.065  70.293  1.00  0.00    -0.231 C  
HETATM   12  C   UNL     1     -10.941   8.967  71.466  1.00  0.00    -0.418 C  
HETATM   13  C   UNL     1     -11.449   7.957  72.464  1.00  0.00    -0.455 C  
HETATM   14  C   UNL     1     -12.185   6.968  71.581  1.00  0.00    -0.357 C  
HETATM   15  O   UNL     1     -11.604   7.046  70.270  1.00  0.00    -0.299 OA 
ENDBRANCH   4  11
TORSDOF 1
ENDMDL
MODEL       96
REMARK 921   NORMALIZED FREE ENERGY PREDICTED BY IDOCK:   -3.48 KCAL/MOL
REMARK 922        TOTAL FREE ENERGY PREDICTED BY IDOCK:   -3.87 KCAL/MOL
REMARK 923 INTER-LIGAND FREE ENERGY PREDICTED BY IDOCK:   -3.74 KCAL/MOL
REMARK 924 INTRA-LIGAND FREE ENERGY PREDICTED BY IDOCK:   -0.13 KCAL/MOL
REMARK 927      BINDING AFFINITY PREDICTED BY RF-SCORE:    0.00 PKD
ROOT
HETATM    1  F   UNL     1     -10.425   9.074  66.027  1.00  0.00    -0.316 F  
HETATM    2  C   UNL     1     -10.190   8.754  67.313  1.00  0.00    -0.263 C  
HETATM    3  C   UNL     1     -10.778   9.386  68.328  1.00  0.00    -0.171 C  
HETATM    4  N   UNL     1     -10.521   9.043  69.644  1.00  0.00    -0.218 N  
HETATM    5  C   UNL     1      -9.605   8.048  69.972  1.00  0.00    -0.171 C  
HETATM    6  O   UNL     1      -8.653   7.053  66.693  1.00  0.00    -0.116 OA 
HETATM    7  O   UNL     1      -9.289   7.755  71.123  1.00  0.00    -0.149 OA 
HETATM    8  H   UNL     1      -8.410   6.614  69.132  1.00  0.00     0.000 HD 
HETATM    9  N   UNL     1      -9.039   7.386  68.910  1.00  0.00    -0.137 N  
HETATM   10  C   UNL     1      -9.235   7.661  67.583  1.00  0.00    -0.135 C  
ENDROOT
BRANCH   4  11
HETATM   11  C   UNL     1     -11.163   9.738  70.749  1.00  0.00    -0.348 C  
HETATM   12  C   UNL     1     -11.847  11.036  70.346  1.00  0.00    -0.460 C  
HETATM   13  C   UNL     1     -12.803  11.227  71.497  1.00  0.00    -0.519 C  
HETATM   14  C   UNL     1     -13.238   9.806  71.798  1.00  0.00    -0.436 C  
HETATM   15  O   UNL     1     -12.191   8.931  71.352  1.00  0.00    -0.299 OA 
ENDBRANCH   4  11
TORSDOF 1
ENDMDL
MODEL       97
REMARK 921   NORMALIZED FREE ENERGY PREDICTED BY IDOCK:   -3.46 KCAL/MOL
REMARK 922        TOTAL FREE ENERGY PREDICTED BY IDOCK:   -3.85 KCAL/MOL
REMARK 923 INTER-LIGAND FREE ENERGY PREDICTED BY IDOCK:   -3.67 KCAL/MOL
REMARK 924 INTRA-LIGAND FREE ENERGY PREDICTED BY IDOCK:   -0.18 KCAL/MOL
REMARK 927      BINDING AFFINITY PREDICTED BY RF-SCORE:    0.00 PKD
ROOT
HETATM    1  F   UNL     1     -11.075   6.510  66.421  1.00  0.00    -0.293 F  
HETATM    2  C   UNL     1     -10.741   5.935  67.590  1.00  0.00    -0.270 C  
HETATM    3  C   UNL     1     -11.133   6.423  68.767  1.00  0.00    -0.326 C  
HETATM    4  N   UNL     1     -10.776   5.817  69.960  1.00  0.00    -0.313 N  
HETATM    5  C   UNL     1      -9.957   4.692  69.989  1.00  0.00    -0.232 C  
HETATM    6  O   UNL     1      -9.499   4.235  66.492  1.00  0.00    -0.156 OA 
HETATM    7  O   UNL     1      -9.554   4.160  71.021  1.00  0.00    -0.156 OA 
HETATM    8  H   UNL     1      -9.044   3.328  68.765  1.00  0.00     0.000 HD 
HETATM    9  N   UNL     1      -9.595   4.186  68.764  1.00  0.00    -0.160 N  
HETATM   10  C   UNL     1      -9.902   4.722  67.542  1.00  0.00    -0.162 C  
ENDROOT
BRANCH   4  11
HETATM   11  C   UNL     1     -11.204   6.354  71.242  1.00  0.00    -0.292 C  
HETATM   12  C   UNL     1     -10.299   7.451  71.782  1.00  0.00    -0.215 C  
HETATM   13  C   UNL     1     -11.221   8.128  72.765  1.00  0.00    -0.407 C  
HETATM   14  C   UNL     1     -12.559   8.061  72.054  1.00  0.00    -0.312 C  
HETATM   15  O   UNL     1     -12.514   6.943  71.155  1.00  0.00    -0.378 OA 
ENDBRANCH   4  11
TORSDOF 1
ENDMDL
MODEL       98
REMARK 921   NORMALIZED FREE ENERGY PREDICTED BY IDOCK:   -3.41 KCAL/MOL
REMARK 922        TOTAL FREE ENERGY PREDICTED BY IDOCK:   -3.80 KCAL/MOL
REMARK 923 INTER-LIGAND FREE ENERGY PREDICTED BY IDOCK:   -3.61 KCAL/MOL
REMARK 924 INTRA-LIGAND FREE ENERGY PREDICTED BY IDOCK:   -0.20 KCAL/MOL
REMARK 927      BINDING AFFINITY PREDICTED BY RF-SCORE:    0.00 PKD
ROOT
HETATM    1  F   UNL     1      -9.923  11.039  69.013  1.00  0.00    -0.195 F  
HETATM    2  C   UNL     1     -10.210   9.785  68.618  1.00  0.00    -0.190 C  
HETATM    3  C   UNL     1     -10.502   8.811  69.480  1.00  0.00    -0.220 C  
HETATM    4  N   UNL     1     -10.792   7.527  69.052  1.00  0.00    -0.124 N  
HETATM    5  C   UNL     1     -10.752   7.180  67.705  1.00  0.00    -0.244 C  
HETATM    6  O   UNL     1      -9.912  10.351  66.331  1.00  0.00    -0.204 OA 
HETATM    7  O   UNL     1     -10.932   6.041  67.281  1.00  0.00    -0.313 OA 
HETATM    8  H   UNL     1     -10.511   7.985  65.838  1.00  0.00     0.000 HD 
HETATM    9  N   UNL     1     -10.485   8.207  66.833  1.00  0.00    -0.333 N  
HETATM   10  C   UNL     1     -10.187   9.501  67.169  1.00  0.00    -0.242 C  
ENDROOT
BRANCH   4  11
HETATM   11  C   UNL     1     -11.107   6.466  69.996  1.00  0.00    -0.379 C  
HETATM   12  C   UNL     1      -9.889   5.882  70.696  1.00  0.00    -0.230 C  
HETATM   13  C   UNL     1     -10.528   5.245  71.905  1.00  0.00    -0.282 C  
HETATM   14  C   UNL     1     -11.623   6.234  72.253  1.00  0.00    -0.309 C  
HETATM   15  O   UNL     1     -11.968   6.938  71.049  1.00  0.00    -0.339 OA 
ENDBRANCH   4  11
TORSDOF 1
ENDMDL
MODEL       99
REMARK 921   NORMALIZED FREE ENERGY PREDICTED BY IDOCK:   -3.38 KCAL/MOL
REMARK 922        TOTAL FREE ENERGY PREDICTED BY IDOCK:   -3.77 KCAL/MOL
REMARK 923 INTER-LIGAND FREE ENERGY PREDICTED BY IDOCK:   -3.61 KCAL/MOL
REMARK 924 INTRA-LIGAND FREE ENERGY PREDICTED BY IDOCK:   -0.16 KCAL/MOL
REMARK 927      BINDING AFFINITY PREDICTED BY RF-SCORE:    0.00 PKD
ROOT
HETATM    1  F   UNL     1     -10.140  10.413  64.543  1.00  0.00    -0.366 F  
HETATM    2  C   UNL     1     -10.552  10.749  65.779  1.00  0.00    -0.134 C  
HETATM    3  C   UNL     1     -10.356   9.964  66.839  1.00  0.00    -0.235 C  
HETATM    4  N   UNL     1     -10.790  10.327  68.102  1.00  0.00    -0.246 N  
HETATM    5  C   UNL     1     -11.488  11.511  68.320  1.00  0.00    -0.299 C  
HETATM    6  O   UNL     1     -11.473  12.795  65.004  1.00  0.00    -0.303 OA 
HETATM    7  O   UNL     1     -11.955  11.845  69.406  1.00  0.00    -0.306 OA 
HETATM    8  H   UNL     1     -12.103  13.220  67.375  1.00  0.00     0.000 HD 
HETATM    9  N   UNL     1     -11.647  12.321  67.222  1.00  0.00    -0.354 N  
HETATM   10  C   UNL     1     -11.251  12.039  65.941  1.00  0.00    -0.337 C  
ENDROOT
BRANCH   4  11
HETATM   11  C   UNL     1     -10.576   9.466  69.255  1.00  0.00    -0.225 C  
HETATM   12  C   UNL     1     -10.240   8.027  68.894  1.00  0.00    -0.220 C  
HETATM   13  C   UNL     1      -9.592   7.553  70.171  1.00  0.00    -0.168 C  
HETATM   14  C   UNL     1      -8.822   8.780  70.620  1.00  0.00    -0.182 C  
HETATM   15  O   UNL     1      -9.477   9.929  70.060  1.00  0.00    -0.231 OA 
ENDBRANCH   4  11
TORSDOF 1
ENDMDL
MODEL      100
REMARK 921   NORMALIZED FREE ENERGY PREDICTED BY IDOCK:   -3.34 KCAL/MOL
REMARK 922        TOTAL FREE ENERGY PREDICTED BY IDOCK:   -3.72 KCAL/MOL
REMARK 923 INTER-LIGAND FREE ENERGY PREDICTED BY IDOCK:   -3.52 KCAL/MOL
REMARK 924 INTRA-LIGAND FREE ENERGY PREDICTED BY IDOCK:   -0.20 KCAL/MOL
REMARK 927      BINDING AFFINITY PREDICTED BY RF-SCORE:    0.00 PKD
ROOT
HETATM    1  F   UNL     1      -9.851  10.217  62.423  1.00  0.00    -0.295 F  
HETATM    2  C   UNL     1      -9.472  10.540  63.673  1.00  0.00    -0.304 C  
HETATM    3  C   UNL     1      -9.935  11.618  64.306  1.00  0.00    -0.267 C  
HETATM    4  N   UNL     1      -9.531  11.934  65.592  1.00  0.00    -0.206 N  
HETATM    5  C   UNL     1      -8.591  11.164  66.270  1.00  0.00    -0.180 C  
HETATM    6  O   UNL     1      -8.030   8.658  63.810  1.00  0.00    -0.144 OA 
HETATM    7  O   UNL     1      -8.147  11.441  67.382  1.00  0.00    -0.131 OA 
HETATM    8  H   UNL     1      -7.512   9.431  66.119  1.00  0.00     0.000 HD 
HETATM    9  N   UNL     1      -8.155  10.040  65.613  1.00  0.00    -0.132 N  
HETATM   10  C   UNL     1      -8.501   9.655  64.345  1.00  0.00    -0.181 C  
ENDROOT
BRANCH   4  11
HETATM   11  C   UNL     1     -10.036  13.113  66.278  1.00  0.00    -0.285 C  
HETATM   12  C   UNL     1     -10.227  14.319  65.370  1.00  0.00    -0.395 C  
HETATM   13  C   UNL     1     -11.193  15.143  66.185  1.00  0.00    -0.271 C  
HETATM   14  C   UNL     1     -12.084  14.083  66.802  1.00  0.00    -0.447 C  
HETATM   15  O   UNL     1     -11.326  12.866  66.868  1.00  0.00    -0.282 OA 
ENDBRANCH   4  11
TORSDOF 1
ENDMDL
MODEL      101
REMARK 921   NORMALIZED FREE ENERGY PREDICTED BY IDOCK:   -3.30 KCAL/MOL
REMARK 922        TOTAL FREE ENERGY PREDICTED BY IDOCK:   -3.68 KCAL/MOL
REMARK 923 INTER-LIGAND FREE ENERGY PREDICTED BY IDOCK:   -3.52 KCAL/MOL
REMARK 924 INTRA-LIGAND FREE ENERGY PREDICTED BY IDOCK:   -0.16 KCAL/MOL
REMARK 927      BINDING AFFINITY PREDICTED BY RF-SCORE:    0.00 PKD
ROOT
HETATM    1  F   UNL     1     -10.923   8.085  67.045  1.00  0.00    -0.391 F  
HETATM    2  C   UNL     1     -10.254   9.252  67.033  1.00  0.00    -0.262 C  
HETATM    3  C   UNL     1     -10.776  10.373  66.534  1.00  0.00    -0.092 C  
HETATM    4  N   UNL     1     -10.070  11.563  66.529  1.00  0.00    -0.208 N  
HETATM    5  C   UNL     1      -8.766  11.639  67.009  1.00  0.00    -0.173 C  
HETATM    6  O   UNL     1      -8.351   8.266  68.056  1.00  0.00    -0.126 OA 
HETATM    7  O   UNL     1      -8.073  12.653  66.963  1.00  0.00    -0.162 OA 
HETATM    8  H   UNL     1      -7.330  10.535  67.963  1.00  0.00     0.000 HD 
HETATM    9  N   UNL     1      -8.262  10.483  67.552  1.00  0.00    -0.114 N  
HETATM   10  C   UNL     1      -8.889   9.266  67.596  1.00  0.00    -0.119 C  
ENDROOT
BRANCH   4  11
HETATM   11  C   UNL     1     -10.642  12.783  65.980  1.00  0.00    -0.268 C  
HETATM   12  C   UNL     1     -11.834  12.546  65.064  1.00  0.00    -0.445 C  
HETATM   13  C   UNL     1     -12.490  13.903  65.087  1.00  0.00    -0.479 C  
HETATM   14  C   UNL     1     -12.283  14.340  66.524  1.00  0.00    -0.391 C  
HETATM   15  O   UNL     1     -11.124  13.653  67.021  1.00  0.00    -0.291 OA 
ENDBRANCH   4  11
TORSDOF 1
ENDMDL
MODEL      102
REMARK 921   NORMALIZED FREE ENERGY PREDICTED BY IDOCK:   -3.30 KCAL/MOL
REMARK 922        TOTAL FREE ENERGY PREDICTED BY IDOCK:   -3.68 KCAL/MOL
REMARK 923 INTER-LIGAND FREE ENERGY PREDICTED BY IDOCK:   -4.15 KCAL/MOL
REMARK 924 INTRA-LIGAND FREE ENERGY PREDICTED BY IDOCK:    0.46 KCAL/MOL
REMARK 927      BINDING AFFINITY PREDICTED BY RF-SCORE:    0.00 PKD
ROOT
HETATM    1  F   UNL     1      -9.084   9.955  65.451  1.00  0.00    -0.168 F  
HETATM    2  C   UNL     1      -9.545  11.210  65.297  1.00  0.00    -0.230 C  
HETATM    3  C   UNL     1      -9.412  12.144  66.238  1.00  0.00    -0.232 C  
HETATM    4  N   UNL     1      -9.896  13.428  66.060  1.00  0.00    -0.284 N  
HETATM    5  C   UNL     1     -10.579  13.796  64.905  1.00  0.00    -0.413 C  
HETATM    6  O   UNL     1     -10.389  10.720  63.132  1.00  0.00    -0.255 OA 
HETATM    7  O   UNL     1     -11.088  14.900  64.729  1.00  0.00    -0.391 OA 
HETATM    8  H   UNL     1     -11.117  13.099  63.057  1.00  0.00     0.000 HD 
HETATM    9  N   UNL     1     -10.672  12.829  63.934  1.00  0.00    -0.421 N  
HETATM   10  C   UNL     1     -10.225  11.539  64.028  1.00  0.00    -0.345 C  
ENDROOT
BRANCH   4  11
HETATM   11  C   UNL     1      -9.752  14.443  67.093  1.00  0.00    -0.248 C  
HETATM   12  C   UNL     1      -8.839  15.595  66.700  1.00  0.00    -0.327 C  
HETATM   13  C   UNL     1      -9.285  16.660  67.671  1.00  0.00    -0.208 C  
HETATM   14  C   UNL     1     -10.781  16.423  67.748  1.00  0.00    -0.328 C  
HETATM   15  O   UNL     1     -11.017  15.047  67.417  1.00  0.00    -0.298 OA 
ENDBRANCH   4  11
TORSDOF 1
ENDMDL
MODEL      103
REMARK 921   NORMALIZED FREE ENERGY PREDICTED BY IDOCK:   -3.27 KCAL/MOL
REMARK 922        TOTAL FREE ENERGY PREDICTED BY IDOCK:   -3.64 KCAL/MOL
REMARK 923 INTER-LIGAND FREE ENERGY PREDICTED BY IDOCK:   -3.46 KCAL/MOL
REMARK 924 INTRA-LIGAND FREE ENERGY PREDICTED BY IDOCK:   -0.18 KCAL/MOL
REMARK 927      BINDING AFFINITY PREDICTED BY RF-SCORE:    0.00 PKD
ROOT
HETATM    1  F   UNL     1      -8.416  16.765  66.207  1.00  0.00    -0.262 F  
HETATM    2  C   UNL     1      -9.015  15.562  66.132  1.00  0.00    -0.294 C  
HETATM    3  C   UNL     1      -8.553  14.490  66.776  1.00  0.00    -0.131 C  
HETATM    4  N   UNL     1      -9.183  13.261  66.684  1.00  0.00    -0.242 N  
HETATM    5  C   UNL     1     -10.306  13.075  65.883  1.00  0.00    -0.288 C  
HETATM    6  O   UNL     1     -10.689  16.396  64.668  1.00  0.00    -0.693 OA 
HETATM    7  O   UNL     1     -10.859  11.991  65.712  1.00  0.00    -0.268 OA 
HETATM    8  H   UNL     1     -11.642  14.096  64.716  1.00  0.00     0.000 HD 
HETATM    9  N   UNL     1     -10.785  14.201  65.259  1.00  0.00    -0.341 N  
HETATM   10  C   UNL     1     -10.225  15.450  65.294  1.00  0.00    -0.357 C  
ENDROOT
BRANCH   4  11
HETATM   11  C   UNL     1      -8.674  12.093  67.386  1.00  0.00    -0.177 C  
HETATM   12  C   UNL     1      -7.566  11.362  66.641  1.00  0.00    -0.119 C  
HETATM   13  C   UNL     1      -6.924  10.590  67.766  1.00  0.00    -0.078 C  
HETATM   14  C   UNL     1      -7.008  11.568  68.922  1.00  0.00    -0.100 C  
HETATM   15  O   UNL     1      -8.111  12.449  68.662  1.00  0.00    -0.114 OA 
ENDBRANCH   4  11
TORSDOF 1
ENDMDL
MODEL      104
REMARK 921   NORMALIZED FREE ENERGY PREDICTED BY IDOCK:   -3.26 KCAL/MOL
REMARK 922        TOTAL FREE ENERGY PREDICTED BY IDOCK:   -3.64 KCAL/MOL
REMARK 923 INTER-LIGAND FREE ENERGY PREDICTED BY IDOCK:   -3.86 KCAL/MOL
REMARK 924 INTRA-LIGAND FREE ENERGY PREDICTED BY IDOCK:    0.22 KCAL/MOL
REMARK 927      BINDING AFFINITY PREDICTED BY RF-SCORE:    0.00 PKD
ROOT
HETATM    1  F   UNL     1     -10.710  12.626  68.178  1.00  0.00    -0.204 F  
HETATM    2  C   UNL     1     -11.332  12.111  69.254  1.00  0.00    -0.266 C  
HETATM    3  C   UNL     1     -11.130  10.861  69.670  1.00  0.00    -0.266 C  
HETATM    4  N   UNL     1     -11.782  10.350  70.778  1.00  0.00    -0.347 N  
HETATM    5  C   UNL     1     -12.712  11.104  71.488  1.00  0.00    -0.394 C  
HETATM    6  O   UNL     1     -12.514  14.135  69.639  1.00  0.00    -0.310 OA 
HETATM    7  O   UNL     1     -13.369  10.674  72.434  1.00  0.00    -0.283 OA 
HETATM    8  H   UNL     1     -13.511  12.985  71.609  1.00  0.00     0.000 HD 
HETATM    9  N   UNL     1     -12.878  12.399  71.064  1.00  0.00    -0.223 N  
HETATM   10  C   UNL     1     -12.276  12.983  69.981  1.00  0.00    -0.236 C  
ENDROOT
BRANCH   4  11
HETATM   11  C   UNL     1     -11.561   8.984  71.226  1.00  0.00    -0.317 C  
HETATM   12  C   UNL     1     -12.802   8.106  71.164  1.00  0.00    -0.106 C  
HETATM   13  C   UNL     1     -12.183   6.731  71.169  1.00  0.00    -0.413 C  
HETATM   14  C   UNL     1     -10.938   6.931  70.327  1.00  0.00    -0.281 C  
HETATM   15  O   UNL     1     -10.576   8.318  70.415  1.00  0.00    -0.215 OA 
ENDBRANCH   4  11
TORSDOF 1
ENDMDL
MODEL      105
REMARK 921   NORMALIZED FREE ENERGY PREDICTED BY IDOCK:   -3.25 KCAL/MOL
REMARK 922        TOTAL FREE ENERGY PREDICTED BY IDOCK:   -3.63 KCAL/MOL
REMARK 923 INTER-LIGAND FREE ENERGY PREDICTED BY IDOCK:   -3.46 KCAL/MOL
REMARK 924 INTRA-LIGAND FREE ENERGY PREDICTED BY IDOCK:   -0.17 KCAL/MOL
REMARK 927      BINDING AFFINITY PREDICTED BY RF-SCORE:    0.00 PKD
ROOT
HETATM    1  F   UNL     1      -8.327   8.136  70.499  1.00  0.00    -0.111 F  
HETATM    2  C   UNL     1      -9.409   8.882  70.209  1.00  0.00    -0.185 C  
HETATM    3  C   UNL     1      -9.636   9.374  68.991  1.00  0.00    -0.164 C  
HETATM    4  N   UNL     1     -10.754  10.140  68.714  1.00  0.00    -0.210 N  
HETATM    5  C   UNL     1     -11.676  10.469  69.704  1.00  0.00    -0.256 C  
HETATM    6  O   UNL     1     -10.203   8.744  72.443  1.00  0.00    -0.293 OA 
HETATM    7  O   UNL     1     -12.645  11.203  69.526  1.00  0.00    -0.245 OA 
HETATM    8  H   UNL     1     -12.139  10.102  71.664  1.00  0.00     0.000 HD 
HETATM    9  N   UNL     1     -11.442   9.921  70.941  1.00  0.00    -0.347 N  
HETATM   10  C   UNL     1     -10.365   9.156  71.300  1.00  0.00    -0.334 C  
ENDROOT
BRANCH   4  11
HETATM   11  C   UNL     1     -10.996  10.678  67.384  1.00  0.00    -0.298 C  
HETATM   12  C   UNL     1     -10.320  12.017  67.129  1.00  0.00    -0.235 C  
HETATM   13  C   UNL     1     -10.303  12.049  65.621  1.00  0.00    -0.288 C  
HETATM   14  C   UNL     1     -10.033  10.599  65.268  1.00  0.00    -0.294 C  
HETATM   15  O   UNL     1     -10.501   9.794  66.362  1.00  0.00    -0.204 OA 
ENDBRANCH   4  11
TORSDOF 1
ENDMDL
MODEL      106
REMARK 921   NORMALIZED FREE ENERGY PREDICTED BY IDOCK:   -3.25 KCAL/MOL
REMARK 922        TOTAL FREE ENERGY PREDICTED BY IDOCK:   -3.62 KCAL/MOL
REMARK 923 INTER-LIGAND FREE ENERGY PREDICTED BY IDOCK:   -4.06 KCAL/MOL
REMARK 924 INTRA-LIGAND FREE ENERGY PREDICTED BY IDOCK:    0.44 KCAL/MOL
REMARK 927      BINDING AFFINITY PREDICTED BY RF-SCORE:    0.00 PKD
ROOT
HETATM    1  F   UNL     1     -12.352  14.185  67.863  1.00  0.00    -0.370 F  
HETATM    2  C   UNL     1     -11.783  13.370  66.957  1.00  0.00    -0.381 C  
HETATM    3  C   UNL     1     -10.762  12.566  67.255  1.00  0.00    -0.233 C  
HETATM    4  N   UNL     1     -10.189  11.736  66.307  1.00  0.00    -0.215 N  
HETATM    5  C   UNL     1     -10.626  11.730  64.985  1.00  0.00    -0.288 C  
HETATM    6  O   UNL     1     -13.252  14.114  65.245  1.00  0.00    -0.760 OA 
HETATM    7  O   UNL     1     -10.106  11.066  64.092  1.00  0.00    -0.287 OA 
HETATM    8  H   UNL     1     -12.073  12.501  63.760  1.00  0.00     0.000 HD 
HETATM    9  N   UNL     1     -11.701  12.538  64.709  1.00  0.00    -0.342 N  
HETATM   10  C   UNL     1     -12.324  13.388  65.583  1.00  0.00    -0.470 C  
ENDROOT
BRANCH   4  11
HETATM   11  C   UNL     1      -9.073  10.864  66.637  1.00  0.00    -0.162 C  
HETATM   12  C   UNL     1      -9.345   9.390  66.372  1.00  0.00    -0.241 C  
HETATM   13  C   UNL     1      -7.940   8.847  66.299  1.00  0.00    -0.103 C  
HETATM   14  C   UNL     1      -7.193   9.967  65.600  1.00  0.00    -0.120 C  
HETATM   15  O   UNL     1      -7.906  11.187  65.859  1.00  0.00    -0.091 OA 
ENDBRANCH   4  11
TORSDOF 1
ENDMDL
MODEL      107
REMARK 921   NORMALIZED FREE ENERGY PREDICTED BY IDOCK:   -3.22 KCAL/MOL
REMARK 922        TOTAL FREE ENERGY PREDICTED BY IDOCK:   -3.60 KCAL/MOL
REMARK 923 INTER-LIGAND FREE ENERGY PREDICTED BY IDOCK:   -3.41 KCAL/MOL
REMARK 924 INTRA-LIGAND FREE ENERGY PREDICTED BY IDOCK:   -0.18 KCAL/MOL
REMARK 927      BINDING AFFINITY PREDICTED BY RF-SCORE:    0.00 PKD
ROOT
HETATM    1  F   UNL     1     -11.410   6.776  66.714  1.00  0.00    -0.475 F  
HETATM    2  C   UNL     1     -10.676   7.510  67.571  1.00  0.00    -0.226 C  
HETATM    3  C   UNL     1     -10.595   7.227  68.871  1.00  0.00    -0.191 C  
HETATM    4  N   UNL     1      -9.835   7.996  69.735  1.00  0.00    -0.181 N  
HETATM    5  C   UNL     1      -9.151   9.126  69.295  1.00  0.00    -0.146 C  
HETATM    6  O   UNL     1      -9.992   8.989  65.843  1.00  0.00    -0.276 OA 
HETATM    7  O   UNL     1      -8.522   9.881  70.033  1.00  0.00    -0.193 OA 
HETATM    8  H   UNL     1      -8.675  10.166  67.597  1.00  0.00     0.000 HD 
HETATM    9  N   UNL     1      -9.219   9.377  67.947  1.00  0.00    -0.130 N  
HETATM   10  C   UNL     1      -9.945   8.671  67.025  1.00  0.00    -0.249 C  
ENDROOT
BRANCH   4  11
HETATM   11  C   UNL     1      -9.752   7.686  71.154  1.00  0.00    -0.162 C  
HETATM   12  C   UNL     1     -10.913   8.232  71.972  1.00  0.00    -0.374 C  
HETATM   13  C   UNL     1     -10.837   7.358  73.199  1.00  0.00    -0.435 C  
HETATM   14  C   UNL     1     -10.441   6.015  72.618  1.00  0.00    -0.205 C  
HETATM   15  O   UNL     1      -9.754   6.265  71.382  1.00  0.00    -0.172 OA 
ENDBRANCH   4  11
TORSDOF 1
ENDMDL
MODEL      108
REMARK 921   NORMALIZED FREE ENERGY PREDICTED BY IDOCK:   -3.22 KCAL/MOL
REMARK 922        TOTAL FREE ENERGY PREDICTED BY IDOCK:   -3.59 KCAL/MOL
REMARK 923 INTER-LIGAND FREE ENERGY PREDICTED BY IDOCK:   -3.45 KCAL/MOL
REMARK 924 INTRA-LIGAND FREE ENERGY PREDICTED BY IDOCK:   -0.14 KCAL/MOL
REMARK 927      BINDING AFFINITY PREDICTED BY RF-SCORE:    0.00 PKD
ROOT
HETATM    1  F   UNL     1     -10.190  11.160  68.910  1.00  0.00    -0.182 F  
HETATM    2  C   UNL     1     -10.693  10.446  69.934  1.00  0.00    -0.279 C  
HETATM    3  C   UNL     1     -10.124   9.324  70.373  1.00  0.00    -0.236 C  
HETATM    4  N   UNL     1     -10.659   8.603  71.427  1.00  0.00    -0.242 N  
HETATM    5  C   UNL     1     -11.839   8.994  72.054  1.00  0.00    -0.356 C  
HETATM    6  O   UNL     1     -12.501  11.961  70.208  1.00  0.00    -0.217 OA 
HETATM    7  O   UNL     1     -12.391   8.352  72.944  1.00  0.00    -0.264 OA 
HETATM    8  H   UNL     1     -13.218  10.506  72.097  1.00  0.00     0.000 HD 
HETATM    9  N   UNL     1     -12.387  10.172  71.609  1.00  0.00    -0.397 N  
HETATM   10  C   UNL     1     -11.926  10.944  70.576  1.00  0.00    -0.371 C  
ENDROOT
BRANCH   4  11
HETATM   11  C   UNL     1     -10.037   7.376  71.901  1.00  0.00    -0.178 C  
HETATM   12  C   UNL     1     -10.561   6.119  71.223  1.00  0.00    -0.295 C  
HETATM   13  C   UNL     1      -9.438   5.151  71.504  1.00  0.00    -0.197 C  
HETATM   14  C   UNL     1      -8.210   6.032  71.381  1.00  0.00    -0.123 C  
HETATM   15  O   UNL     1      -8.617   7.380  71.662  1.00  0.00    -0.115 OA 
ENDBRANCH   4  11
TORSDOF 1
ENDMDL
MODEL      109
REMARK 921   NORMALIZED FREE ENERGY PREDICTED BY IDOCK:   -3.20 KCAL/MOL
REMARK 922        TOTAL FREE ENERGY PREDICTED BY IDOCK:   -3.58 KCAL/MOL
REMARK 923 INTER-LIGAND FREE ENERGY PREDICTED BY IDOCK:   -3.38 KCAL/MOL
REMARK 924 INTRA-LIGAND FREE ENERGY PREDICTED BY IDOCK:   -0.20 KCAL/MOL
REMARK 927      BINDING AFFINITY PREDICTED BY RF-SCORE:    0.00 PKD
ROOT
HETATM    1  F   UNL     1      -5.662  19.253  70.515  1.00  0.00    -0.232 F  
HETATM    2  C   UNL     1      -6.301  18.393  69.701  1.00  0.00    -0.188 C  
HETATM    3  C   UNL     1      -7.174  18.794  68.777  1.00  0.00    -0.308 C  
HETATM    4  N   UNL     1      -7.821  17.892  67.951  1.00  0.00    -0.225 N  
HETATM    5  C   UNL     1      -7.623  16.520  68.072  1.00  0.00    -0.161 C  
HETATM    6  O   UNL     1      -5.229  16.525  70.702  1.00  0.00    -0.194 OA 
HETATM    7  O   UNL     1      -8.225  15.676  67.413  1.00  0.00    -0.151 OA 
HETATM    8  H   UNL     1      -6.490  15.134  69.066  1.00  0.00     0.000 HD 
HETATM    9  N   UNL     1      -6.693  16.132  69.005  1.00  0.00    -0.158 N  
HETATM   10  C   UNL     1      -6.010  16.954  69.861  1.00  0.00    -0.219 C  
ENDROOT
BRANCH   4  11
HETATM   11  C   UNL     1      -8.776  18.334  66.946  1.00  0.00    -0.267 C  
HETATM   12  C   UNL     1     -10.059  18.910  67.526  1.00  0.00    -0.424 C  
HETATM   13  C   UNL     1     -10.570  19.713  66.356  1.00  0.00    -0.592 C  
HETATM   14  C   UNL     1      -9.291  20.266  65.758  1.00  0.00     0.067 C  
HETATM   15  O   UNL     1      -8.225  19.374  66.119  1.00  0.00    -0.325 OA 
ENDBRANCH   4  11
TORSDOF 1
ENDMDL
MODEL      110
REMARK 921   NORMALIZED FREE ENERGY PREDICTED BY IDOCK:   -3.19 KCAL/MOL
REMARK 922        TOTAL FREE ENERGY PREDICTED BY IDOCK:   -3.57 KCAL/MOL
REMARK 923 INTER-LIGAND FREE ENERGY PREDICTED BY IDOCK:   -3.37 KCAL/MOL
REMARK 924 INTRA-LIGAND FREE ENERGY PREDICTED BY IDOCK:   -0.20 KCAL/MOL
REMARK 927      BINDING AFFINITY PREDICTED BY RF-SCORE:    0.00 PKD
ROOT
HETATM    1  F   UNL     1      -7.210  15.794  69.743  1.00  0.00    -0.196 F  
HETATM    2  C   UNL     1      -8.236  15.575  68.901  1.00  0.00    -0.201 C  
HETATM    3  C   UNL     1      -9.226  14.728  69.182  1.00  0.00    -0.089 C  
HETATM    4  N   UNL     1     -10.272  14.516  68.301  1.00  0.00    -0.229 N  
HETATM    5  C   UNL     1     -10.321  15.146  67.061  1.00  0.00    -0.271 C  
HETATM    6  O   UNL     1      -7.352  17.090  67.300  1.00  0.00    -0.146 OA 
HETATM    7  O   UNL     1     -11.188  14.939  66.216  1.00  0.00    -0.340 OA 
HETATM    8  H   UNL     1      -9.362  16.558  65.930  1.00  0.00     0.000 HD 
HETATM    9  N   UNL     1      -9.310  16.042  66.808  1.00  0.00    -0.225 N  
HETATM   10  C   UNL     1      -8.241  16.310  67.620  1.00  0.00    -0.153 C  
ENDROOT
BRANCH   4  11
HETATM   11  C   UNL     1     -11.349  13.588  68.610  1.00  0.00    -0.288 C  
HETATM   12  C   UNL     1     -10.917  12.129  68.632  1.00  0.00    -0.284 C  
HETATM   13  C   UNL     1     -12.026  11.512  69.448  1.00  0.00    -0.392 C  
HETATM   14  C   UNL     1     -12.308  12.588  70.479  1.00  0.00    -0.262 C  
HETATM   15  O   UNL     1     -11.907  13.845  69.912  1.00  0.00    -0.293 OA 
ENDBRANCH   4  11
TORSDOF 1
ENDMDL
MODEL      111
REMARK 921   NORMALIZED FREE ENERGY PREDICTED BY IDOCK:   -3.18 KCAL/MOL
REMARK 922        TOTAL FREE ENERGY PREDICTED BY IDOCK:   -3.56 KCAL/MOL
REMARK 923 INTER-LIGAND FREE ENERGY PREDICTED BY IDOCK:   -4.04 KCAL/MOL
REMARK 924 INTRA-LIGAND FREE ENERGY PREDICTED BY IDOCK:    0.48 KCAL/MOL
REMARK 927      BINDING AFFINITY PREDICTED BY RF-SCORE:    0.00 PKD
ROOT
HETATM    1  F   UNL     1      -7.321  14.560  69.815  1.00  0.00    -0.145 F  
HETATM    2  C   UNL     1      -7.382  15.432  68.793  1.00  0.00    -0.135 C  
HETATM    3  C   UNL     1      -8.349  16.343  68.684  1.00  0.00    -0.221 C  
HETATM    4  N   UNL     1      -8.395  17.230  67.623  1.00  0.00    -0.203 N  
HETATM    5  C   UNL     1      -7.457  17.187  66.595  1.00  0.00    -0.258 C  
HETATM    6  O   UNL     1      -5.424  14.528  67.798  1.00  0.00    -0.252 OA 
HETATM    7  O   UNL     1      -7.495  17.903  65.598  1.00  0.00    -0.544 OA 
HETATM    8  H   UNL     1      -5.721  16.260  66.034  1.00  0.00     0.000 HD 
HETATM    9  N   UNL     1      -6.450  16.265  66.746  1.00  0.00    -0.047 N  
HETATM   10  C   UNL     1      -6.330  15.353  67.760  1.00  0.00    -0.161 C  
ENDROOT
BRANCH   4  11
HETATM   11  C   UNL     1      -9.454  18.221  67.507  1.00  0.00    -0.266 C  
HETATM   12  C   UNL     1      -8.980  19.654  67.695  1.00  0.00    -0.384 C  
HETATM   13  C   UNL     1     -10.099  20.418  67.033  1.00  0.00    -0.507 C  
HETATM   14  C   UNL     1     -10.451  19.525  65.859  1.00  0.00    -0.491 C  
HETATM   15  O   UNL     1     -10.067  18.185  66.205  1.00  0.00    -0.423 OA 
ENDBRANCH   4  11
TORSDOF 1
ENDMDL
MODEL      112
REMARK 921   NORMALIZED FREE ENERGY PREDICTED BY IDOCK:   -3.18 KCAL/MOL
REMARK 922        TOTAL FREE ENERGY PREDICTED BY IDOCK:   -3.56 KCAL/MOL
REMARK 923 INTER-LIGAND FREE ENERGY PREDICTED BY IDOCK:   -3.36 KCAL/MOL
REMARK 924 INTRA-LIGAND FREE ENERGY PREDICTED BY IDOCK:   -0.20 KCAL/MOL
REMARK 927      BINDING AFFINITY PREDICTED BY RF-SCORE:    0.00 PKD
ROOT
HETATM    1  F   UNL     1      -9.641  11.302  64.233  1.00  0.00    -0.234 F  
HETATM    2  C   UNL     1      -9.927  11.251  65.547  1.00  0.00    -0.247 C  
HETATM    3  C   UNL     1     -10.217  12.340  66.260  1.00  0.00    -0.229 C  
HETATM    4  N   UNL     1     -10.506  12.266  67.612  1.00  0.00    -0.211 N  
HETATM    5  C   UNL     1     -10.468  11.057  68.300  1.00  0.00    -0.186 C  
HETATM    6  O   UNL     1      -9.633   8.895  65.603  1.00  0.00    -0.220 OA 
HETATM    7  O   UNL     1     -10.647  10.949  69.511  1.00  0.00    -0.229 OA 
HETATM    8  H   UNL     1     -10.231   9.044  68.015  1.00  0.00     0.000 HD 
HETATM    9  N   UNL     1     -10.203   9.945  67.539  1.00  0.00    -0.201 N  
HETATM   10  C   UNL     1      -9.906   9.929  66.202  1.00  0.00    -0.260 C  
ENDROOT
BRANCH   4  11
HETATM   11  C   UNL     1     -10.818  13.457  68.387  1.00  0.00    -0.264 C  
HETATM   12  C   UNL     1      -9.625  14.372  68.618  1.00  0.00    -0.208 C  
HETATM   13  C   UNL     1     -10.317  15.671  68.947  1.00  0.00    -0.218 C  
HETATM   14  C   UNL     1     -11.516  15.645  68.019  1.00  0.00    -0.291 C  
HETATM   15  O   UNL     1     -11.806  14.269  67.727  1.00  0.00    -0.359 OA 
ENDBRANCH   4  11
TORSDOF 1
ENDMDL
MODEL      113
REMARK 921   NORMALIZED FREE ENERGY PREDICTED BY IDOCK:   -3.15 KCAL/MOL
REMARK 922        TOTAL FREE ENERGY PREDICTED BY IDOCK:   -3.52 KCAL/MOL
REMARK 923 INTER-LIGAND FREE ENERGY PREDICTED BY IDOCK:   -3.32 KCAL/MOL
REMARK 924 INTRA-LIGAND FREE ENERGY PREDICTED BY IDOCK:   -0.20 KCAL/MOL
REMARK 927      BINDING AFFINITY PREDICTED BY RF-SCORE:    0.00 PKD
ROOT
HETATM    1  F   UNL     1      -8.357   8.975  68.504  1.00  0.00    -0.117 F  
HETATM    2  C   UNL     1      -9.304   9.893  68.771  1.00  0.00    -0.157 C  
HETATM    3  C   UNL     1      -9.349  11.076  68.159  1.00  0.00    -0.173 C  
HETATM    4  N   UNL     1     -10.331  12.007  68.450  1.00  0.00    -0.210 N  
HETATM    5  C   UNL     1     -11.297  11.768  69.423  1.00  0.00    -0.272 C  
HETATM    6  O   UNL     1     -10.323   8.488  70.393  1.00  0.00    -0.194 OA 
HETATM    7  O   UNL     1     -12.145  12.588  69.768  1.00  0.00    -0.287 OA 
HETATM    8  H   UNL     1     -11.990  10.314  70.686  1.00  0.00     0.000 HD 
HETATM    9  N   UNL     1     -11.254  10.529  70.014  1.00  0.00    -0.295 N  
HETATM   10  C   UNL     1     -10.320   9.554  69.788  1.00  0.00    -0.230 C  
ENDROOT
BRANCH   4  11
HETATM   11  C   UNL     1     -10.374  13.299  67.783  1.00  0.00    -0.233 C  
HETATM   12  C   UNL     1      -9.004  13.842  67.404  1.00  0.00    -0.224 C  
HETATM   13  C   UNL     1      -9.374  14.840  66.336  1.00  0.00    -0.320 C  
HETATM   14  C   UNL     1     -10.514  14.142  65.619  1.00  0.00    -0.321 C  
HETATM   15  O   UNL     1     -11.116  13.231  66.551  1.00  0.00    -0.287 OA 
ENDBRANCH   4  11
TORSDOF 1
ENDMDL
MODEL      114
REMARK 921   NORMALIZED FREE ENERGY PREDICTED BY IDOCK:   -3.15 KCAL/MOL
REMARK 922        TOTAL FREE ENERGY PREDICTED BY IDOCK:   -3.52 KCAL/MOL
REMARK 923 INTER-LIGAND FREE ENERGY PREDICTED BY IDOCK:   -3.32 KCAL/MOL
REMARK 924 INTRA-LIGAND FREE ENERGY PREDICTED BY IDOCK:   -0.20 KCAL/MOL
REMARK 927      BINDING AFFINITY PREDICTED BY RF-SCORE:    0.00 PKD
ROOT
HETATM    1  F   UNL     1     -10.610  12.765  66.665  1.00  0.00    -0.251 F  
HETATM    2  C   UNL     1     -10.869  12.074  67.790  1.00  0.00    -0.215 C  
HETATM    3  C   UNL     1     -10.353  10.868  68.026  1.00  0.00    -0.185 C  
HETATM    4  N   UNL     1     -10.634  10.173  69.190  1.00  0.00    -0.210 N  
HETATM    5  C   UNL     1     -11.501  10.682  70.151  1.00  0.00    -0.329 C  
HETATM    6  O   UNL     1     -12.284  13.793  68.618  1.00  0.00    -0.347 OA 
HETATM    7  O   UNL     1     -11.838  10.075  71.165  1.00  0.00    -0.339 OA 
HETATM    8  H   UNL     1     -12.582  12.354  70.627  1.00  0.00     0.000 HD 
HETATM    9  N   UNL     1     -11.992  11.940  69.905  1.00  0.00    -0.329 N  
HETATM   10  C   UNL     1     -11.768  12.694  68.784  1.00  0.00    -0.323 C  
ENDROOT
BRANCH   4  11
HETATM   11  C   UNL     1     -10.070   8.855  69.441  1.00  0.00    -0.202 C  
HETATM   12  C   UNL     1     -10.534   7.790  68.459  1.00  0.00    -0.202 C  
HETATM   13  C   UNL     1      -9.452   6.752  68.627  1.00  0.00    -0.132 C  
HETATM   14  C   UNL     1      -8.211   7.604  68.816  1.00  0.00    -0.128 C  
HETATM   15  O   UNL     1      -8.634   8.870  69.345  1.00  0.00    -0.127 OA 
ENDBRANCH   4  11
TORSDOF 1
ENDMDL
MODEL      115
REMARK 921   NORMALIZED FREE ENERGY PREDICTED BY IDOCK:   -3.12 KCAL/MOL
REMARK 922        TOTAL FREE ENERGY PREDICTED BY IDOCK:   -3.49 KCAL/MOL
REMARK 923 INTER-LIGAND FREE ENERGY PREDICTED BY IDOCK:   -3.29 KCAL/MOL
REMARK 924 INTRA-LIGAND FREE ENERGY PREDICTED BY IDOCK:   -0.20 KCAL/MOL
REMARK 927      BINDING AFFINITY PREDICTED BY RF-SCORE:    0.00 PKD
ROOT
HETATM    1  F   UNL     1     -10.349   9.145  65.843  1.00  0.00    -0.351 F  
HETATM    2  C   UNL     1      -9.928   8.232  66.737  1.00  0.00    -0.285 C  
HETATM    3  C   UNL     1     -10.403   8.174  67.981  1.00  0.00    -0.211 C  
HETATM    4  N   UNL     1      -9.954   7.228  68.886  1.00  0.00    -0.162 N  
HETATM    5  C   UNL     1      -8.955   6.318  68.554  1.00  0.00    -0.123 C  
HETATM    6  O   UNL     1      -8.409   7.286  65.176  1.00  0.00    -0.134 OA 
HETATM    7  O   UNL     1      -8.473   5.507  69.341  1.00  0.00    -0.103 OA 
HETATM    8  H   UNL     1      -7.818   5.674  66.979  1.00  0.00     0.000 HD 
HETATM    9  N   UNL     1      -8.507   6.372  67.257  1.00  0.00    -0.112 N  
HETATM   10  C   UNL     1      -8.894   7.273  66.301  1.00  0.00    -0.159 C  
ENDROOT
BRANCH   4  11
HETATM   11  C   UNL     1     -10.474   7.170  70.244  1.00  0.00    -0.217 C  
HETATM   12  C   UNL     1     -10.583   8.529  70.920  1.00  0.00    -0.252 C  
HETATM   13  C   UNL     1     -11.577   8.228  72.013  1.00  0.00    -0.403 C  
HETATM   14  C   UNL     1     -12.528   7.263  71.332  1.00  0.00    -0.383 C  
HETATM   15  O   UNL     1     -11.802   6.616  70.275  1.00  0.00    -0.395 OA 
ENDBRANCH   4  11
TORSDOF 1
ENDMDL
MODEL      116
REMARK 921   NORMALIZED FREE ENERGY PREDICTED BY IDOCK:   -3.11 KCAL/MOL
REMARK 922        TOTAL FREE ENERGY PREDICTED BY IDOCK:   -3.48 KCAL/MOL
REMARK 923 INTER-LIGAND FREE ENERGY PREDICTED BY IDOCK:   -4.00 KCAL/MOL
REMARK 924 INTRA-LIGAND FREE ENERGY PREDICTED BY IDOCK:    0.52 KCAL/MOL
REMARK 927      BINDING AFFINITY PREDICTED BY RF-SCORE:    0.00 PKD
ROOT
HETATM    1  F   UNL     1     -14.411   9.397  72.667  1.00  0.00    -0.423 F  
HETATM    2  C   UNL     1     -13.375   8.900  71.966  1.00  0.00    -0.421 C  
HETATM    3  C   UNL     1     -12.352   9.655  71.565  1.00  0.00    -0.390 C  
HETATM    4  N   UNL     1     -11.298   9.125  70.843  1.00  0.00    -0.277 N  
HETATM    5  C   UNL     1     -11.273   7.785  70.466  1.00  0.00    -0.257 C  
HETATM    6  O   UNL     1     -14.317   6.720  71.965  1.00  0.00    -0.274 OA 
HETATM    7  O   UNL     1     -10.397   7.283  69.766  1.00  0.00    -0.208 OA 
HETATM    8  H   UNL     1     -12.286   6.022  70.705  1.00  0.00     0.000 HD 
HETATM    9  N   UNL     1     -12.318   7.019  70.921  1.00  0.00    -0.358 N  
HETATM   10  C   UNL     1     -13.398   7.461  71.637  1.00  0.00    -0.364 C  
ENDROOT
BRANCH   4  11
HETATM   11  C   UNL     1     -10.186   9.953  70.404  1.00  0.00    -0.236 C  
HETATM   12  C   UNL     1      -8.821   9.317  70.619  1.00  0.00    -0.287 C  
HETATM   13  C   UNL     1      -7.977  10.107  69.651  1.00  0.00    -0.181 C  
HETATM   14  C   UNL     1      -8.923  10.305  68.482  1.00  0.00    -0.134 C  
HETATM   15  O   UNL     1     -10.262  10.234  68.994  1.00  0.00    -0.186 OA 
ENDBRANCH   4  11
TORSDOF 1
ENDMDL
MODEL      117
REMARK 921   NORMALIZED FREE ENERGY PREDICTED BY IDOCK:   -3.09 KCAL/MOL
REMARK 922        TOTAL FREE ENERGY PREDICTED BY IDOCK:   -3.46 KCAL/MOL
REMARK 923 INTER-LIGAND FREE ENERGY PREDICTED BY IDOCK:   -3.26 KCAL/MOL
REMARK 924 INTRA-LIGAND FREE ENERGY PREDICTED BY IDOCK:   -0.20 KCAL/MOL
REMARK 927      BINDING AFFINITY PREDICTED BY RF-SCORE:    0.00 PKD
ROOT
HETATM    1  F   UNL     1      -8.946   3.739  72.410  1.00  0.00    -0.104 F  
HETATM    2  C   UNL     1      -9.828   4.669  71.998  1.00  0.00    -0.179 C  
HETATM    3  C   UNL     1      -9.752   5.249  70.801  1.00  0.00    -0.185 C  
HETATM    4  N   UNL     1     -10.668   6.205  70.398  1.00  0.00    -0.261 N  
HETATM    5  C   UNL     1     -11.689   6.636  71.240  1.00  0.00    -0.334 C  
HETATM    6  O   UNL     1     -11.022   4.560  74.049  1.00  0.00    -0.275 OA 
HETATM    7  O   UNL     1     -12.483   7.531  70.957  1.00  0.00    -0.293 OA 
HETATM    8  H   UNL     1     -12.548   6.260  73.059  1.00  0.00     0.000 HD 
HETATM    9  N   UNL     1     -11.770   5.999  72.453  1.00  0.00    -0.305 N  
HETATM   10  C   UNL     1     -10.908   5.048  72.930  1.00  0.00    -0.261 C  
ENDROOT
BRANCH   4  11
HETATM   11  C   UNL     1     -10.580   6.838  69.091  1.00  0.00    -0.232 C  
HETATM   12  C   UNL     1      -9.153   7.068  68.614  1.00  0.00    -0.132 C  
HETATM   13  C   UNL     1      -9.367   7.221  67.129  1.00  0.00    -0.170 C  
HETATM   14  C   UNL     1     -10.467   6.213  66.853  1.00  0.00    -0.276 C  
HETATM   15  O   UNL     1     -11.202   6.033  68.073  1.00  0.00    -0.253 OA 
ENDBRANCH   4  11
TORSDOF 1
ENDMDL
MODEL      118
REMARK 921   NORMALIZED FREE ENERGY PREDICTED BY IDOCK:   -3.09 KCAL/MOL
REMARK 922        TOTAL FREE ENERGY PREDICTED BY IDOCK:   -3.46 KCAL/MOL
REMARK 923 INTER-LIGAND FREE ENERGY PREDICTED BY IDOCK:   -3.26 KCAL/MOL
REMARK 924 INTRA-LIGAND FREE ENERGY PREDICTED BY IDOCK:   -0.20 KCAL/MOL
REMARK 927      BINDING AFFINITY PREDICTED BY RF-SCORE:    0.00 PKD
ROOT
HETATM    1  F   UNL     1     -11.168  16.483  70.567  1.00  0.00    -0.371 F  
HETATM    2  C   UNL     1     -10.483  16.579  69.413  1.00  0.00    -0.320 C  
HETATM    3  C   UNL     1     -10.123  15.510  68.702  1.00  0.00    -0.210 C  
HETATM    4  N   UNL     1      -9.416  15.630  67.518  1.00  0.00    -0.214 N  
HETATM    5  C   UNL     1      -9.012  16.871  67.033  1.00  0.00    -0.215 C  
HETATM    6  O   UNL     1     -10.414  18.948  69.556  1.00  0.00     0.201 OA 
HETATM    7  O   UNL     1      -8.324  17.026  66.027  1.00  0.00    -0.473 OA 
HETATM    8  H   UNL     1      -9.190  18.879  67.389  1.00  0.00     0.000 HD 
HETATM    9  N   UNL     1      -9.426  17.959  67.762  1.00  0.00    -0.259 N  
HETATM   10  C   UNL     1     -10.123  17.930  68.940  1.00  0.00    -0.348 C  
ENDROOT
BRANCH   4  11
HETATM   11  C   UNL     1      -9.022  14.461  66.747  1.00  0.00    -0.233 C  
HETATM   12  C   UNL     1      -8.175  13.467  67.527  1.00  0.00    -0.186 C  
HETATM   13  C   UNL     1      -8.369  12.217  66.706  1.00  0.00    -0.111 C  
HETATM   14  C   UNL     1      -9.822  12.326  66.284  1.00  0.00    -0.241 C  
HETATM   15  O   UNL     1     -10.170  13.719  66.294  1.00  0.00    -0.282 OA 
ENDBRANCH   4  11
TORSDOF 1
ENDMDL
MODEL      119
REMARK 921   NORMALIZED FREE ENERGY PREDICTED BY IDOCK:   -3.05 KCAL/MOL
REMARK 922        TOTAL FREE ENERGY PREDICTED BY IDOCK:   -3.41 KCAL/MOL
REMARK 923 INTER-LIGAND FREE ENERGY PREDICTED BY IDOCK:   -3.21 KCAL/MOL
REMARK 924 INTRA-LIGAND FREE ENERGY PREDICTED BY IDOCK:   -0.20 KCAL/MOL
REMARK 927      BINDING AFFINITY PREDICTED BY RF-SCORE:    0.00 PKD
ROOT
HETATM    1  F   UNL     1     -12.260  14.919  67.554  1.00  0.00    -0.340 F  
HETATM    2  C   UNL     1     -10.975  14.531  67.468  1.00  0.00    -0.293 C  
HETATM    3  C   UNL     1     -10.616  13.335  66.999  1.00  0.00    -0.259 C  
HETATM    4  N   UNL     1      -9.287  12.955  66.922  1.00  0.00    -0.234 N  
HETATM    5  C   UNL     1      -8.264  13.786  67.366  1.00  0.00    -0.184 C  
HETATM    6  O   UNL     1     -10.208  16.588  68.374  1.00  0.00    -0.243 OA 
HETATM    7  O   UNL     1      -7.077  13.468  67.384  1.00  0.00    -0.163 OA 
HETATM    8  H   UNL     1      -7.912  15.671  68.084  1.00  0.00     0.000 HD 
HETATM    9  N   UNL     1      -8.653  15.026  67.810  1.00  0.00    -0.156 N  
HETATM   10  C   UNL     1      -9.940  15.481  67.922  1.00  0.00    -0.218 C  
ENDROOT
BRANCH   4  11
HETATM   11  C   UNL     1      -8.901  11.648  66.413  1.00  0.00    -0.182 C  
HETATM   12  C   UNL     1      -9.527  10.484  67.167  1.00  0.00    -0.182 C  
HETATM   13  C   UNL     1      -9.387   9.375  66.154  1.00  0.00    -0.262 C  
HETATM   14  C   UNL     1      -9.640  10.097  64.844  1.00  0.00    -0.306 C  
HETATM   15  O   UNL     1      -9.301  11.478  65.041  1.00  0.00    -0.191 OA 
ENDBRANCH   4  11
TORSDOF 1
ENDMDL
MODEL      120
REMARK 921   NORMALIZED FREE ENERGY PREDICTED BY IDOCK:   -3.04 KCAL/MOL
REMARK 922        TOTAL FREE ENERGY PREDICTED BY IDOCK:   -3.40 KCAL/MOL
REMARK 923 INTER-LIGAND FREE ENERGY PREDICTED BY IDOCK:   -3.84 KCAL/MOL
REMARK 924 INTRA-LIGAND FREE ENERGY PREDICTED BY IDOCK:    0.44 KCAL/MOL
REMARK 927      BINDING AFFINITY PREDICTED BY RF-SCORE:    0.00 PKD
ROOT
HETATM    1  F   UNL     1     -13.705   9.969  71.301  1.00  0.00    -0.378 F  
HETATM    2  C   UNL     1     -12.390   9.745  71.124  1.00  0.00    -0.359 C  
HETATM    3  C   UNL     1     -11.676   8.975  71.944  1.00  0.00    -0.374 C  
HETATM    4  N   UNL     1     -10.324   8.760  71.744  1.00  0.00    -0.315 N  
HETATM    5  C   UNL     1      -9.635   9.370  70.701  1.00  0.00    -0.268 C  
HETATM    6  O   UNL     1     -12.335  11.125  69.191  1.00  0.00    -0.438 OA 
HETATM    7  O   UNL     1      -8.423   9.269  70.522  1.00  0.00    -0.182 OA 
HETATM    8  H   UNL     1      -9.920  10.536  69.042  1.00  0.00     0.000 HD 
HETATM    9  N   UNL     1     -10.397  10.130  69.847  1.00  0.00    -0.263 N  
HETATM   10  C   UNL     1     -11.735  10.395  69.971  1.00  0.00    -0.286 C  
ENDROOT
BRANCH   4  11
HETATM   11  C   UNL     1      -9.548   7.920  72.644  1.00  0.00    -0.227 C  
HETATM   12  C   UNL     1      -8.865   6.748  71.957  1.00  0.00    -0.134 C  
HETATM   13  C   UNL     1      -7.789   6.412  72.959  1.00  0.00    -0.105 C  
HETATM   14  C   UNL     1      -7.374   7.782  73.462  1.00  0.00    -0.114 C  
HETATM   15  O   UNL     1      -8.491   8.665  73.278  1.00  0.00    -0.395 OA 
ENDBRANCH   4  11
TORSDOF 1
ENDMDL
MODEL      121
REMARK 921   NORMALIZED FREE ENERGY PREDICTED BY IDOCK:   -3.00 KCAL/MOL
REMARK 922        TOTAL FREE ENERGY PREDICTED BY IDOCK:   -3.36 KCAL/MOL
REMARK 923 INTER-LIGAND FREE ENERGY PREDICTED BY IDOCK:   -3.16 KCAL/MOL
REMARK 924 INTRA-LIGAND FREE ENERGY PREDICTED BY IDOCK:   -0.20 KCAL/MOL
REMARK 927      BINDING AFFINITY PREDICTED BY RF-SCORE:    0.00 PKD
ROOT
HETATM    1  F   UNL     1      -7.868  17.418  68.717  1.00  0.00    -0.244 F  
HETATM    2  C   UNL     1      -7.959  16.086  68.551  1.00  0.00    -0.159 C  
HETATM    3  C   UNL     1      -8.956  15.513  67.877  1.00  0.00    -0.173 C  
HETATM    4  N   UNL     1      -9.032  14.140  67.721  1.00  0.00    -0.179 N  
HETATM    5  C   UNL     1      -8.092  13.288  68.293  1.00  0.00    -0.156 C  
HETATM    6  O   UNL     1      -5.970  15.714  69.795  1.00  0.00    -0.136 OA 
HETATM    7  O   UNL     1      -8.154  12.062  68.243  1.00  0.00    -0.142 OA 
HETATM    8  H   UNL     1      -6.324  13.295  69.325  1.00  0.00     0.000 HD 
HETATM    9  N   UNL     1      -7.054  13.901  68.951  1.00  0.00    -0.109 N  
HETATM   10  C   UNL     1      -6.903  15.247  69.153  1.00  0.00    -0.138 C  
ENDROOT
BRANCH   4  11
HETATM   11  C   UNL     1     -10.124  13.519  66.988  1.00  0.00    -0.244 C  
HETATM   12  C   UNL     1     -11.486  14.135  67.273  1.00  0.00    -0.371 C  
HETATM   13  C   UNL     1     -12.266  13.685  66.063  1.00  0.00    -0.492 C  
HETATM   14  C   UNL     1     -11.231  13.774  64.957  1.00  0.00    -0.335 C  
HETATM   15  O   UNL     1      -9.938  13.637  65.565  1.00  0.00    -0.283 OA 
ENDBRANCH   4  11
TORSDOF 1
ENDMDL
MODEL      122
REMARK 921   NORMALIZED FREE ENERGY PREDICTED BY IDOCK:   -2.97 KCAL/MOL
REMARK 922        TOTAL FREE ENERGY PREDICTED BY IDOCK:   -3.33 KCAL/MOL
REMARK 923 INTER-LIGAND FREE ENERGY PREDICTED BY IDOCK:   -3.14 KCAL/MOL
REMARK 924 INTRA-LIGAND FREE ENERGY PREDICTED BY IDOCK:   -0.20 KCAL/MOL
REMARK 927      BINDING AFFINITY PREDICTED BY RF-SCORE:    0.00 PKD
ROOT
HETATM    1  F   UNL     1     -11.324  10.825  67.479  1.00  0.00    -0.343 F  
HETATM    2  C   UNL     1     -11.062  10.029  68.532  1.00  0.00    -0.167 C  
HETATM    3  C   UNL     1     -10.450   8.852  68.407  1.00  0.00    -0.187 C  
HETATM    4  N   UNL     1     -10.192   8.047  69.503  1.00  0.00    -0.205 N  
HETATM    5  C   UNL     1     -10.595   8.410  70.785  1.00  0.00    -0.207 C  
HETATM    6  O   UNL     1     -12.063  11.564  70.044  1.00  0.00    -0.314 OA 
HETATM    7  O   UNL     1     -10.454   7.701  71.778  1.00  0.00    -0.202 OA 
HETATM    8  H   UNL     1     -11.439   9.951  71.835  1.00  0.00     0.000 HD 
HETATM    9  N   UNL     1     -11.191   9.643  70.896  1.00  0.00    -0.322 N  
HETATM   10  C   UNL     1     -11.484  10.498  69.867  1.00  0.00    -0.310 C  
ENDROOT
BRANCH   4  11
HETATM   11  C   UNL     1      -9.527   6.761  69.361  1.00  0.00    -0.147 C  
HETATM   12  C   UNL     1     -10.433   5.652  68.849  1.00  0.00    -0.310 C  
HETATM   13  C   UNL     1      -9.418   4.665  68.330  1.00  0.00    -0.201 C  
HETATM   14  C   UNL     1      -8.355   5.572  67.741  1.00  0.00    -0.099 C  
HETATM   15  O   UNL     1      -8.438   6.833  68.422  1.00  0.00    -0.121 OA 
ENDBRANCH   4  11
TORSDOF 1
ENDMDL
MODEL      123
REMARK 921   NORMALIZED FREE ENERGY PREDICTED BY IDOCK:   -2.96 KCAL/MOL
REMARK 922        TOTAL FREE ENERGY PREDICTED BY IDOCK:   -3.32 KCAL/MOL
REMARK 923 INTER-LIGAND FREE ENERGY PREDICTED BY IDOCK:   -3.76 KCAL/MOL
REMARK 924 INTRA-LIGAND FREE ENERGY PREDICTED BY IDOCK:    0.44 KCAL/MOL
REMARK 927      BINDING AFFINITY PREDICTED BY RF-SCORE:    0.00 PKD
ROOT
HETATM    1  F   UNL     1     -11.623  12.133  67.784  1.00  0.00    -0.315 F  
HETATM    2  C   UNL     1     -11.125  10.980  68.267  1.00  0.00    -0.257 C  
HETATM    3  C   UNL     1     -11.095  10.701  69.570  1.00  0.00    -0.274 C  
HETATM    4  N   UNL     1     -10.576   9.509  70.045  1.00  0.00    -0.226 N  
HETATM    5  C   UNL     1     -10.024   8.561  69.189  1.00  0.00    -0.192 C  
HETATM    6  O   UNL     1     -10.580  10.210  66.087  1.00  0.00    -0.146 OA 
HETATM    7  O   UNL     1      -9.488   7.521  69.566  1.00  0.00    -0.156 OA 
HETATM    8  H   UNL     1      -9.754   8.143  67.203  1.00  0.00     0.000 HD 
HETATM    9  N   UNL     1     -10.099   8.853  67.849  1.00  0.00    -0.194 N  
HETATM   10  C   UNL     1     -10.592  10.004  67.295  1.00  0.00    -0.257 C  
ENDROOT
BRANCH   4  11
HETATM   11  C   UNL     1     -10.542   9.210  71.469  1.00  0.00    -0.358 C  
HETATM   12  C   UNL     1     -11.253   7.919  71.844  1.00  0.00    -0.320 C  
HETATM   13  C   UNL     1     -10.629   7.626  73.186  1.00  0.00    -0.438 C  
HETATM   14  C   UNL     1      -9.193   8.067  72.980  1.00  0.00    -0.270 C  
HETATM   15  O   UNL     1      -9.191   9.059  71.942  1.00  0.00    -0.353 OA 
ENDBRANCH   4  11
TORSDOF 1
ENDMDL
MODEL      124
REMARK 921   NORMALIZED FREE ENERGY PREDICTED BY IDOCK:   -2.93 KCAL/MOL
REMARK 922        TOTAL FREE ENERGY PREDICTED BY IDOCK:   -3.29 KCAL/MOL
REMARK 923 INTER-LIGAND FREE ENERGY PREDICTED BY IDOCK:   -3.73 KCAL/MOL
REMARK 924 INTRA-LIGAND FREE ENERGY PREDICTED BY IDOCK:    0.44 KCAL/MOL
REMARK 927      BINDING AFFINITY PREDICTED BY RF-SCORE:    0.00 PKD
ROOT
HETATM    1  F   UNL     1     -11.929  12.229  69.812  1.00  0.00    -0.338 F  
HETATM    2  C   UNL     1     -11.594  13.527  69.693  1.00  0.00    -0.275 C  
HETATM    3  C   UNL     1     -10.548  13.935  68.974  1.00  0.00    -0.167 C  
HETATM    4  N   UNL     1     -10.219  15.275  68.866  1.00  0.00    -0.223 N  
HETATM    5  C   UNL     1     -10.941  16.259  69.535  1.00  0.00    -0.339 C  
HETATM    6  O   UNL     1     -13.395  14.204  71.085  1.00  0.00    -0.329 OA 
HETATM    7  O   UNL     1     -10.648  17.452  69.528  1.00  0.00    -0.218 OA 
HETATM    8  H   UNL     1     -12.611  16.533  70.686  1.00  0.00     0.000 HD 
HETATM    9  N   UNL     1     -12.035  15.820  70.239  1.00  0.00    -0.368 N  
HETATM   10  C   UNL     1     -12.430  14.519  70.399  1.00  0.00    -0.347 C  
ENDROOT
BRANCH   4  11
HETATM   11  C   UNL     1      -9.074  15.714  68.084  1.00  0.00    -0.181 C  
HETATM   12  C   UNL     1      -9.418  16.732  67.006  1.00  0.00    -0.240 C  
HETATM   13  C   UNL     1      -8.067  17.352  66.752  1.00  0.00    -0.282 C  
HETATM   14  C   UNL     1      -7.460  17.388  68.141  1.00  0.00    -0.208 C  
HETATM   15  O   UNL     1      -8.083  16.350  68.912  1.00  0.00    -0.216 OA 
ENDBRANCH   4  11
TORSDOF 1
ENDMDL
MODEL      125
REMARK 921   NORMALIZED FREE ENERGY PREDICTED BY IDOCK:   -2.93 KCAL/MOL
REMARK 922        TOTAL FREE ENERGY PREDICTED BY IDOCK:   -3.29 KCAL/MOL
REMARK 923 INTER-LIGAND FREE ENERGY PREDICTED BY IDOCK:   -3.09 KCAL/MOL
REMARK 924 INTRA-LIGAND FREE ENERGY PREDICTED BY IDOCK:   -0.20 KCAL/MOL
REMARK 927      BINDING AFFINITY PREDICTED BY RF-SCORE:    0.00 PKD
ROOT
HETATM    1  F   UNL     1     -11.582  10.253  67.924  1.00  0.00    -0.358 F  
HETATM    2  C   UNL     1     -10.556  11.119  67.835  1.00  0.00    -0.198 C  
HETATM    3  C   UNL     1     -10.709  12.433  68.001  1.00  0.00    -0.223 C  
HETATM    4  N   UNL     1      -9.640  13.306  67.904  1.00  0.00    -0.210 N  
HETATM    5  C   UNL     1      -8.360  12.860  67.589  1.00  0.00    -0.176 C  
HETATM    6  O   UNL     1      -9.018   9.372  67.362  1.00  0.00    -0.124 OA 
HETATM    7  O   UNL     1      -7.394  13.601  67.421  1.00  0.00    -0.171 OA 
HETATM    8  H   UNL     1      -7.276  11.150  67.287  1.00  0.00     0.000 HD 
HETATM    9  N   UNL     1      -8.218  11.500  67.459  1.00  0.00    -0.135 N  
HETATM   10  C   UNL     1      -9.219  10.568  67.537  1.00  0.00    -0.142 C  
ENDROOT
BRANCH   4  11
HETATM   11  C   UNL     1      -9.813  14.740  68.081  1.00  0.00    -0.221 C  
HETATM   12  C   UNL     1     -11.156  15.263  67.595  1.00  0.00    -0.323 C  
HETATM   13  C   UNL     1     -11.248  16.567  68.347  1.00  0.00    -0.280 C  
HETATM   14  C   UNL     1     -10.628  16.214  69.686  1.00  0.00    -0.311 C  
HETATM   15  O   UNL     1      -9.735  15.111  69.470  1.00  0.00    -0.217 OA 
ENDBRANCH   4  11
TORSDOF 1
ENDMDL
MODEL      126
REMARK 921   NORMALIZED FREE ENERGY PREDICTED BY IDOCK:   -2.93 KCAL/MOL
REMARK 922        TOTAL FREE ENERGY PREDICTED BY IDOCK:   -3.29 KCAL/MOL
REMARK 923 INTER-LIGAND FREE ENERGY PREDICTED BY IDOCK:   -3.79 KCAL/MOL
REMARK 924 INTRA-LIGAND FREE ENERGY PREDICTED BY IDOCK:    0.50 KCAL/MOL
REMARK 927      BINDING AFFINITY PREDICTED BY RF-SCORE:    0.00 PKD
ROOT
HETATM    1  F   UNL     1     -12.044  10.629  69.879  1.00  0.00    -0.318 F  
HETATM    2  C   UNL     1     -11.660   9.761  70.833  1.00  0.00    -0.361 C  
HETATM    3  C   UNL     1     -10.381   9.459  71.055  1.00  0.00    -0.312 C  
HETATM    4  N   UNL     1     -10.008   8.561  72.041  1.00  0.00    -0.284 N  
HETATM    5  C   UNL     1     -10.953   7.901  72.821  1.00  0.00    -0.393 C  
HETATM    6  O   UNL     1     -13.908   9.355  71.482  1.00  0.00    -0.336 OA 
HETATM    7  O   UNL     1     -10.677   7.045  73.658  1.00  0.00    -0.362 OA 
HETATM    8  H   UNL     1     -12.962   7.825  73.203  1.00  0.00     0.000 HD 
HETATM    9  N   UNL     1     -12.261   8.255  72.599  1.00  0.00    -0.317 N  
HETATM   10  C   UNL     1     -12.716   9.128  71.648  1.00  0.00    -0.358 C  
ENDROOT
BRANCH   4  11
HETATM   11  C   UNL     1      -8.611   8.232  72.278  1.00  0.00    -0.194 C  
HETATM   12  C   UNL     1      -8.218   8.237  73.747  1.00  0.00    -0.264 C  
HETATM   13  C   UNL     1      -6.965   7.397  73.714  1.00  0.00    -0.093 C  
HETATM   14  C   UNL     1      -7.305   6.348  72.673  1.00  0.00    -0.087 C  
HETATM   15  O   UNL     1      -8.293   6.913  71.798  1.00  0.00    -0.109 OA 
ENDBRANCH   4  11
TORSDOF 1
ENDMDL
MODEL      127
REMARK 921   NORMALIZED FREE ENERGY PREDICTED BY IDOCK:   -2.89 KCAL/MOL
REMARK 922        TOTAL FREE ENERGY PREDICTED BY IDOCK:   -3.25 KCAL/MOL
REMARK 923 INTER-LIGAND FREE ENERGY PREDICTED BY IDOCK:   -3.05 KCAL/MOL
REMARK 924 INTRA-LIGAND FREE ENERGY PREDICTED BY IDOCK:   -0.20 KCAL/MOL
REMARK 927      BINDING AFFINITY PREDICTED BY RF-SCORE:    0.00 PKD
ROOT
HETATM    1  F   UNL     1     -11.700   8.404  73.030  1.00  0.00    -0.420 F  
HETATM    2  C   UNL     1     -11.473   7.747  71.877  1.00  0.00    -0.275 C  
HETATM    3  C   UNL     1     -11.007   8.354  70.786  1.00  0.00    -0.247 C  
HETATM    4  N   UNL     1     -10.782   7.660  69.609  1.00  0.00    -0.243 N  
HETATM    5  C   UNL     1     -11.070   6.303  69.497  1.00  0.00    -0.408 C  
HETATM    6  O   UNL     1     -12.207   5.690  72.810  1.00  0.00    -0.126 OA 
HETATM    7  O   UNL     1     -10.956   5.658  68.457  1.00  0.00    -0.184 OA 
HETATM    8  H   UNL     1     -11.673   4.685  70.596  1.00  0.00     0.000 HD 
HETATM    9  N   UNL     1     -11.514   5.691  70.643  1.00  0.00     0.103 N  
HETATM   10  C   UNL     1     -11.765   6.300  71.844  1.00  0.00    -0.316 C  
ENDROOT
BRANCH   4  11
HETATM   11  C   UNL     1     -10.277   8.327  68.420  1.00  0.00    -0.209 C  
HETATM   12  C   UNL     1     -10.718   9.778  68.292  1.00  0.00    -0.277 C  
HETATM   13  C   UNL     1      -9.681  10.312  67.336  1.00  0.00    -0.189 C  
HETATM   14  C   UNL     1      -8.426   9.582  67.775  1.00  0.00    -0.119 C  
HETATM   15  O   UNL     1      -8.838   8.359  68.406  1.00  0.00    -0.139 OA 
ENDBRANCH   4  11
TORSDOF 1
ENDMDL
MODEL      128
REMARK 921   NORMALIZED FREE ENERGY PREDICTED BY IDOCK:   -2.88 KCAL/MOL
REMARK 922        TOTAL FREE ENERGY PREDICTED BY IDOCK:   -3.24 KCAL/MOL
REMARK 923 INTER-LIGAND FREE ENERGY PREDICTED BY IDOCK:   -3.04 KCAL/MOL
REMARK 924 INTRA-LIGAND FREE ENERGY PREDICTED BY IDOCK:   -0.20 KCAL/MOL
REMARK 927      BINDING AFFINITY PREDICTED BY RF-SCORE:    0.00 PKD
ROOT
HETATM    1  F   UNL     1     -11.885   9.830  70.311  1.00  0.00    -0.285 F  
HETATM    2  C   UNL     1     -11.441   8.572  70.488  1.00  0.00    -0.182 C  
HETATM    3  C   UNL     1     -10.780   7.905  69.541  1.00  0.00    -0.192 C  
HETATM    4  N   UNL     1     -10.333   6.610  69.742  1.00  0.00    -0.186 N  
HETATM    5  C   UNL     1     -10.587   5.928  70.929  1.00  0.00    -0.256 C  
HETATM    6  O   UNL     1     -12.326   8.482  72.689  1.00  0.00    -0.378 OA 
HETATM    7  O   UNL     1     -10.274   4.757  71.130  1.00  0.00    -0.202 OA 
HETATM    8  H   UNL     1     -11.378   6.183  72.800  1.00  0.00     0.000 HD 
HETATM    9  N   UNL     1     -11.236   6.646  71.902  1.00  0.00    -0.252 N  
HETATM   10  C   UNL     1     -11.712   7.925  71.787  1.00  0.00    -0.287 C  
ENDROOT
BRANCH   4  11
HETATM   11  C   UNL     1      -9.616   5.885  68.705  1.00  0.00    -0.128 C  
HETATM   12  C   UNL     1     -10.424   5.667  67.435  1.00  0.00    -0.306 C  
HETATM   13  C   UNL     1      -9.326   5.398  66.437  1.00  0.00    -0.157 C  
HETATM   14  C   UNL     1      -8.233   6.346  66.892  1.00  0.00    -0.110 C  
HETATM   15  O   UNL     1      -8.432   6.592  68.292  1.00  0.00    -0.120 OA 
ENDBRANCH   4  11
TORSDOF 1
ENDMDL
MODEL      129
REMARK 921   NORMALIZED FREE ENERGY PREDICTED BY IDOCK:   -2.88 KCAL/MOL
REMARK 922        TOTAL FREE ENERGY PREDICTED BY IDOCK:   -3.24 KCAL/MOL
REMARK 923 INTER-LIGAND FREE ENERGY PREDICTED BY IDOCK:   -3.06 KCAL/MOL
REMARK 924 INTRA-LIGAND FREE ENERGY PREDICTED BY IDOCK:   -0.17 KCAL/MOL
REMARK 927      BINDING AFFINITY PREDICTED BY RF-SCORE:    0.00 PKD
ROOT
HETATM    1  F   UNL     1      -6.691  12.610  67.785  1.00  0.00    -0.075 F  
HETATM    2  C   UNL     1      -7.744  11.788  67.616  1.00  0.00    -0.137 C  
HETATM    3  C   UNL     1      -8.885  11.937  68.287  1.00  0.00    -0.174 C  
HETATM    4  N   UNL     1      -9.955  11.079  68.100  1.00  0.00    -0.172 N  
HETATM    5  C   UNL     1      -9.877   9.995  67.232  1.00  0.00    -0.181 C  
HETATM    6  O   UNL     1      -6.572  10.485  66.013  1.00  0.00    -0.111 OA 
HETATM    7  O   UNL     1     -10.771   9.165  67.084  1.00  0.00    -0.255 OA 
HETATM    8  H   UNL     1      -8.652   9.128  65.839  1.00  0.00     0.000 HD 
HETATM    9  N   UNL     1      -8.705   9.882  66.524  1.00  0.00    -0.128 N  
HETATM   10  C   UNL     1      -7.601  10.682  66.649  1.00  0.00    -0.129 C  
ENDROOT
BRANCH   4  11
HETATM   11  C   UNL     1     -11.198  11.245  68.838  1.00  0.00    -0.253 C  
HETATM   12  C   UNL     1     -11.200  10.570  70.202  1.00  0.00    -0.389 C  
HETATM   13  C   UNL     1     -12.316  11.315  70.890  1.00  0.00    -0.490 C  
HETATM   14  C   UNL     1     -12.138  12.726  70.365  1.00  0.00    -0.302 C  
HETATM   15  O   UNL     1     -11.478  12.633  69.094  1.00  0.00    -0.271 OA 
ENDBRANCH   4  11
TORSDOF 1
ENDMDL
MODEL      130
REMARK 921   NORMALIZED FREE ENERGY PREDICTED BY IDOCK:   -2.87 KCAL/MOL
REMARK 922        TOTAL FREE ENERGY PREDICTED BY IDOCK:   -3.23 KCAL/MOL
REMARK 923 INTER-LIGAND FREE ENERGY PREDICTED BY IDOCK:   -3.07 KCAL/MOL
REMARK 924 INTRA-LIGAND FREE ENERGY PREDICTED BY IDOCK:   -0.16 KCAL/MOL
REMARK 927      BINDING AFFINITY PREDICTED BY RF-SCORE:    0.00 PKD
ROOT
HETATM    1  F   UNL     1      -9.979   9.536  64.808  1.00  0.00    -0.290 F  
HETATM    2  C   UNL     1     -10.009   9.665  66.147  1.00  0.00    -0.276 C  
HETATM    3  C   UNL     1      -9.951   8.619  66.970  1.00  0.00    -0.249 C  
HETATM    4  N   UNL     1      -9.986   8.774  68.345  1.00  0.00    -0.173 N  
HETATM    5  C   UNL     1     -10.124  10.027  68.934  1.00  0.00    -0.190 C  
HETATM    6  O   UNL     1     -10.189  12.029  65.995  1.00  0.00    -0.215 OA 
HETATM    7  O   UNL     1     -10.231  10.211  70.144  1.00  0.00    -0.255 OA 
HETATM    8  H   UNL     1     -10.186  12.023  68.485  1.00  0.00     0.000 HD 
HETATM    9  N   UNL     1     -10.146  11.093  68.068  1.00  0.00    -0.170 N  
HETATM   10  C   UNL     1     -10.117  11.029  66.701  1.00  0.00    -0.220 C  
ENDROOT
BRANCH   4  11
HETATM   11  C   UNL     1      -9.925   7.628  69.239  1.00  0.00    -0.180 C  
HETATM   12  C   UNL     1     -11.283   7.015  69.548  1.00  0.00    -0.185 C  
HETATM   13  C   UNL     1     -10.879   5.639  70.014  1.00  0.00    -0.366 C  
HETATM   14  C   UNL     1      -9.711   5.316  69.102  1.00  0.00    -0.168 C  
HETATM   15  O   UNL     1      -9.139   6.562  68.676  1.00  0.00    -0.130 OA 
ENDBRANCH   4  11
TORSDOF 1
ENDMDL
MODEL      131
REMARK 921   NORMALIZED FREE ENERGY PREDICTED BY IDOCK:   -2.86 KCAL/MOL
REMARK 922        TOTAL FREE ENERGY PREDICTED BY IDOCK:   -3.22 KCAL/MOL
REMARK 923 INTER-LIGAND FREE ENERGY PREDICTED BY IDOCK:   -3.67 KCAL/MOL
REMARK 924 INTRA-LIGAND FREE ENERGY PREDICTED BY IDOCK:    0.45 KCAL/MOL
REMARK 927      BINDING AFFINITY PREDICTED BY RF-SCORE:    0.00 PKD
ROOT
HETATM    1  F   UNL     1     -11.321  11.148  63.754  1.00  0.00    -0.442 F  
HETATM    2  C   UNL     1     -10.690  11.650  64.831  1.00  0.00    -0.296 C  
HETATM    3  C   UNL     1     -10.808  12.925  65.202  1.00  0.00    -0.296 C  
HETATM    4  N   UNL     1     -10.149  13.422  66.313  1.00  0.00    -0.293 N  
HETATM    5  C   UNL     1      -9.299  12.624  67.074  1.00  0.00    -0.220 C  
HETATM    6  O   UNL     1      -9.678   9.557  65.315  1.00  0.00    -0.293 OA 
HETATM    7  O   UNL     1      -8.638  13.034  68.025  1.00  0.00    -0.168 OA 
HETATM    8  H   UNL     1      -8.651  10.693  67.278  1.00  0.00     0.000 HD 
HETATM    9  N   UNL     1      -9.222  11.306  66.696  1.00  0.00    -0.175 N  
HETATM   10  C   UNL     1      -9.836  10.735  65.614  1.00  0.00    -0.245 C  
ENDROOT
BRANCH   4  11
HETATM   11  C   UNL     1     -10.278  14.815  66.712  1.00  0.00    -0.266 C  
HETATM   12  C   UNL     1     -10.679  15.004  68.167  1.00  0.00    -0.256 C  
HETATM   13  C   UNL     1     -10.235  16.426  68.406  1.00  0.00    -0.259 C  
HETATM   14  C   UNL     1      -8.951  16.505  67.604  1.00  0.00    -0.197 C  
HETATM   15  O   UNL     1      -9.034  15.523  66.560  1.00  0.00    -0.262 OA 
ENDBRANCH   4  11
TORSDOF 1
ENDMDL
MODEL      132
REMARK 921   NORMALIZED FREE ENERGY PREDICTED BY IDOCK:   -2.86 KCAL/MOL
REMARK 922        TOTAL FREE ENERGY PREDICTED BY IDOCK:   -3.21 KCAL/MOL
REMARK 923 INTER-LIGAND FREE ENERGY PREDICTED BY IDOCK:   -3.01 KCAL/MOL
REMARK 924 INTRA-LIGAND FREE ENERGY PREDICTED BY IDOCK:   -0.20 KCAL/MOL
REMARK 927      BINDING AFFINITY PREDICTED BY RF-SCORE:    0.00 PKD
ROOT
HETATM    1  F   UNL     1      -8.719   8.776  64.220  1.00  0.00    -0.188 F  
HETATM    2  C   UNL     1      -9.187   9.732  65.043  1.00  0.00    -0.249 C  
HETATM    3  C   UNL     1      -8.940   9.734  66.353  1.00  0.00    -0.151 C  
HETATM    4  N   UNL     1      -9.434  10.725  67.184  1.00  0.00    -0.159 N  
HETATM    5  C   UNL     1     -10.244  11.747  66.697  1.00  0.00    -0.210 C  
HETATM    6  O   UNL     1     -10.279  10.851  63.256  1.00  0.00    -0.337 OA 
HETATM    7  O   UNL     1     -10.764  12.608  67.403  1.00  0.00    -0.225 OA 
HETATM    8  H   UNL     1     -10.996  12.520  64.958  1.00  0.00     0.000 HD 
HETATM    9  N   UNL     1     -10.454  11.746  65.340  1.00  0.00    -0.262 N  
HETATM   10  C   UNL     1     -10.007  10.806  64.450  1.00  0.00    -0.338 C  
ENDROOT
BRANCH   4  11
HETATM   11  C   UNL     1      -9.165  10.721  68.613  1.00  0.00    -0.184 C  
HETATM   12  C   UNL     1      -9.871   9.605  69.369  1.00  0.00    -0.203 C  
HETATM   13  C   UNL     1      -9.037   9.535  70.624  1.00  0.00    -0.236 C  
HETATM   14  C   UNL     1      -7.637   9.788  70.099  1.00  0.00    -0.171 C  
HETATM   15  O   UNL     1      -7.762  10.543  68.884  1.00  0.00    -0.098 OA 
ENDBRANCH   4  11
TORSDOF 1
ENDMDL
MODEL      133
REMARK 921   NORMALIZED FREE ENERGY PREDICTED BY IDOCK:   -2.82 KCAL/MOL
REMARK 922        TOTAL FREE ENERGY PREDICTED BY IDOCK:   -3.18 KCAL/MOL
REMARK 923 INTER-LIGAND FREE ENERGY PREDICTED BY IDOCK:   -2.99 KCAL/MOL
REMARK 924 INTRA-LIGAND FREE ENERGY PREDICTED BY IDOCK:   -0.18 KCAL/MOL
REMARK 927      BINDING AFFINITY PREDICTED BY RF-SCORE:    0.00 PKD
ROOT
HETATM    1  F   UNL     1      -8.413   4.477  71.343  1.00  0.00    -0.096 F  
HETATM    2  C   UNL     1      -9.345   5.417  71.587  1.00  0.00    -0.147 C  
HETATM    3  C   UNL     1      -9.572   6.434  70.757  1.00  0.00    -0.179 C  
HETATM    4  N   UNL     1     -10.534   7.392  71.028  1.00  0.00    -0.214 N  
HETATM    5  C   UNL     1     -11.283   7.361  72.200  1.00  0.00    -0.262 C  
HETATM    6  O   UNL     1      -9.955   4.393  73.642  1.00  0.00    -0.126 OA 
HETATM    7  O   UNL     1     -12.097   8.224  72.520  1.00  0.00    -0.385 OA 
HETATM    8  H   UNL     1     -11.640   6.214  73.858  1.00  0.00     0.000 HD 
HETATM    9  N   UNL     1     -11.058   6.285  73.023  1.00  0.00    -0.237 N  
HETATM   10  C   UNL     1     -10.128   5.298  72.833  1.00  0.00    -0.173 C  
ENDROOT
BRANCH   4  11
HETATM   11  C   UNL     1     -10.776   8.502  70.120  1.00  0.00    -0.235 C  
HETATM   12  C   UNL     1      -9.822   9.672  70.309  1.00  0.00    -0.321 C  
HETATM   13  C   UNL     1      -9.959  10.374  68.981  1.00  0.00    -0.224 C  
HETATM   14  C   UNL     1     -10.095   9.214  68.013  1.00  0.00    -0.196 C  
HETATM   15  O   UNL     1     -10.627   8.100  68.746  1.00  0.00    -0.200 OA 
ENDBRANCH   4  11
TORSDOF 1
ENDMDL
MODEL      134
REMARK 921   NORMALIZED FREE ENERGY PREDICTED BY IDOCK:   -2.82 KCAL/MOL
REMARK 922        TOTAL FREE ENERGY PREDICTED BY IDOCK:   -3.17 KCAL/MOL
REMARK 923 INTER-LIGAND FREE ENERGY PREDICTED BY IDOCK:   -2.97 KCAL/MOL
REMARK 924 INTRA-LIGAND FREE ENERGY PREDICTED BY IDOCK:   -0.20 KCAL/MOL
REMARK 927      BINDING AFFINITY PREDICTED BY RF-SCORE:    0.00 PKD
ROOT
HETATM    1  F   UNL     1      -6.814  13.874  68.176  1.00  0.00    -0.079 F  
HETATM    2  C   UNL     1      -8.148  13.708  68.215  1.00  0.00    -0.155 C  
HETATM    3  C   UNL     1      -8.724  12.507  68.146  1.00  0.00    -0.190 C  
HETATM    4  N   UNL     1     -10.100  12.359  68.185  1.00  0.00    -0.218 N  
HETATM    5  C   UNL     1     -10.950  13.459  68.257  1.00  0.00    -0.259 C  
HETATM    6  O   UNL     1      -8.516  16.048  68.384  1.00  0.00    -0.168 OA 
HETATM    7  O   UNL     1     -12.176  13.384  68.223  1.00  0.00    -0.286 OA 
HETATM    8  H   UNL     1     -10.941  15.494  68.478  1.00  0.00     0.000 HD 
HETATM    9  N   UNL     1     -10.335  14.682  68.364  1.00  0.00    -0.231 N  
HETATM   10  C   UNL     1      -8.986  14.918  68.332  1.00  0.00    -0.183 C  
ENDROOT
BRANCH   4  11
HETATM   11  C   UNL     1     -10.724  11.047  68.107  1.00  0.00    -0.205 C  
HETATM   12  C   UNL     1     -10.120  10.141  67.044  1.00  0.00    -0.277 C  
HETATM   13  C   UNL     1     -10.568   8.786  67.533  1.00  0.00    -0.298 C  
HETATM   14  C   UNL     1     -10.463   8.932  69.039  1.00  0.00    -0.214 C  
HETATM   15  O   UNL     1     -10.594  10.328  69.347  1.00  0.00    -0.206 OA 
ENDBRANCH   4  11
TORSDOF 1
ENDMDL
MODEL      135
REMARK 921   NORMALIZED FREE ENERGY PREDICTED BY IDOCK:   -2.81 KCAL/MOL
REMARK 922        TOTAL FREE ENERGY PREDICTED BY IDOCK:   -3.16 KCAL/MOL
REMARK 923 INTER-LIGAND FREE ENERGY PREDICTED BY IDOCK:   -3.86 KCAL/MOL
REMARK 924 INTRA-LIGAND FREE ENERGY PREDICTED BY IDOCK:    0.70 KCAL/MOL
REMARK 927      BINDING AFFINITY PREDICTED BY RF-SCORE:    0.00 PKD
ROOT
HETATM    1  F   UNL     1     -12.012  15.120  66.931  1.00  0.00    -0.270 F  
HETATM    2  C   UNL     1     -11.616  13.839  67.039  1.00  0.00    -0.365 C  
HETATM    3  C   UNL     1     -11.296  13.283  68.207  1.00  0.00    -0.300 C  
HETATM    4  N   UNL     1     -10.889  11.963  68.296  1.00  0.00    -0.212 N  
HETATM    5  C   UNL     1     -10.755  11.164  67.165  1.00  0.00    -0.259 C  
HETATM    6  O   UNL     1     -11.804  13.498  64.696  1.00  0.00    -0.362 OA 
HETATM    7  O   UNL     1     -10.331  10.011  67.183  1.00  0.00    -0.214 OA 
HETATM    8  H   UNL     1     -11.092  11.156  65.146  1.00  0.00     0.000 HD 
HETATM    9  N   UNL     1     -11.126  11.745  65.977  1.00  0.00    -0.319 N  
HETATM   10  C   UNL     1     -11.536  13.039  65.800  1.00  0.00    -0.356 C  
ENDROOT
BRANCH   4  11
HETATM   11  C   UNL     1     -10.537  11.362  69.573  1.00  0.00     0.020 C  
HETATM   12  C   UNL     1     -11.698  10.667  70.268  1.00  0.00    -0.433 C  
HETATM   13  C   UNL     1     -10.963   9.753  71.215  1.00  0.00    -0.331 C  
HETATM   14  C   UNL     1      -9.764   9.325  70.390  1.00  0.00    -0.244 C  
HETATM   15  O   UNL     1      -9.521  10.354  69.418  1.00  0.00    -0.216 OA 
ENDBRANCH   4  11
TORSDOF 1
ENDMDL
MODEL      136
REMARK 921   NORMALIZED FREE ENERGY PREDICTED BY IDOCK:   -2.75 KCAL/MOL
REMARK 922        TOTAL FREE ENERGY PREDICTED BY IDOCK:   -3.10 KCAL/MOL
REMARK 923 INTER-LIGAND FREE ENERGY PREDICTED BY IDOCK:   -2.91 KCAL/MOL
REMARK 924 INTRA-LIGAND FREE ENERGY PREDICTED BY IDOCK:   -0.20 KCAL/MOL
REMARK 927      BINDING AFFINITY PREDICTED BY RF-SCORE:    0.00 PKD
ROOT
HETATM    1  F   UNL     1     -11.185   4.660  65.486  1.00  0.00    -0.343 F  
HETATM    2  C   UNL     1     -10.304   5.051  66.424  1.00  0.00    -0.294 C  
HETATM    3  C   UNL     1     -10.680   5.633  67.563  1.00  0.00    -0.187 C  
HETATM    4  N   UNL     1      -9.756   6.030  68.514  1.00  0.00    -0.120 N  
HETATM    5  C   UNL     1      -8.388   5.876  68.311  1.00  0.00    -0.112 C  
HETATM    6  O   UNL     1      -8.463   4.301  65.123  1.00  0.00    -0.112 OA 
HETATM    7  O   UNL     1      -7.527   6.275  69.091  1.00  0.00    -0.089 OA 
HETATM    8  H   UNL     1      -7.031   5.066  67.011  1.00  0.00     0.000 HD 
HETATM    9  N   UNL     1      -8.026   5.241  67.149  1.00  0.00    -0.100 N  
HETATM   10  C   UNL     1      -8.870   4.819  66.157  1.00  0.00    -0.120 C  
ENDROOT
BRANCH   4  11
HETATM   11  C   UNL     1     -10.171   6.669  69.754  1.00  0.00    -0.187 C  
HETATM   12  C   UNL     1     -10.542   8.136  69.596  1.00  0.00    -0.223 C  
HETATM   13  C   UNL     1     -11.379   8.356  70.831  1.00  0.00    -0.298 C  
HETATM   14  C   UNL     1     -12.128   7.042  70.955  1.00  0.00    -0.368 C  
HETATM   15  O   UNL     1     -11.337   6.033  70.309  1.00  0.00    -0.353 OA 
ENDBRANCH   4  11
TORSDOF 1
ENDMDL
MODEL      137
REMARK 921   NORMALIZED FREE ENERGY PREDICTED BY IDOCK:   -2.74 KCAL/MOL
REMARK 922        TOTAL FREE ENERGY PREDICTED BY IDOCK:   -3.09 KCAL/MOL
REMARK 923 INTER-LIGAND FREE ENERGY PREDICTED BY IDOCK:   -2.89 KCAL/MOL
REMARK 924 INTRA-LIGAND FREE ENERGY PREDICTED BY IDOCK:   -0.20 KCAL/MOL
REMARK 927      BINDING AFFINITY PREDICTED BY RF-SCORE:    0.00 PKD
ROOT
HETATM    1  F   UNL     1      -9.490  10.993  67.124  1.00  0.00    -0.163 F  
HETATM    2  C   UNL     1      -8.617  12.010  67.247  1.00  0.00    -0.177 C  
HETATM    3  C   UNL     1      -8.979  13.286  67.112  1.00  0.00    -0.229 C  
HETATM    4  N   UNL     1      -8.065  14.317  67.241  1.00  0.00    -0.193 N  
HETATM    5  C   UNL     1      -6.716  14.070  67.476  1.00  0.00    -0.108 C  
HETATM    6  O   UNL     1      -6.814  10.520  67.657  1.00  0.00    -0.072 OA 
HETATM    7  O   UNL     1      -5.854  14.944  67.528  1.00  0.00    -0.325 OA 
HETATM    8  H   UNL     1      -5.399  12.555  67.881  1.00  0.00     0.000 HD 
HETATM    9  N   UNL     1      -6.372  12.751  67.648  1.00  0.00    -0.140 N  
HETATM   10  C   UNL     1      -7.209  11.673  67.536  1.00  0.00    -0.119 C  
ENDROOT
BRANCH   4  11
HETATM   11  C   UNL     1      -8.464  15.708  67.090  1.00  0.00    -0.207 C  
HETATM   12  C   UNL     1      -9.640  15.912  66.146  1.00  0.00    -0.365 C  
HETATM   13  C   UNL     1     -10.127  17.271  66.583  1.00  0.00    -0.302 C  
HETATM   14  C   UNL     1      -9.921  17.223  68.085  1.00  0.00    -0.303 C  
HETATM   15  O   UNL     1      -8.874  16.277  68.347  1.00  0.00    -0.189 OA 
ENDBRANCH   4  11
TORSDOF 1
ENDMDL
MODEL      138
REMARK 921   NORMALIZED FREE ENERGY PREDICTED BY IDOCK:   -2.74 KCAL/MOL
REMARK 922        TOTAL FREE ENERGY PREDICTED BY IDOCK:   -3.09 KCAL/MOL
REMARK 923 INTER-LIGAND FREE ENERGY PREDICTED BY IDOCK:   -3.53 KCAL/MOL
REMARK 924 INTRA-LIGAND FREE ENERGY PREDICTED BY IDOCK:    0.44 KCAL/MOL
REMARK 927      BINDING AFFINITY PREDICTED BY RF-SCORE:    0.00 PKD
ROOT
HETATM    1  F   UNL     1     -12.399  14.609  67.422  1.00  0.00    -0.370 F  
HETATM    2  C   UNL     1     -11.442  13.673  67.563  1.00  0.00    -0.329 C  
HETATM    3  C   UNL     1     -11.694  12.368  67.458  1.00  0.00    -0.357 C  
HETATM    4  N   UNL     1     -10.696  11.421  67.608  1.00  0.00    -0.204 N  
HETATM    5  C   UNL     1      -9.388  11.784  67.916  1.00  0.00    -0.184 C  
HETATM    6  O   UNL     1      -9.779  15.318  67.971  1.00  0.00    -0.209 OA 
HETATM    7  O   UNL     1      -8.482  10.981  68.129  1.00  0.00    -0.124 OA 
HETATM    8  H   UNL     1      -8.179  13.420  68.149  1.00  0.00     0.000 HD 
HETATM    9  N   UNL     1      -9.144  13.134  67.983  1.00  0.00    -0.200 N  
HETATM   10  C   UNL     1     -10.069  14.134  67.850  1.00  0.00    -0.235 C  
ENDROOT
BRANCH   4  11
HETATM   11  C   UNL     1     -10.976   9.998  67.496  1.00  0.00    -0.212 C  
HETATM   12  C   UNL     1     -10.176   9.297  66.408  1.00  0.00    -0.298 C  
HETATM   13  C   UNL     1     -10.270   7.862  66.861  1.00  0.00    -0.380 C  
HETATM   14  C   UNL     1     -10.191   7.991  68.370  1.00  0.00    -0.207 C  
HETATM   15  O   UNL     1     -10.661   9.303  68.716  1.00  0.00    -0.217 OA 
ENDBRANCH   4  11
TORSDOF 1
ENDMDL
MODEL      139
REMARK 921   NORMALIZED FREE ENERGY PREDICTED BY IDOCK:   -2.74 KCAL/MOL
REMARK 922        TOTAL FREE ENERGY PREDICTED BY IDOCK:   -3.08 KCAL/MOL
REMARK 923 INTER-LIGAND FREE ENERGY PREDICTED BY IDOCK:   -2.90 KCAL/MOL
REMARK 924 INTRA-LIGAND FREE ENERGY PREDICTED BY IDOCK:   -0.18 KCAL/MOL
REMARK 927      BINDING AFFINITY PREDICTED BY RF-SCORE:    0.00 PKD
ROOT
HETATM    1  F   UNL     1     -10.552  13.637  67.509  1.00  0.00    -0.235 F  
HETATM    2  C   UNL     1      -9.383  14.266  67.733  1.00  0.00    -0.198 C  
HETATM    3  C   UNL     1      -9.283  15.593  67.797  1.00  0.00    -0.193 C  
HETATM    4  N   UNL     1      -8.071  16.220  68.026  1.00  0.00    -0.146 N  
HETATM    5  C   UNL     1      -6.890  15.496  68.162  1.00  0.00    -0.124 C  
HETATM    6  O   UNL     1      -8.205  12.207  67.846  1.00  0.00    -0.136 OA 
HETATM    7  O   UNL     1      -5.780  16.006  68.296  1.00  0.00    -0.098 OA 
HETATM    8  H   UNL     1      -6.176  13.581  68.288  1.00  0.00     0.000 HD 
HETATM    9  N   UNL     1      -7.022  14.129  68.130  1.00  0.00    -0.110 N  
HETATM   10  C   UNL     1      -8.178  13.430  67.907  1.00  0.00    -0.162 C  
ENDROOT
BRANCH   4  11
HETATM   11  C   UNL     1      -7.966  17.669  68.091  1.00  0.00    -0.256 C  
HETATM   12  C   UNL     1      -7.831  18.339  66.732  1.00  0.00    -0.255 C  
HETATM   13  C   UNL     1      -8.258  19.747  67.060  1.00  0.00    -0.340 C  
HETATM   14  C   UNL     1      -9.371  19.524  68.066  1.00  0.00    -0.336 C  
HETATM   15  O   UNL     1      -9.134  18.255  68.695  1.00  0.00    -0.312 OA 
ENDBRANCH   4  11
TORSDOF 1
ENDMDL
MODEL      140
REMARK 921   NORMALIZED FREE ENERGY PREDICTED BY IDOCK:   -2.72 KCAL/MOL
REMARK 922        TOTAL FREE ENERGY PREDICTED BY IDOCK:   -3.06 KCAL/MOL
REMARK 923 INTER-LIGAND FREE ENERGY PREDICTED BY IDOCK:   -2.89 KCAL/MOL
REMARK 924 INTRA-LIGAND FREE ENERGY PREDICTED BY IDOCK:   -0.17 KCAL/MOL
REMARK 927      BINDING AFFINITY PREDICTED BY RF-SCORE:    0.00 PKD
ROOT
HETATM    1  F   UNL     1     -10.526  18.214  68.752  1.00  0.00    -0.353 F  
HETATM    2  C   UNL     1      -9.376  17.897  68.130  1.00  0.00    -0.286 C  
HETATM    3  C   UNL     1      -8.832  16.682  68.203  1.00  0.00    -0.206 C  
HETATM    4  N   UNL     1      -7.646  16.378  67.557  1.00  0.00    -0.137 N  
HETATM    5  C   UNL     1      -6.944  17.336  66.833  1.00  0.00    -0.194 C  
HETATM    6  O   UNL     1      -9.151  20.093  67.253  1.00  0.00    -0.338 OA 
HETATM    7  O   UNL     1      -5.854  17.136  66.302  1.00  0.00    -0.267 OA 
HETATM    8  H   UNL     1      -7.070  19.266  66.163  1.00  0.00     0.000 HD 
HETATM    9  N   UNL     1      -7.541  18.569  66.740  1.00  0.00    -0.221 N  
HETATM   10  C   UNL     1      -8.707  18.954  67.346  1.00  0.00    -0.274 C  
ENDROOT
BRANCH   4  11
HETATM   11  C   UNL     1      -7.054  15.052  67.643  1.00  0.00    -0.183 C  
HETATM   12  C   UNL     1      -6.171  14.850  68.866  1.00  0.00    -0.086 C  
HETATM   13  C   UNL     1      -6.147  13.344  68.958  1.00  0.00    -0.087 C  
HETATM   14  C   UNL     1      -7.559  12.971  68.552  1.00  0.00    -0.121 C  
HETATM   15  O   UNL     1      -8.064  14.029  67.724  1.00  0.00    -0.139 OA 
ENDBRANCH   4  11
TORSDOF 1
ENDMDL
MODEL      141
REMARK 921   NORMALIZED FREE ENERGY PREDICTED BY IDOCK:   -2.71 KCAL/MOL
REMARK 922        TOTAL FREE ENERGY PREDICTED BY IDOCK:   -3.05 KCAL/MOL
REMARK 923 INTER-LIGAND FREE ENERGY PREDICTED BY IDOCK:   -2.85 KCAL/MOL
REMARK 924 INTRA-LIGAND FREE ENERGY PREDICTED BY IDOCK:   -0.20 KCAL/MOL
REMARK 927      BINDING AFFINITY PREDICTED BY RF-SCORE:    0.00 PKD
ROOT
HETATM    1  F   UNL     1      -7.150   5.613  68.584  1.00  0.00    -0.058 F  
HETATM    2  C   UNL     1      -8.063   6.590  68.439  1.00  0.00    -0.111 C  
HETATM    3  C   UNL     1      -9.089   6.743  69.277  1.00  0.00    -0.139 C  
HETATM    4  N   UNL     1     -10.020   7.754  69.109  1.00  0.00    -0.178 N  
HETATM    5  C   UNL     1      -9.952   8.635  68.034  1.00  0.00    -0.182 C  
HETATM    6  O   UNL     1      -6.991   7.415  66.487  1.00  0.00    -0.066 OA 
HETATM    7  O   UNL     1     -10.790   9.503  67.801  1.00  0.00    -0.269 OA 
HETATM    8  H   UNL     1      -8.769   9.158  66.447  1.00  0.00     0.000 HD 
HETATM    9  N   UNL     1      -8.867   8.483  67.205  1.00  0.00    -0.129 N  
HETATM   10  C   UNL     1      -7.905   7.513  67.298  1.00  0.00    -0.118 C  
ENDROOT
BRANCH   4  11
HETATM   11  C   UNL     1     -11.139   7.914  70.023  1.00  0.00    -0.162 C  
HETATM   12  C   UNL     1     -11.734   6.599  70.505  1.00  0.00    -0.453 C  
HETATM   13  C   UNL     1     -12.453   7.048  71.752  1.00  0.00    -0.393 C  
HETATM   14  C   UNL     1     -11.511   8.095  72.312  1.00  0.00    -0.371 C  
HETATM   15  O   UNL     1     -10.748   8.620  71.215  1.00  0.00    -0.223 OA 
ENDBRANCH   4  11
TORSDOF 1
ENDMDL
MODEL      142
REMARK 921   NORMALIZED FREE ENERGY PREDICTED BY IDOCK:   -2.69 KCAL/MOL
REMARK 922        TOTAL FREE ENERGY PREDICTED BY IDOCK:   -3.03 KCAL/MOL
REMARK 923 INTER-LIGAND FREE ENERGY PREDICTED BY IDOCK:   -2.83 KCAL/MOL
REMARK 924 INTRA-LIGAND FREE ENERGY PREDICTED BY IDOCK:   -0.20 KCAL/MOL
REMARK 927      BINDING AFFINITY PREDICTED BY RF-SCORE:    0.00 PKD
ROOT
HETATM    1  F   UNL     1     -11.518   6.406  69.218  1.00  0.00    -0.408 F  
HETATM    2  C   UNL     1     -10.672   7.453  69.249  1.00  0.00    -0.185 C  
HETATM    3  C   UNL     1     -10.434   8.214  68.181  1.00  0.00    -0.170 C  
HETATM    4  N   UNL     1      -9.559   9.285  68.233  1.00  0.00    -0.145 N  
HETATM    5  C   UNL     1      -8.854   9.594  69.392  1.00  0.00    -0.180 C  
HETATM    6  O   UNL     1     -10.157   7.074  71.536  1.00  0.00    -0.188 OA 
HETATM    7  O   UNL     1      -8.015  10.488  69.470  1.00  0.00    -0.154 OA 
HETATM    8  H   UNL     1      -8.680   9.070  71.363  1.00  0.00     0.000 HD 
HETATM    9  N   UNL     1      -9.142   8.820  70.489  1.00  0.00    -0.162 N  
HETATM   10  C   UNL     1      -9.990   7.745  70.525  1.00  0.00    -0.187 C  
ENDROOT
BRANCH   4  11
HETATM   11  C   UNL     1      -9.300  10.110  67.063  1.00  0.00    -0.154 C  
HETATM   12  C   UNL     1      -8.628   9.365  65.920  1.00  0.00    -0.155 C  
HETATM   13  C   UNL     1      -8.959  10.264  64.755  1.00  0.00    -0.232 C  
HETATM   14  C   UNL     1     -10.366  10.724  65.089  1.00  0.00    -0.271 C  
HETATM   15  O   UNL     1     -10.519  10.642  66.514  1.00  0.00    -0.239 OA 
ENDBRANCH   4  11
TORSDOF 1
ENDMDL
MODEL      143
REMARK 921   NORMALIZED FREE ENERGY PREDICTED BY IDOCK:   -2.67 KCAL/MOL
REMARK 922        TOTAL FREE ENERGY PREDICTED BY IDOCK:   -3.01 KCAL/MOL
REMARK 923 INTER-LIGAND FREE ENERGY PREDICTED BY IDOCK:   -2.82 KCAL/MOL
REMARK 924 INTRA-LIGAND FREE ENERGY PREDICTED BY IDOCK:   -0.19 KCAL/MOL
REMARK 927      BINDING AFFINITY PREDICTED BY RF-SCORE:    0.00 PKD
ROOT
HETATM    1  F   UNL     1      -7.007   7.923  68.426  1.00  0.00    -0.066 F  
HETATM    2  C   UNL     1      -8.270   7.677  68.820  1.00  0.00    -0.128 C  
HETATM    3  C   UNL     1      -9.171   8.646  68.988  1.00  0.00    -0.145 C  
HETATM    4  N   UNL     1     -10.464   8.371  69.396  1.00  0.00    -0.220 N  
HETATM    5  C   UNL     1     -10.877   7.075  69.690  1.00  0.00    -0.247 C  
HETATM    6  O   UNL     1      -7.861   5.341  68.952  1.00  0.00    -0.081 OA 
HETATM    7  O   UNL     1     -11.990   6.788  70.123  1.00  0.00    -0.328 OA 
HETATM    8  H   UNL     1     -10.247   5.128  69.628  1.00  0.00     0.000 HD 
HETATM    9  N   UNL     1      -9.944   6.090  69.475  1.00  0.00    -0.169 N  
HETATM   10  C   UNL     1      -8.648   6.273  69.076  1.00  0.00    -0.123 C  
ENDROOT
BRANCH   4  11
HETATM   11  C   UNL     1     -11.442   9.432  69.582  1.00  0.00     0.102 C  
HETATM   12  C   UNL     1     -11.297  10.181  70.898  1.00  0.00    -0.420 C  
HETATM   13  C   UNL     1     -12.033  11.460  70.585  1.00  0.00    -0.413 C  
HETATM   14  C   UNL     1     -11.657  11.705  69.137  1.00  0.00    -0.314 C  
HETATM   15  O   UNL     1     -11.333  10.434  68.554  1.00  0.00    -0.264 OA 
ENDBRANCH   4  11
TORSDOF 1
ENDMDL
MODEL      144
REMARK 921   NORMALIZED FREE ENERGY PREDICTED BY IDOCK:   -2.62 KCAL/MOL
REMARK 922        TOTAL FREE ENERGY PREDICTED BY IDOCK:   -2.96 KCAL/MOL
REMARK 923 INTER-LIGAND FREE ENERGY PREDICTED BY IDOCK:   -2.76 KCAL/MOL
REMARK 924 INTRA-LIGAND FREE ENERGY PREDICTED BY IDOCK:   -0.20 KCAL/MOL
REMARK 927      BINDING AFFINITY PREDICTED BY RF-SCORE:    0.00 PKD
ROOT
HETATM    1  F   UNL     1     -11.789  10.446  69.762  1.00  0.00    -0.277 F  
HETATM    2  C   UNL     1     -10.926   9.415  69.695  1.00  0.00    -0.197 C  
HETATM    3  C   UNL     1     -10.770   8.544  70.692  1.00  0.00    -0.220 C  
HETATM    4  N   UNL     1      -9.876   7.492  70.604  1.00  0.00    -0.179 N  
HETATM    5  C   UNL     1      -9.067   7.315  69.485  1.00  0.00    -0.143 C  
HETATM    6  O   UNL     1     -10.218  10.044  67.517  1.00  0.00    -0.186 OA 
HETATM    7  O   UNL     1      -8.209   6.440  69.387  1.00  0.00    -0.115 OA 
HETATM    8  H   UNL     1      -8.729   8.051  67.605  1.00  0.00     0.000 HD 
HETATM    9  N   UNL     1      -9.270   8.201  68.456  1.00  0.00    -0.136 N  
HETATM   10  C   UNL     1     -10.129   9.267  68.461  1.00  0.00    -0.190 C  
ENDROOT
BRANCH   4  11
HETATM   11  C   UNL     1      -9.707   6.546  71.696  1.00  0.00    -0.163 C  
HETATM   12  C   UNL     1      -9.501   7.202  73.053  1.00  0.00    -0.193 C  
HETATM   13  C   UNL     1      -9.873   6.072  73.980  1.00  0.00    -0.215 C  
HETATM   14  C   UNL     1     -11.023   5.413  73.243  1.00  0.00    -0.307 C  
HETATM   15  O   UNL     1     -10.864   5.703  71.846  1.00  0.00    -0.238 OA 
ENDBRANCH   4  11
TORSDOF 1
ENDMDL
MODEL      145
REMARK 921   NORMALIZED FREE ENERGY PREDICTED BY IDOCK:   -2.62 KCAL/MOL
REMARK 922        TOTAL FREE ENERGY PREDICTED BY IDOCK:   -2.96 KCAL/MOL
REMARK 923 INTER-LIGAND FREE ENERGY PREDICTED BY IDOCK:   -3.42 KCAL/MOL
REMARK 924 INTRA-LIGAND FREE ENERGY PREDICTED BY IDOCK:    0.46 KCAL/MOL
REMARK 927      BINDING AFFINITY PREDICTED BY RF-SCORE:    0.00 PKD
ROOT
HETATM    1  F   UNL     1      -8.938  10.418  70.090  1.00  0.00    -0.125 F  
HETATM    2  C   UNL     1      -9.825   9.539  70.591  1.00  0.00    -0.262 C  
HETATM    3  C   UNL     1      -9.453   8.444  71.254  1.00  0.00    -0.186 C  
HETATM    4  N   UNL     1     -10.381   7.550  71.759  1.00  0.00    -0.192 N  
HETATM    5  C   UNL     1     -11.747   7.731  71.565  1.00  0.00    -0.280 C  
HETATM    6  O   UNL     1     -11.662  10.797  69.766  1.00  0.00    -0.270 OA 
HETATM    7  O   UNL     1     -12.606   6.932  71.931  1.00  0.00    -0.339 OA 
HETATM    8  H   UNL     1     -13.108   9.061  70.812  1.00  0.00     0.000 HD 
HETATM    9  N   UNL     1     -12.109   8.883  70.911  1.00  0.00    -0.232 N  
HETATM   10  C   UNL     1     -11.260   9.816  70.379  1.00  0.00    -0.300 C  
ENDROOT
BRANCH   4  11
HETATM   11  C   UNL     1      -9.970   6.355  72.480  1.00  0.00    -0.171 C  
HETATM   12  C   UNL     1     -10.382   6.346  73.944  1.00  0.00    -0.338 C  
HETATM   13  C   UNL     1     -10.304   4.873  74.257  1.00  0.00    -0.317 C  
HETATM   14  C   UNL     1     -10.805   4.241  72.973  1.00  0.00    -0.183 C  
HETATM   15  O   UNL     1     -10.552   5.170  71.908  1.00  0.00    -0.220 OA 
ENDBRANCH   4  11
TORSDOF 1
ENDMDL
MODEL      146
REMARK 921   NORMALIZED FREE ENERGY PREDICTED BY IDOCK:   -2.59 KCAL/MOL
REMARK 922        TOTAL FREE ENERGY PREDICTED BY IDOCK:   -2.93 KCAL/MOL
REMARK 923 INTER-LIGAND FREE ENERGY PREDICTED BY IDOCK:   -2.73 KCAL/MOL
REMARK 924 INTRA-LIGAND FREE ENERGY PREDICTED BY IDOCK:   -0.20 KCAL/MOL
REMARK 927      BINDING AFFINITY PREDICTED BY RF-SCORE:    0.00 PKD
ROOT
HETATM    1  F   UNL     1      -8.579   6.700  71.506  1.00  0.00    -0.122 F  
HETATM    2  C   UNL     1      -9.155   7.343  70.473  1.00  0.00    -0.157 C  
HETATM    3  C   UNL     1      -9.299   6.785  69.271  1.00  0.00    -0.144 C  
HETATM    4  N   UNL     1      -9.893   7.464  68.222  1.00  0.00    -0.156 N  
HETATM    5  C   UNL     1     -10.331   8.778  68.359  1.00  0.00    -0.204 C  
HETATM    6  O   UNL     1      -9.513   9.293  71.781  1.00  0.00    -0.302 OA 
HETATM    7  O   UNL     1     -10.798   9.447  67.440  1.00  0.00    -0.263 OA 
HETATM    8  H   UNL     1     -10.575  10.261  69.748  1.00  0.00     0.000 HD 
HETATM    9  N   UNL     1     -10.205   9.320  69.614  1.00  0.00    -0.198 N  
HETATM   10  C   UNL     1      -9.631   8.721  70.703  1.00  0.00    -0.199 C  
ENDROOT
BRANCH   4  11
HETATM   11  C   UNL     1     -10.045   6.852  66.911  1.00  0.00    -0.218 C  
HETATM   12  C   UNL     1      -8.748   6.312  66.328  1.00  0.00    -0.143 C  
HETATM   13  C   UNL     1      -9.274   5.337  65.305  1.00  0.00    -0.054 C  
HETATM   14  C   UNL     1     -10.487   4.755  66.005  1.00  0.00    -0.292 C  
HETATM   15  O   UNL     1     -10.944   5.728  66.957  1.00  0.00    -0.274 OA 
ENDBRANCH   4  11
TORSDOF 1
ENDMDL
MODEL      147
REMARK 921   NORMALIZED FREE ENERGY PREDICTED BY IDOCK:   -2.54 KCAL/MOL
REMARK 922        TOTAL FREE ENERGY PREDICTED BY IDOCK:   -2.88 KCAL/MOL
REMARK 923 INTER-LIGAND FREE ENERGY PREDICTED BY IDOCK:   -2.68 KCAL/MOL
REMARK 924 INTRA-LIGAND FREE ENERGY PREDICTED BY IDOCK:   -0.20 KCAL/MOL
REMARK 927      BINDING AFFINITY PREDICTED BY RF-SCORE:    0.00 PKD
ROOT
HETATM    1  F   UNL     1      -7.284   6.959  68.462  1.00  0.00    -0.073 F  
HETATM    2  C   UNL     1      -8.540   6.899  68.942  1.00  0.00    -0.131 C  
HETATM    3  C   UNL     1      -8.809   6.884  70.248  1.00  0.00    -0.148 C  
HETATM    4  N   UNL     1     -10.108   6.819  70.721  1.00  0.00    -0.191 N  
HETATM    5  C   UNL     1     -11.194   6.725  69.856  1.00  0.00    -0.326 C  
HETATM    6  O   UNL     1      -9.460   6.837  66.754  1.00  0.00    -0.152 OA 
HETATM    7  O   UNL     1     -12.359   6.594  70.225  1.00  0.00    -0.227 OA 
HETATM    8  H   UNL     1     -11.684   6.772  67.869  1.00  0.00     0.000 HD 
HETATM    9  N   UNL     1     -10.896   6.779  68.517  1.00  0.00    -0.233 N  
HETATM   10  C   UNL     1      -9.645   6.841  67.965  1.00  0.00    -0.117 C  
ENDROOT
BRANCH   4  11
HETATM   11  C   UNL     1     -10.396   6.800  72.146  1.00  0.00    -0.200 C  
HETATM   12  C   UNL     1     -10.060   5.481  72.825  1.00  0.00    -0.208 C  
HETATM   13  C   UNL     1      -9.963   5.914  74.266  1.00  0.00    -0.262 C  
HETATM   14  C   UNL     1      -9.320   7.283  74.151  1.00  0.00    -0.219 C  
HETATM   15  O   UNL     1      -9.637   7.800  72.850  1.00  0.00    -0.193 OA 
ENDBRANCH   4  11
TORSDOF 1
ENDMDL
MODEL      148
REMARK 921   NORMALIZED FREE ENERGY PREDICTED BY IDOCK:   -2.54 KCAL/MOL
REMARK 922        TOTAL FREE ENERGY PREDICTED BY IDOCK:   -2.87 KCAL/MOL
REMARK 923 INTER-LIGAND FREE ENERGY PREDICTED BY IDOCK:   -2.69 KCAL/MOL
REMARK 924 INTRA-LIGAND FREE ENERGY PREDICTED BY IDOCK:   -0.19 KCAL/MOL
REMARK 927      BINDING AFFINITY PREDICTED BY RF-SCORE:    0.00 PKD
ROOT
HETATM    1  F   UNL     1     -10.034   8.884  72.361  1.00  0.00    -0.370 F  
HETATM    2  C   UNL     1     -10.183   8.637  71.046  1.00  0.00    -0.220 C  
HETATM    3  C   UNL     1      -9.850   7.470  70.494  1.00  0.00    -0.183 C  
HETATM    4  N   UNL     1     -10.009   7.237  69.139  1.00  0.00    -0.167 N  
HETATM    5  C   UNL     1     -10.487   8.224  68.281  1.00  0.00    -0.161 C  
HETATM    6  O   UNL     1     -11.043  10.815  70.652  1.00  0.00    -0.170 OA 
HETATM    7  O   UNL     1     -10.579   8.091  67.063  1.00  0.00    -0.335 OA 
HETATM    8  H   UNL     1     -11.265  10.117  68.272  1.00  0.00     0.000 HD 
HETATM    9  N   UNL     1     -10.857   9.404  68.877  1.00  0.00    -0.171 N  
HETATM   10  C   UNL     1     -10.732   9.718  70.204  1.00  0.00    -0.289 C  
ENDROOT
BRANCH   4  11
HETATM   11  C   UNL     1      -9.641   5.964  68.540  1.00  0.00    -0.123 C  
HETATM   12  C   UNL     1      -8.160   5.841  68.216  1.00  0.00    -0.108 C  
HETATM   13  C   UNL     1      -8.008   4.343  68.124  1.00  0.00    -0.079 C  
HETATM   14  C   UNL     1      -8.936   3.854  69.220  1.00  0.00    -0.116 C  
HETATM   15  O   UNL     1      -9.937   4.864  69.419  1.00  0.00    -0.195 OA 
ENDBRANCH   4  11
TORSDOF 1
ENDMDL
MODEL      149
REMARK 921   NORMALIZED FREE ENERGY PREDICTED BY IDOCK:   -2.53 KCAL/MOL
REMARK 922        TOTAL FREE ENERGY PREDICTED BY IDOCK:   -2.87 KCAL/MOL
REMARK 923 INTER-LIGAND FREE ENERGY PREDICTED BY IDOCK:   -2.68 KCAL/MOL
REMARK 924 INTRA-LIGAND FREE ENERGY PREDICTED BY IDOCK:   -0.19 KCAL/MOL
REMARK 927      BINDING AFFINITY PREDICTED BY RF-SCORE:    0.00 PKD
ROOT
HETATM    1  F   UNL     1     -11.595  14.792  67.760  1.00  0.00    -0.311 F  
HETATM    2  C   UNL     1     -10.285  15.008  67.540  1.00  0.00    -0.234 C  
HETATM    3  C   UNL     1      -9.362  14.063  67.717  1.00  0.00    -0.205 C  
HETATM    4  N   UNL     1      -8.019  14.307  67.488  1.00  0.00    -0.176 N  
HETATM    5  C   UNL     1      -7.563  15.564  67.100  1.00  0.00    -0.218 C  
HETATM    6  O   UNL     1     -10.679  17.269  66.926  1.00  0.00    -0.253 OA 
HETATM    7  O   UNL     1      -6.377  15.850  66.953  1.00  0.00    -0.301 OA 
HETATM    8  H   UNL     1      -8.223  17.421  66.547  1.00  0.00     0.000 HD 
HETATM    9  N   UNL     1      -8.534  16.512  66.889  1.00  0.00    -0.193 N  
HETATM   10  C   UNL     1      -9.879  16.355  67.093  1.00  0.00    -0.249 C  
ENDROOT
BRANCH   4  11
HETATM   11  C   UNL     1      -7.015  13.273  67.685  1.00  0.00    -0.160 C  
HETATM   12  C   UNL     1      -6.604  13.084  69.137  1.00  0.00    -0.104 C  
HETATM   13  C   UNL     1      -6.012  11.697  69.091  1.00  0.00    -0.064 C  
HETATM   14  C   UNL     1      -6.924  10.988  68.108  1.00  0.00    -0.069 C  
HETATM   15  O   UNL     1      -7.492  11.987  67.248  1.00  0.00    -0.141 OA 
ENDBRANCH   4  11
TORSDOF 1
ENDMDL
MODEL      150
REMARK 921   NORMALIZED FREE ENERGY PREDICTED BY IDOCK:   -2.50 KCAL/MOL
REMARK 922        TOTAL FREE ENERGY PREDICTED BY IDOCK:   -2.84 KCAL/MOL
REMARK 923 INTER-LIGAND FREE ENERGY PREDICTED BY IDOCK:   -2.66 KCAL/MOL
REMARK 924 INTRA-LIGAND FREE ENERGY PREDICTED BY IDOCK:   -0.17 KCAL/MOL
REMARK 927      BINDING AFFINITY PREDICTED BY RF-SCORE:    0.00 PKD
ROOT
HETATM    1  F   UNL     1     -11.424  13.786  67.488  1.00  0.00    -0.290 F  
HETATM    2  C   UNL     1     -10.291  13.063  67.539  1.00  0.00    -0.224 C  
HETATM    3  C   UNL     1     -10.255  11.819  68.016  1.00  0.00    -0.193 C  
HETATM    4  N   UNL     1      -9.077  11.093  68.062  1.00  0.00    -0.147 N  
HETATM    5  C   UNL     1      -7.866  11.641  67.648  1.00  0.00    -0.135 C  
HETATM    6  O   UNL     1      -9.019  14.840  66.608  1.00  0.00    -0.256 OA 
HETATM    7  O   UNL     1      -6.785  11.064  67.734  1.00  0.00    -0.063 OA 
HETATM    8  H   UNL     1      -7.066  13.304  66.763  1.00  0.00     0.000 HD 
HETATM    9  N   UNL     1      -7.934  12.909  67.126  1.00  0.00    -0.142 N  
HETATM   10  C   UNL     1      -9.052  13.696  67.046  1.00  0.00    -0.248 C  
ENDROOT
BRANCH   4  11
HETATM   11  C   UNL     1      -9.042   9.737  68.587  1.00  0.00    -0.130 C  
HETATM   12  C   UNL     1      -8.869   9.666  70.097  1.00  0.00    -0.266 C  
HETATM   13  C   UNL     1      -9.376   8.274  70.380  1.00  0.00    -0.162 C  
HETATM   14  C   UNL     1     -10.526   8.141  69.400  1.00  0.00    -0.220 C  
HETATM   15  O   UNL     1     -10.264   9.031  68.304  1.00  0.00    -0.189 OA 
ENDBRANCH   4  11
TORSDOF 1
ENDMDL
MODEL      151
REMARK 921   NORMALIZED FREE ENERGY PREDICTED BY IDOCK:   -2.49 KCAL/MOL
REMARK 922        TOTAL FREE ENERGY PREDICTED BY IDOCK:   -2.83 KCAL/MOL
REMARK 923 INTER-LIGAND FREE ENERGY PREDICTED BY IDOCK:   -2.63 KCAL/MOL
REMARK 924 INTRA-LIGAND FREE ENERGY PREDICTED BY IDOCK:   -0.20 KCAL/MOL
REMARK 927      BINDING AFFINITY PREDICTED BY RF-SCORE:    0.00 PKD
ROOT
HETATM    1  F   UNL     1      -6.080   8.177  72.596  1.00  0.00    -0.046 F  
HETATM    2  C   UNL     1      -7.387   8.364  72.339  1.00  0.00    -0.090 C  
HETATM    3  C   UNL     1      -7.826   8.888  71.194  1.00  0.00    -0.140 C  
HETATM    4  N   UNL     1      -9.175   9.074  70.951  1.00  0.00    -0.238 N  
HETATM    5  C   UNL     1     -10.138   8.761  71.906  1.00  0.00    -0.339 C  
HETATM    6  O   UNL     1      -8.011   7.499  74.461  1.00  0.00    -0.158 OA 
HETATM    7  O   UNL     1     -11.340   8.973  71.767  1.00  0.00    -0.334 OA 
HETATM    8  H   UNL     1     -10.363   7.899  73.749  1.00  0.00     0.000 HD 
HETATM    9  N   UNL     1      -9.667   8.190  73.063  1.00  0.00    -0.276 N  
HETATM   10  C   UNL     1      -8.354   7.972  73.384  1.00  0.00    -0.220 C  
ENDROOT
BRANCH   4  11
HETATM   11  C   UNL     1      -9.649   9.649  69.702  1.00  0.00    -0.208 C  
HETATM   12  C   UNL     1      -8.722  10.706  69.120  1.00  0.00    -0.135 C  
HETATM   13  C   UNL     1      -9.167  10.718  67.679  1.00  0.00    -0.152 C  
HETATM   14  C   UNL     1      -9.461   9.254  67.417  1.00  0.00    -0.132 C  
HETATM   15  O   UNL     1      -9.780   8.646  68.678  1.00  0.00    -0.157 OA 
ENDBRANCH   4  11
TORSDOF 1
ENDMDL
MODEL      152
REMARK 921   NORMALIZED FREE ENERGY PREDICTED BY IDOCK:   -2.49 KCAL/MOL
REMARK 922        TOTAL FREE ENERGY PREDICTED BY IDOCK:   -2.83 KCAL/MOL
REMARK 923 INTER-LIGAND FREE ENERGY PREDICTED BY IDOCK:   -2.64 KCAL/MOL
REMARK 924 INTRA-LIGAND FREE ENERGY PREDICTED BY IDOCK:   -0.19 KCAL/MOL
REMARK 927      BINDING AFFINITY PREDICTED BY RF-SCORE:    0.00 PKD
ROOT
HETATM    1  F   UNL     1      -7.154   9.124  70.129  1.00  0.00    -0.040 F  
HETATM    2  C   UNL     1      -8.119   8.201  70.295  1.00  0.00    -0.109 C  
HETATM    3  C   UNL     1      -8.518   7.396  69.311  1.00  0.00    -0.136 C  
HETATM    4  N   UNL     1      -9.514   6.454  69.502  1.00  0.00    -0.145 N  
HETATM    5  C   UNL     1     -10.175   6.329  70.720  1.00  0.00    -0.193 C  
HETATM    6  O   UNL     1      -8.434   8.820  72.566  1.00  0.00    -0.403 OA 
HETATM    7  O   UNL     1     -11.112   5.559  70.919  1.00  0.00    -0.186 OA 
HETATM    8  H   UNL     1     -10.155   7.023  72.646  1.00  0.00     0.000 HD 
HETATM    9  N   UNL     1      -9.723   7.143  71.730  1.00  0.00    -0.158 N  
HETATM   10  C   UNL     1      -8.748   8.099  71.627  1.00  0.00    -0.145 C  
ENDROOT
BRANCH   4  11
HETATM   11  C   UNL     1      -9.949   5.580  68.423  1.00  0.00    -0.159 C  
HETATM   12  C   UNL     1     -10.925   6.233  67.456  1.00  0.00    -0.444 C  
HETATM   13  C   UNL     1     -10.778   5.339  66.250  1.00  0.00    -0.260 C  
HETATM   14  C   UNL     1      -9.296   5.017  66.262  1.00  0.00    -0.149 C  
HETATM   15  O   UNL     1      -8.838   5.147  67.617  1.00  0.00    -0.107 OA 
ENDBRANCH   4  11
TORSDOF 1
ENDMDL
MODEL      153
REMARK 921   NORMALIZED FREE ENERGY PREDICTED BY IDOCK:   -2.49 KCAL/MOL
REMARK 922        TOTAL FREE ENERGY PREDICTED BY IDOCK:   -2.82 KCAL/MOL
REMARK 923 INTER-LIGAND FREE ENERGY PREDICTED BY IDOCK:   -2.62 KCAL/MOL
REMARK 924 INTRA-LIGAND FREE ENERGY PREDICTED BY IDOCK:   -0.20 KCAL/MOL
REMARK 927      BINDING AFFINITY PREDICTED BY RF-SCORE:    0.00 PKD
ROOT
HETATM    1  F   UNL     1     -10.875   7.925  68.600  1.00  0.00    -0.196 F  
HETATM    2  C   UNL     1     -10.542   6.728  69.119  1.00  0.00    -0.232 C  
HETATM    3  C   UNL     1     -10.371   6.536  70.427  1.00  0.00    -0.198 C  
HETATM    4  N   UNL     1     -10.027   5.297  70.940  1.00  0.00    -0.196 N  
HETATM    5  C   UNL     1      -9.804   4.202  70.111  1.00  0.00    -0.172 C  
HETATM    6  O   UNL     1     -10.491   5.720  66.969  1.00  0.00    -0.220 OA 
HETATM    7  O   UNL     1      -9.429   3.102  70.509  1.00  0.00    -0.156 OA 
HETATM    8  H   UNL     1      -9.922   3.607  68.156  1.00  0.00     0.000 HD 
HETATM    9  N   UNL     1     -10.022   4.413  68.771  1.00  0.00    -0.079 N  
HETATM   10  C   UNL     1     -10.361   5.602  68.182  1.00  0.00    -0.197 C  
ENDROOT
BRANCH   4  11
HETATM   11  C   UNL     1      -9.838   5.093  72.367  1.00  0.00    -0.167 C  
HETATM   12  C   UNL     1      -8.507   5.611  72.892  1.00  0.00    -0.122 C  
HETATM   13  C   UNL     1      -8.809   5.741  74.364  1.00  0.00    -0.122 C  
HETATM   14  C   UNL     1     -10.248   6.219  74.361  1.00  0.00    -0.321 C  
HETATM   15  O   UNL     1     -10.847   5.774  73.135  1.00  0.00    -0.246 OA 
ENDBRANCH   4  11
TORSDOF 1
ENDMDL
MODEL      154
REMARK 921   NORMALIZED FREE ENERGY PREDICTED BY IDOCK:   -2.47 KCAL/MOL
REMARK 922        TOTAL FREE ENERGY PREDICTED BY IDOCK:   -2.80 KCAL/MOL
REMARK 923 INTER-LIGAND FREE ENERGY PREDICTED BY IDOCK:   -2.60 KCAL/MOL
REMARK 924 INTRA-LIGAND FREE ENERGY PREDICTED BY IDOCK:   -0.20 KCAL/MOL
REMARK 927      BINDING AFFINITY PREDICTED BY RF-SCORE:    0.00 PKD
ROOT
HETATM    1  F   UNL     1      -8.454   7.729  72.320  1.00  0.00    -0.117 F  
HETATM    2  C   UNL     1      -9.046   8.562  71.445  1.00  0.00    -0.206 C  
HETATM    3  C   UNL     1      -8.382   9.141  70.445  1.00  0.00    -0.185 C  
HETATM    4  N   UNL     1      -9.009   9.997  69.556  1.00  0.00    -0.198 N  
HETATM    5  C   UNL     1     -10.355  10.326  69.688  1.00  0.00    -0.248 C  
HETATM    6  O   UNL     1     -11.146   8.342  72.531  1.00  0.00    -0.361 OA 
HETATM    7  O   UNL     1     -10.939  11.134  68.970  1.00  0.00    -0.205 OA 
HETATM    8  H   UNL     1     -12.028   9.873  70.777  1.00  0.00     0.000 HD 
HETATM    9  N   UNL     1     -11.027   9.690  70.702  1.00  0.00    -0.293 N  
HETATM   10  C   UNL     1     -10.486   8.834  71.623  1.00  0.00    -0.317 C  
ENDROOT
BRANCH   4  11
HETATM   11  C   UNL     1      -8.279  10.630  68.468  1.00  0.00    -0.128 C  
HETATM   12  C   UNL     1      -7.185  11.581  68.932  1.00  0.00    -0.117 C  
HETATM   13  C   UNL     1      -6.323  11.652  67.696  1.00  0.00    -0.072 C  
HETATM   14  C   UNL     1      -6.390  10.231  67.170  1.00  0.00    -0.067 C  
HETATM   15  O   UNL     1      -7.618   9.655  67.642  1.00  0.00    -0.090 OA 
ENDBRANCH   4  11
TORSDOF 1
ENDMDL
MODEL      155
REMARK 921   NORMALIZED FREE ENERGY PREDICTED BY IDOCK:   -2.46 KCAL/MOL
REMARK 922        TOTAL FREE ENERGY PREDICTED BY IDOCK:   -2.80 KCAL/MOL
REMARK 923 INTER-LIGAND FREE ENERGY PREDICTED BY IDOCK:   -3.23 KCAL/MOL
REMARK 924 INTRA-LIGAND FREE ENERGY PREDICTED BY IDOCK:    0.44 KCAL/MOL
REMARK 927      BINDING AFFINITY PREDICTED BY RF-SCORE:    0.00 PKD
ROOT
HETATM    1  F   UNL     1     -10.944   5.069  65.883  1.00  0.00    -0.330 F  
HETATM    2  C   UNL     1     -10.438   5.364  67.095  1.00  0.00    -0.235 C  
HETATM    3  C   UNL     1     -11.031   6.216  67.931  1.00  0.00    -0.304 C  
HETATM    4  N   UNL     1     -10.493   6.508  69.173  1.00  0.00    -0.202 N  
HETATM    5  C   UNL     1      -9.286   5.956  69.592  1.00  0.00    -0.136 C  
HETATM    6  O   UNL     1      -8.576   3.930  66.756  1.00  0.00    -0.103 OA 
HETATM    7  O   UNL     1      -8.731   6.237  70.652  1.00  0.00    -0.137 OA 
HETATM    8  H   UNL     1      -7.858   4.595  69.046  1.00  0.00     0.000 HD 
HETATM    9  N   UNL     1      -8.712   5.054  68.730  1.00  0.00    -0.093 N  
HETATM   10  C   UNL     1      -9.174   4.711  67.487  1.00  0.00    -0.132 C  
ENDROOT
BRANCH   4  11
HETATM   11  C   UNL     1     -11.141   7.441  70.081  1.00  0.00    -0.246 C  
HETATM   12  C   UNL     1     -11.472   6.846  71.442  1.00  0.00    -0.321 C  
HETATM   13  C   UNL     1     -11.622   8.095  72.273  1.00  0.00    -0.436 C  
HETATM   14  C   UNL     1     -10.545   8.997  71.703  1.00  0.00    -0.364 C  
HETATM   15  O   UNL     1     -10.305   8.580  70.351  1.00  0.00    -0.194 OA 
ENDBRANCH   4  11
TORSDOF 1
ENDMDL
MODEL      156
REMARK 921   NORMALIZED FREE ENERGY PREDICTED BY IDOCK:   -2.44 KCAL/MOL
REMARK 922        TOTAL FREE ENERGY PREDICTED BY IDOCK:   -2.77 KCAL/MOL
REMARK 923 INTER-LIGAND FREE ENERGY PREDICTED BY IDOCK:   -3.21 KCAL/MOL
REMARK 924 INTRA-LIGAND FREE ENERGY PREDICTED BY IDOCK:    0.44 KCAL/MOL
REMARK 927      BINDING AFFINITY PREDICTED BY RF-SCORE:    0.00 PKD
ROOT
HETATM    1  F   UNL     1      -9.326   9.504  63.643  1.00  0.00    -0.282 F  
HETATM    2  C   UNL     1      -9.183  10.142  64.819  1.00  0.00    -0.242 C  
HETATM    3  C   UNL     1     -10.221  10.479  65.583  1.00  0.00    -0.246 C  
HETATM    4  N   UNL     1     -10.052  11.138  66.788  1.00  0.00    -0.211 N  
HETATM    5  C   UNL     1      -8.792  11.517  67.242  1.00  0.00    -0.160 C  
HETATM    6  O   UNL     1      -6.820  10.206  64.589  1.00  0.00    -0.128 OA 
HETATM    7  O   UNL     1      -8.595  12.164  68.267  1.00  0.00    -0.173 OA 
HETATM    8  H   UNL     1      -6.800  11.344  66.803  1.00  0.00     0.000 HD 
HETATM    9  N   UNL     1      -7.735  11.127  66.457  1.00  0.00    -0.154 N  
HETATM   10  C   UNL     1      -7.812  10.477  65.254  1.00  0.00    -0.100 C  
ENDROOT
BRANCH   4  11
HETATM   11  C   UNL     1     -11.189  11.507  67.618  1.00  0.00    -0.281 C  
HETATM   12  C   UNL     1     -11.171  10.878  69.003  1.00  0.00    -0.327 C  
HETATM   13  C   UNL     1     -12.102  11.799  69.750  1.00  0.00    -0.338 C  
HETATM   14  C   UNL     1     -11.766  13.153  69.157  1.00  0.00    -0.325 C  
HETATM   15  O   UNL     1     -11.239  12.928  67.840  1.00  0.00    -0.242 OA 
ENDBRANCH   4  11
TORSDOF 1
ENDMDL
MODEL      157
REMARK 921   NORMALIZED FREE ENERGY PREDICTED BY IDOCK:   -2.41 KCAL/MOL
REMARK 922        TOTAL FREE ENERGY PREDICTED BY IDOCK:   -2.74 KCAL/MOL
REMARK 923 INTER-LIGAND FREE ENERGY PREDICTED BY IDOCK:   -2.56 KCAL/MOL
REMARK 924 INTRA-LIGAND FREE ENERGY PREDICTED BY IDOCK:   -0.18 KCAL/MOL
REMARK 927      BINDING AFFINITY PREDICTED BY RF-SCORE:    0.00 PKD
ROOT
HETATM    1  F   UNL     1      -6.608   5.657  66.814  1.00  0.00    -0.048 F  
HETATM    2  C   UNL     1      -7.836   5.839  67.332  1.00  0.00    -0.102 C  
HETATM    3  C   UNL     1      -8.523   6.970  67.169  1.00  0.00    -0.121 C  
HETATM    4  N   UNL     1      -9.784   7.139  67.712  1.00  0.00    -0.135 N  
HETATM    5  C   UNL     1     -10.381   6.151  68.490  1.00  0.00    -0.207 C  
HETATM    6  O   UNL     1      -7.834   3.675  68.310  1.00  0.00    -0.067 OA 
HETATM    7  O   UNL     1     -11.466   6.278  69.053  1.00  0.00    -0.363 OA 
HETATM    8  H   UNL     1     -10.119   4.224  69.131  1.00  0.00     0.000 HD 
HETATM    9  N   UNL     1      -9.672   4.981  68.615  1.00  0.00    -0.148 N  
HETATM   10  C   UNL     1      -8.422   4.732  68.114  1.00  0.00    -0.101 C  
ENDROOT
BRANCH   4  11
HETATM   11  C   UNL     1     -10.529   8.376  67.534  1.00  0.00    -0.257 C  
HETATM   12  C   UNL     1     -10.188   9.452  68.554  1.00  0.00    -0.223 C  
HETATM   13  C   UNL     1     -10.672  10.689  67.840  1.00  0.00    -0.292 C  
HETATM   14  C   UNL     1     -10.313  10.393  66.396  1.00  0.00    -0.213 C  
HETATM   15  O   UNL     1     -10.267   8.966  66.247  1.00  0.00    -0.284 OA 
ENDBRANCH   4  11
TORSDOF 1
ENDMDL
MODEL      158
REMARK 921   NORMALIZED FREE ENERGY PREDICTED BY IDOCK:   -2.40 KCAL/MOL
REMARK 922        TOTAL FREE ENERGY PREDICTED BY IDOCK:   -2.72 KCAL/MOL
REMARK 923 INTER-LIGAND FREE ENERGY PREDICTED BY IDOCK:   -3.65 KCAL/MOL
REMARK 924 INTRA-LIGAND FREE ENERGY PREDICTED BY IDOCK:    0.93 KCAL/MOL
REMARK 927      BINDING AFFINITY PREDICTED BY RF-SCORE:    0.00 PKD
ROOT
HETATM    1  F   UNL     1      -6.649  15.339  68.898  1.00  0.00    -0.099 F  
HETATM    2  C   UNL     1      -7.569  15.519  67.932  1.00  0.00    -0.133 C  
HETATM    3  C   UNL     1      -8.131  14.503  67.278  1.00  0.00    -0.196 C  
HETATM    4  N   UNL     1      -9.074  14.711  66.286  1.00  0.00    -0.217 N  
HETATM    5  C   UNL     1      -9.452  15.993  65.896  1.00  0.00    -0.316 C  
HETATM    6  O   UNL     1      -7.458  17.881  68.157  1.00  0.00    -0.233 OA 
HETATM    7  O   UNL     1     -10.229  16.232  64.976  1.00  0.00    -0.553 OA 
HETATM    8  H   UNL     1      -9.198  17.966  66.378  1.00  0.00     0.000 HD 
HETATM    9  N   UNL     1      -8.888  17.023  66.609  1.00  0.00    -0.239 N  
HETATM   10  C   UNL     1      -7.950  16.907  67.600  1.00  0.00    -0.174 C  
ENDROOT
BRANCH   4  11
HETATM   11  C   UNL     1      -9.682  13.599  65.572  1.00  0.00    -0.059 C  
HETATM   12  C   UNL     1     -10.602  12.745  66.431  1.00  0.00    -0.273 C  
HETATM   13  C   UNL     1     -11.434  12.064  65.373  1.00  0.00    -0.361 C  
HETATM   14  C   UNL     1     -11.605  13.159  64.338  1.00  0.00    -0.377 C  
HETATM   15  O   UNL     1     -10.494  14.059  64.476  1.00  0.00    -0.424 OA 
ENDBRANCH   4  11
TORSDOF 1
ENDMDL
MODEL      159
REMARK 921   NORMALIZED FREE ENERGY PREDICTED BY IDOCK:   -2.39 KCAL/MOL
REMARK 922        TOTAL FREE ENERGY PREDICTED BY IDOCK:   -2.72 KCAL/MOL
REMARK 923 INTER-LIGAND FREE ENERGY PREDICTED BY IDOCK:   -2.53 KCAL/MOL
REMARK 924 INTRA-LIGAND FREE ENERGY PREDICTED BY IDOCK:   -0.19 KCAL/MOL
REMARK 927      BINDING AFFINITY PREDICTED BY RF-SCORE:    0.00 PKD
ROOT
HETATM    1  F   UNL     1     -11.489   6.136  70.101  1.00  0.00    -0.405 F  
HETATM    2  C   UNL     1     -10.540   7.080  70.239  1.00  0.00    -0.226 C  
HETATM    3  C   UNL     1      -9.604   7.297  69.316  1.00  0.00    -0.156 C  
HETATM    4  N   UNL     1      -8.635   8.272  69.479  1.00  0.00    -0.132 N  
HETATM    5  C   UNL     1      -8.568   9.047  70.633  1.00  0.00    -0.210 C  
HETATM    6  O   UNL     1     -11.382   7.730  72.363  1.00  0.00    -0.295 OA 
HETATM    7  O   UNL     1      -7.688   9.875  70.856  1.00  0.00    -0.269 OA 
HETATM    8  H   UNL     1      -9.566   9.433  72.378  1.00  0.00     0.000 HD 
HETATM    9  N   UNL     1      -9.564   8.832  71.553  1.00  0.00    -0.258 N  
HETATM   10  C   UNL     1     -10.556   7.891  71.473  1.00  0.00    -0.222 C  
ENDROOT
BRANCH   4  11
HETATM   11  C   UNL     1      -7.613   8.502  68.470  1.00  0.00    -0.095 C  
HETATM   12  C   UNL     1      -6.456   7.516  68.529  1.00  0.00    -0.045 C  
HETATM   13  C   UNL     1      -5.884   7.658  67.141  1.00  0.00    -0.040 C  
HETATM   14  C   UNL     1      -7.128   7.839  66.293  1.00  0.00    -0.070 C  
HETATM   15  O   UNL     1      -8.151   8.386  67.140  1.00  0.00    -0.103 OA 
ENDBRANCH   4  11
TORSDOF 1
ENDMDL
MODEL      160
REMARK 921   NORMALIZED FREE ENERGY PREDICTED BY IDOCK:   -2.33 KCAL/MOL
REMARK 922        TOTAL FREE ENERGY PREDICTED BY IDOCK:   -2.65 KCAL/MOL
REMARK 923 INTER-LIGAND FREE ENERGY PREDICTED BY IDOCK:   -2.45 KCAL/MOL
REMARK 924 INTRA-LIGAND FREE ENERGY PREDICTED BY IDOCK:   -0.20 KCAL/MOL
REMARK 927      BINDING AFFINITY PREDICTED BY RF-SCORE:    0.00 PKD
ROOT
HETATM    1  F   UNL     1      -9.189  15.909  66.739  1.00  0.00    -0.209 F  
HETATM    2  C   UNL     1      -8.519  14.816  67.147  1.00  0.00    -0.223 C  
HETATM    3  C   UNL     1      -9.132  13.677  67.470  1.00  0.00    -0.213 C  
HETATM    4  N   UNL     1      -8.424  12.565  67.890  1.00  0.00    -0.161 N  
HETATM    5  C   UNL     1      -7.040  12.593  68.034  1.00  0.00    -0.103 C  
HETATM    6  O   UNL     1      -6.429  15.931  66.968  1.00  0.00    -0.291 OA 
HETATM    7  O   UNL     1      -6.373  11.657  68.470  1.00  0.00    -0.050 OA 
HETATM    8  H   UNL     1      -5.407  13.783  67.703  1.00  0.00     0.000 HD 
HETATM    9  N   UNL     1      -6.426  13.764  67.661  1.00  0.00    -0.170 N  
HETATM   10  C   UNL     1      -7.048  14.908  67.238  1.00  0.00    -0.068 C  
ENDROOT
BRANCH   4  11
HETATM   11  C   UNL     1      -9.098  11.325  68.245  1.00  0.00    -0.173 C  
HETATM   12  C   UNL     1     -10.340  11.523  69.101  1.00  0.00    -0.086 C  
HETATM   13  C   UNL     1     -11.063  10.220  68.866  1.00  0.00    -0.278 C  
HETATM   14  C   UNL     1     -10.771   9.946  67.403  1.00  0.00    -0.260 C  
HETATM   15  O   UNL     1      -9.544  10.616  67.075  1.00  0.00    -0.165 OA 
ENDBRANCH   4  11
TORSDOF 1
ENDMDL
MODEL      161
REMARK 921   NORMALIZED FREE ENERGY PREDICTED BY IDOCK:   -2.27 KCAL/MOL
REMARK 922        TOTAL FREE ENERGY PREDICTED BY IDOCK:   -2.59 KCAL/MOL
REMARK 923 INTER-LIGAND FREE ENERGY PREDICTED BY IDOCK:   -3.04 KCAL/MOL
REMARK 924 INTRA-LIGAND FREE ENERGY PREDICTED BY IDOCK:    0.44 KCAL/MOL
REMARK 927      BINDING AFFINITY PREDICTED BY RF-SCORE:    0.00 PKD
ROOT
HETATM    1  F   UNL     1     -12.736  14.308  69.180  1.00  0.00    -0.238 F  
HETATM    2  C   UNL     1     -11.532  14.582  68.646  1.00  0.00    -0.293 C  
HETATM    3  C   UNL     1     -10.439  14.750  69.390  1.00  0.00    -0.199 C  
HETATM    4  N   UNL     1      -9.210  15.034  68.821  1.00  0.00    -0.194 N  
HETATM    5  C   UNL     1      -9.063  15.197  67.446  1.00  0.00    -0.191 C  
HETATM    6  O   UNL     1     -12.417  14.571  66.442  1.00  0.00    -0.315 OA 
HETATM    7  O   UNL     1      -8.011  15.518  66.899  1.00  0.00    -0.224 OA 
HETATM    8  H   UNL     1     -10.092  15.039  65.684  1.00  0.00     0.000 HD 
HETATM    9  N   UNL     1     -10.194  14.983  66.697  1.00  0.00    -0.262 N  
HETATM   10  C   UNL     1     -11.445  14.701  67.177  1.00  0.00    -0.368 C  
ENDROOT
BRANCH   4  11
HETATM   11  C   UNL     1      -8.020  15.220  69.637  1.00  0.00    -0.130 C  
HETATM   12  C   UNL     1      -6.912  14.218  69.348  1.00  0.00    -0.106 C  
HETATM   13  C   UNL     1      -5.715  14.942  69.910  1.00  0.00    -0.116 C  
HETATM   14  C   UNL     1      -6.009  16.386  69.550  1.00  0.00    -0.176 C  
HETATM   15  O   UNL     1      -7.433  16.516  69.423  1.00  0.00    -0.223 OA 
ENDBRANCH   4  11
TORSDOF 1
ENDMDL
MODEL      162
REMARK 921   NORMALIZED FREE ENERGY PREDICTED BY IDOCK:   -2.18 KCAL/MOL
REMARK 922        TOTAL FREE ENERGY PREDICTED BY IDOCK:   -2.49 KCAL/MOL
REMARK 923 INTER-LIGAND FREE ENERGY PREDICTED BY IDOCK:   -2.29 KCAL/MOL
REMARK 924 INTRA-LIGAND FREE ENERGY PREDICTED BY IDOCK:   -0.20 KCAL/MOL
REMARK 927      BINDING AFFINITY PREDICTED BY RF-SCORE:    0.00 PKD
ROOT
HETATM    1  F   UNL     1      -7.944  11.877  67.040  1.00  0.00    -0.143 F  
HETATM    2  C   UNL     1      -7.982  10.851  67.910  1.00  0.00    -0.111 C  
HETATM    3  C   UNL     1      -8.640   9.720  67.657  1.00  0.00    -0.125 C  
HETATM    4  N   UNL     1      -8.669   8.678  68.567  1.00  0.00    -0.138 N  
HETATM    5  C   UNL     1      -8.046   8.776  69.808  1.00  0.00    -0.111 C  
HETATM    6  O   UNL     1      -6.656  12.033  69.487  1.00  0.00    -0.116 OA 
HETATM    7  O   UNL     1      -8.102   7.909  70.677  1.00  0.00    -0.098 OA 
HETATM    8  H   UNL     1      -6.833  10.000  70.912  1.00  0.00     0.000 HD 
HETATM    9  N   UNL     1      -7.345   9.935  70.033  1.00  0.00    -0.140 N  
HETATM   10  C   UNL     1      -7.266  11.012  69.191  1.00  0.00    -0.121 C  
ENDROOT
BRANCH   4  11
HETATM   11  C   UNL     1      -9.391   7.446  68.287  1.00  0.00    -0.140 C  
HETATM   12  C   UNL     1     -10.622   7.638  67.414  1.00  0.00    -0.356 C  
HETATM   13  C   UNL     1     -10.827   6.238  66.892  1.00  0.00    -0.428 C  
HETATM   14  C   UNL     1      -9.403   5.755  66.690  1.00  0.00    -0.146 C  
HETATM   15  O   UNL     1      -8.564   6.500  67.585  1.00  0.00    -0.117 OA 
ENDBRANCH   4  11
TORSDOF 1
ENDMDL
MODEL      163
REMARK 921   NORMALIZED FREE ENERGY PREDICTED BY IDOCK:   -2.16 KCAL/MOL
REMARK 922        TOTAL FREE ENERGY PREDICTED BY IDOCK:   -2.48 KCAL/MOL
REMARK 923 INTER-LIGAND FREE ENERGY PREDICTED BY IDOCK:   -2.32 KCAL/MOL
REMARK 924 INTRA-LIGAND FREE ENERGY PREDICTED BY IDOCK:   -0.16 KCAL/MOL
REMARK 927      BINDING AFFINITY PREDICTED BY RF-SCORE:    0.00 PKD
ROOT
HETATM    1  F   UNL     1     -11.740  10.527  67.758  1.00  0.00    -0.364 F  
HETATM    2  C   UNL     1     -10.597   9.908  67.410  1.00  0.00    -0.277 C  
HETATM    3  C   UNL     1      -9.995   9.018  68.199  1.00  0.00    -0.175 C  
HETATM    4  N   UNL     1      -8.818   8.394  67.823  1.00  0.00    -0.137 N  
HETATM    5  C   UNL     1      -8.186   8.694  66.620  1.00  0.00    -0.107 C  
HETATM    6  O   UNL     1     -10.504  11.067  65.339  1.00  0.00    -0.266 OA 
HETATM    7  O   UNL     1      -7.106   8.222  66.273  1.00  0.00    -0.068 OA 
HETATM    8  H   UNL     1      -8.425   9.772  64.896  1.00  0.00     0.000 HD 
HETATM    9  N   UNL     1      -8.843   9.585  65.808  1.00  0.00    -0.152 N  
HETATM   10  C   UNL     1     -10.005  10.248  66.101  1.00  0.00    -0.238 C  
ENDROOT
BRANCH   4  11
HETATM   11  C   UNL     1      -8.162   7.427  68.689  1.00  0.00    -0.125 C  
HETATM   12  C   UNL     1      -7.180   8.046  69.673  1.00  0.00    -0.066 C  
HETATM   13  C   UNL     1      -7.081   6.955  70.708  1.00  0.00    -0.068 C  
HETATM   14  C   UNL     1      -8.502   6.427  70.762  1.00  0.00    -0.135 C  
HETATM   15  O   UNL     1      -9.115   6.711  69.495  1.00  0.00    -0.143 OA 
ENDBRANCH   4  11
TORSDOF 1
ENDMDL
MODEL      164
REMARK 921   NORMALIZED FREE ENERGY PREDICTED BY IDOCK:   -2.13 KCAL/MOL
REMARK 922        TOTAL FREE ENERGY PREDICTED BY IDOCK:   -2.44 KCAL/MOL
REMARK 923 INTER-LIGAND FREE ENERGY PREDICTED BY IDOCK:   -2.24 KCAL/MOL
REMARK 924 INTRA-LIGAND FREE ENERGY PREDICTED BY IDOCK:   -0.20 KCAL/MOL
REMARK 927      BINDING AFFINITY PREDICTED BY RF-SCORE:    0.00 PKD
ROOT
HETATM    1  F   UNL     1      -9.328   9.143  71.358  1.00  0.00    -0.292 F  
HETATM    2  C   UNL     1      -8.616   8.783  70.275  1.00  0.00    -0.152 C  
HETATM    3  C   UNL     1      -9.001   7.804  69.456  1.00  0.00    -0.142 C  
HETATM    4  N   UNL     1      -8.253   7.448  68.347  1.00  0.00    -0.124 N  
HETATM    5  C   UNL     1      -7.041   8.067  68.056  1.00  0.00    -0.086 C  
HETATM    6  O   UNL     1      -6.947  10.410  70.730  1.00  0.00    -0.313 OA 
HETATM    7  O   UNL     1      -6.307   7.741  67.127  1.00  0.00    -0.051 OA 
HETATM    8  H   UNL     1      -5.827   9.601  68.659  1.00  0.00     0.000 HD 
HETATM    9  N   UNL     1      -6.682   9.096  68.892  1.00  0.00    -0.052 N  
HETATM   10  C   UNL     1      -7.360   9.511  70.007  1.00  0.00    -0.115 C  
ENDROOT
BRANCH   4  11
HETATM   11  C   UNL     1      -8.676   6.377  67.459  1.00  0.00    -0.113 C  
HETATM   12  C   UNL     1      -9.049   5.090  68.179  1.00  0.00    -0.131 C  
HETATM   13  C   UNL     1      -9.894   4.408  67.133  1.00  0.00    -0.217 C  
HETATM   14  C   UNL     1     -10.641   5.571  66.509  1.00  0.00    -0.279 C  
HETATM   15  O   UNL     1      -9.845   6.749  66.705  1.00  0.00    -0.172 OA 
ENDBRANCH   4  11
TORSDOF 1
ENDMDL
MODEL      165
REMARK 921   NORMALIZED FREE ENERGY PREDICTED BY IDOCK:   -2.12 KCAL/MOL
REMARK 922        TOTAL FREE ENERGY PREDICTED BY IDOCK:   -2.43 KCAL/MOL
REMARK 923 INTER-LIGAND FREE ENERGY PREDICTED BY IDOCK:   -2.25 KCAL/MOL
REMARK 924 INTRA-LIGAND FREE ENERGY PREDICTED BY IDOCK:   -0.17 KCAL/MOL
REMARK 927      BINDING AFFINITY PREDICTED BY RF-SCORE:    0.00 PKD
ROOT
HETATM    1  F   UNL     1      -8.234  13.930  67.471  1.00  0.00    -0.141 F  
HETATM    2  C   UNL     1      -7.780  12.958  68.283  1.00  0.00    -0.137 C  
HETATM    3  C   UNL     1      -8.417  11.797  68.438  1.00  0.00    -0.155 C  
HETATM    4  N   UNL     1      -7.934  10.811  69.280  1.00  0.00    -0.135 N  
HETATM    5  C   UNL     1      -6.781  10.999  70.037  1.00  0.00    -0.094 C  
HETATM    6  O   UNL     1      -5.906  14.264  68.933  1.00  0.00    -0.083 OA 
HETATM    7  O   UNL     1      -6.351  10.184  70.850  1.00  0.00    -0.245 OA 
HETATM    8  H   UNL     1      -5.243  12.316  70.334  1.00  0.00     0.000 HD 
HETATM    9  N   UNL     1      -6.122  12.186  69.833  1.00  0.00    -0.145 N  
HETATM   10  C   UNL     1      -6.529  13.212  69.024  1.00  0.00    -0.103 C  
ENDROOT
BRANCH   4  11
HETATM   11  C   UNL     1      -8.635   9.547  69.449  1.00  0.00    -0.159 C  
HETATM   12  C   UNL     1      -9.731   9.587  70.503  1.00  0.00    -0.325 C  
HETATM   13  C   UNL     1     -10.565   8.398  70.097  1.00  0.00    -0.235 C  
HETATM   14  C   UNL     1     -10.497   8.455  68.583  1.00  0.00    -0.166 C  
HETATM   15  O   UNL     1      -9.285   9.140  68.231  1.00  0.00    -0.132 OA 
ENDBRANCH   4  11
TORSDOF 1
ENDMDL
MODEL      166
REMARK 921   NORMALIZED FREE ENERGY PREDICTED BY IDOCK:   -2.10 KCAL/MOL
REMARK 922        TOTAL FREE ENERGY PREDICTED BY IDOCK:   -2.41 KCAL/MOL
REMARK 923 INTER-LIGAND FREE ENERGY PREDICTED BY IDOCK:   -2.20 KCAL/MOL
REMARK 924 INTRA-LIGAND FREE ENERGY PREDICTED BY IDOCK:   -0.20 KCAL/MOL
REMARK 927      BINDING AFFINITY PREDICTED BY RF-SCORE:    0.00 PKD
ROOT
HETATM    1  F   UNL     1     -10.123   8.218  71.474  1.00  0.00    -0.209 F  
HETATM    2  C   UNL     1      -9.296   7.400  72.151  1.00  0.00    -0.135 C  
HETATM    3  C   UNL     1      -9.632   6.154  72.482  1.00  0.00    -0.143 C  
HETATM    4  N   UNL     1      -8.768   5.329  73.180  1.00  0.00    -0.120 N  
HETATM    5  C   UNL     1      -7.520   5.775  73.606  1.00  0.00    -0.090 C  
HETATM    6  O   UNL     1      -7.612   9.070  72.273  1.00  0.00    -0.344 OA 
HETATM    7  O   UNL     1      -6.746   5.108  74.289  1.00  0.00    -0.072 OA 
HETATM    8  H   UNL     1      -6.246   7.372  73.475  1.00  0.00     0.000 HD 
HETATM    9  N   UNL     1      -7.180   7.049  73.223  1.00  0.00    -0.073 N  
HETATM   10  C   UNL     1      -7.972   7.929  72.536  1.00  0.00    -0.120 C  
ENDROOT
BRANCH   4  11
HETATM   11  C   UNL     1      -9.141   3.970  73.542  1.00  0.00    -0.102 C  
HETATM   12  C   UNL     1     -10.542   3.851  74.123  1.00  0.00    -0.278 C  
HETATM   13  C   UNL     1     -10.819   2.384  73.908  1.00  0.00    -0.269 C  
HETATM   14  C   UNL     1     -10.163   2.123  72.566  1.00  0.00    -0.156 C  
HETATM   15  O   UNL     1      -9.122   3.098  72.397  1.00  0.00    -0.092 OA 
ENDBRANCH   4  11
TORSDOF 1
ENDMDL
MODEL      167
REMARK 921   NORMALIZED FREE ENERGY PREDICTED BY IDOCK:   -2.03 KCAL/MOL
REMARK 922        TOTAL FREE ENERGY PREDICTED BY IDOCK:   -2.34 KCAL/MOL
REMARK 923 INTER-LIGAND FREE ENERGY PREDICTED BY IDOCK:   -3.40 KCAL/MOL
REMARK 924 INTRA-LIGAND FREE ENERGY PREDICTED BY IDOCK:    1.05 KCAL/MOL
REMARK 927      BINDING AFFINITY PREDICTED BY RF-SCORE:    0.00 PKD
ROOT
HETATM    1  F   UNL     1      -7.857  10.404  68.431  1.00  0.00    -0.093 F  
HETATM    2  C   UNL     1      -8.325  10.486  67.172  1.00  0.00    -0.127 C  
HETATM    3  C   UNL     1      -9.195  11.421  66.790  1.00  0.00    -0.177 C  
HETATM    4  N   UNL     1      -9.666  11.487  65.491  1.00  0.00    -0.225 N  
HETATM    5  C   UNL     1      -9.284  10.556  64.529  1.00  0.00    -0.240 C  
HETATM    6  O   UNL     1      -7.058   8.597  66.491  1.00  0.00    -0.077 OA 
HETATM    7  O   UNL     1      -9.727  10.529  63.383  1.00  0.00    -0.307 OA 
HETATM    8  H   UNL     1      -8.024   8.972  64.227  1.00  0.00     0.000 HD 
HETATM    9  N   UNL     1      -8.360   9.625  64.935  1.00  0.00    -0.138 N  
HETATM   10  C   UNL     1      -7.846   9.488  66.196  1.00  0.00    -0.100 C  
ENDROOT
BRANCH   4  11
HETATM   11  C   UNL     1     -10.618  12.507  65.079  1.00  0.00    -0.300 C  
HETATM   12  C   UNL     1     -10.770  12.635  63.571  1.00  0.00    -0.337 C  
HETATM   13  C   UNL     1     -12.107  13.327  63.473  1.00  0.00    -0.550 C  
HETATM   14  C   UNL     1     -12.888  12.686  64.604  1.00  0.00    -0.275 C  
HETATM   15  O   UNL     1     -11.938  12.226  65.578  1.00  0.00    -0.449 OA 
ENDBRANCH   4  11
TORSDOF 1
ENDMDL
MODEL      168
REMARK 921   NORMALIZED FREE ENERGY PREDICTED BY IDOCK:   -1.99 KCAL/MOL
REMARK 922        TOTAL FREE ENERGY PREDICTED BY IDOCK:   -2.29 KCAL/MOL
REMARK 923 INTER-LIGAND FREE ENERGY PREDICTED BY IDOCK:   -2.11 KCAL/MOL
REMARK 924 INTRA-LIGAND FREE ENERGY PREDICTED BY IDOCK:   -0.18 KCAL/MOL
REMARK 927      BINDING AFFINITY PREDICTED BY RF-SCORE:    0.00 PKD
ROOT
HETATM    1  F   UNL     1     -10.867  10.380  69.228  1.00  0.00    -0.191 F  
HETATM    2  C   UNL     1     -10.039   9.948  68.259  1.00  0.00    -0.161 C  
HETATM    3  C   UNL     1     -10.007   8.678  67.856  1.00  0.00    -0.188 C  
HETATM    4  N   UNL     1      -9.146   8.254  66.859  1.00  0.00    -0.143 N  
HETATM    5  C   UNL     1      -8.242   9.125  66.257  1.00  0.00    -0.111 C  
HETATM    6  O   UNL     1      -9.109  12.115  67.977  1.00  0.00    -0.177 OA 
HETATM    7  O   UNL     1      -7.410   8.784  65.420  1.00  0.00    -0.083 OA 
HETATM    8  H   UNL     1      -7.705  11.100  66.189  1.00  0.00     0.000 HD 
HETATM    9  N   UNL     1      -8.318  10.436  66.662  1.00  0.00    -0.125 N  
HETATM   10  C   UNL     1      -9.136  10.938  67.639  1.00  0.00    -0.148 C  
ENDROOT
BRANCH   4  11
HETATM   11  C   UNL     1      -9.112   6.866  66.424  1.00  0.00    -0.159 C  
HETATM   12  C   UNL     1      -8.230   5.973  67.283  1.00  0.00    -0.106 C  
HETATM   13  C   UNL     1      -8.783   4.611  66.946  1.00  0.00    -0.107 C  
HETATM   14  C   UNL     1     -10.268   4.886  66.817  1.00  0.00    -0.235 C  
HETATM   15  O   UNL     1     -10.422   6.270  66.467  1.00  0.00    -0.182 OA 
ENDBRANCH   4  11
TORSDOF 1
ENDMDL
MODEL      169
REMARK 921   NORMALIZED FREE ENERGY PREDICTED BY IDOCK:   -1.94 KCAL/MOL
REMARK 922        TOTAL FREE ENERGY PREDICTED BY IDOCK:   -2.24 KCAL/MOL
REMARK 923 INTER-LIGAND FREE ENERGY PREDICTED BY IDOCK:   -2.69 KCAL/MOL
REMARK 924 INTRA-LIGAND FREE ENERGY PREDICTED BY IDOCK:    0.46 KCAL/MOL
REMARK 927      BINDING AFFINITY PREDICTED BY RF-SCORE:    0.00 PKD
ROOT
HETATM    1  F   UNL     1     -12.080   8.477  72.918  1.00  0.00    -0.440 F  
HETATM    2  C   UNL     1     -11.379   7.473  72.358  1.00  0.00    -0.312 C  
HETATM    3  C   UNL     1     -11.084   6.351  73.015  1.00  0.00    -0.200 C  
HETATM    4  N   UNL     1     -10.361   5.332  72.422  1.00  0.00    -0.201 N  
HETATM    5  C   UNL     1      -9.871   5.445  71.124  1.00  0.00    -0.185 C  
HETATM    6  O   UNL     1     -11.154   8.661  70.314  1.00  0.00    -0.247 OA 
HETATM    7  O   UNL     1      -9.165   4.600  70.578  1.00  0.00    -0.116 OA 
HETATM    8  H   UNL     1      -9.919   6.666  69.482  1.00  0.00     0.000 HD 
HETATM    9  N   UNL     1     -10.218   6.592  70.454  1.00  0.00    -0.187 N  
HETATM   10  C   UNL     1     -10.926   7.648  70.964  1.00  0.00    -0.248 C  
ENDROOT
BRANCH   4  11
HETATM   11  C   UNL     1     -10.038   4.111  73.144  1.00  0.00    -0.146 C  
HETATM   12  C   UNL     1     -10.403   2.838  72.394  1.00  0.00    -0.163 C  
HETATM   13  C   UNL     1      -9.525   1.830  73.094  1.00  0.00    -0.099 C  
HETATM   14  C   UNL     1      -8.260   2.625  73.354  1.00  0.00    -0.063 C  
HETATM   15  O   UNL     1      -8.627   4.012  73.408  1.00  0.00    -0.088 OA 
ENDBRANCH   4  11
TORSDOF 1
ENDMDL
MODEL      170
REMARK 921   NORMALIZED FREE ENERGY PREDICTED BY IDOCK:   -1.89 KCAL/MOL
REMARK 922        TOTAL FREE ENERGY PREDICTED BY IDOCK:   -2.19 KCAL/MOL
REMARK 923 INTER-LIGAND FREE ENERGY PREDICTED BY IDOCK:   -2.02 KCAL/MOL
REMARK 924 INTRA-LIGAND FREE ENERGY PREDICTED BY IDOCK:   -0.18 KCAL/MOL
REMARK 927      BINDING AFFINITY PREDICTED BY RF-SCORE:    0.00 PKD
ROOT
HETATM    1  F   UNL     1      -8.927   4.898  67.244  1.00  0.00    -0.111 F  
HETATM    2  C   UNL     1      -8.569   6.071  67.798  1.00  0.00    -0.106 C  
HETATM    3  C   UNL     1      -9.066   7.238  67.390  1.00  0.00    -0.121 C  
HETATM    4  N   UNL     1      -8.683   8.434  67.972  1.00  0.00    -0.138 N  
HETATM    5  C   UNL     1      -7.730   8.478  68.986  1.00  0.00    -0.096 C  
HETATM    6  O   UNL     1      -7.080   4.997  69.305  1.00  0.00    -0.053 OA 
HETATM    7  O   UNL     1      -7.305   9.517  69.486  1.00  0.00    -0.066 OA 
HETATM    8  H   UNL     1      -6.605   7.272  70.198  1.00  0.00     0.000 HD 
HETATM    9  N   UNL     1      -7.259   7.262  69.415  1.00  0.00    -0.082 N  
HETATM   10  C   UNL     1      -7.582   6.037  68.896  1.00  0.00    -0.091 C  
ENDROOT
BRANCH   4  11
HETATM   11  C   UNL     1      -9.225   9.706  67.521  1.00  0.00    -0.133 C  
HETATM   12  C   UNL     1      -9.814   9.662  66.119  1.00  0.00    -0.334 C  
HETATM   13  C   UNL     1     -10.709  10.875  66.143  1.00  0.00    -0.225 C  
HETATM   14  C   UNL     1     -11.249  10.853  67.560  1.00  0.00    -0.293 C  
HETATM   15  O   UNL     1     -10.295  10.154  68.374  1.00  0.00    -0.167 OA 
ENDBRANCH   4  11
TORSDOF 1
ENDMDL
MODEL      171
REMARK 921   NORMALIZED FREE ENERGY PREDICTED BY IDOCK:   -1.89 KCAL/MOL
REMARK 922        TOTAL FREE ENERGY PREDICTED BY IDOCK:   -2.19 KCAL/MOL
REMARK 923 INTER-LIGAND FREE ENERGY PREDICTED BY IDOCK:   -2.01 KCAL/MOL
REMARK 924 INTRA-LIGAND FREE ENERGY PREDICTED BY IDOCK:   -0.18 KCAL/MOL
REMARK 927      BINDING AFFINITY PREDICTED BY RF-SCORE:    0.00 PKD
ROOT
HETATM    1  F   UNL     1      -8.108   9.238  63.190  1.00  0.00    -0.129 F  
HETATM    2  C   UNL     1      -7.799   9.288  64.499  1.00  0.00    -0.118 C  
HETATM    3  C   UNL     1      -8.543   8.697  65.434  1.00  0.00    -0.181 C  
HETATM    4  N   UNL     1      -8.210   8.762  66.775  1.00  0.00    -0.107 N  
HETATM    5  C   UNL     1      -7.103   9.481  67.217  1.00  0.00    -0.086 C  
HETATM    6  O   UNL     1      -5.872  10.610  64.077  1.00  0.00    -0.110 OA 
HETATM    7  O   UNL     1      -6.804   9.627  68.400  1.00  0.00    -0.060 OA 
HETATM    8  H   UNL     1      -5.482  10.530  66.535  1.00  0.00     0.000 HD 
HETATM    9  N   UNL     1      -6.331  10.050  66.234  1.00  0.00    -0.075 N  
HETATM   10  C   UNL     1      -6.588  10.036  64.889  1.00  0.00    -0.126 C  
ENDROOT
BRANCH   4  11
HETATM   11  C   UNL     1      -9.027   8.119  67.793  1.00  0.00    -0.132 C  
HETATM   12  C   UNL     1     -10.451   7.828  67.345  1.00  0.00    -0.362 C  
HETATM   13  C   UNL     1     -10.852   6.761  68.332  1.00  0.00    -0.284 C  
HETATM   14  C   UNL     1      -9.569   5.967  68.492  1.00  0.00    -0.121 C  
HETATM   15  O   UNL     1      -8.477   6.846  68.181  1.00  0.00    -0.124 OA 
ENDBRANCH   4  11
TORSDOF 1
ENDMDL
MODEL      172
REMARK 921   NORMALIZED FREE ENERGY PREDICTED BY IDOCK:   -1.87 KCAL/MOL
REMARK 922        TOTAL FREE ENERGY PREDICTED BY IDOCK:   -2.17 KCAL/MOL
REMARK 923 INTER-LIGAND FREE ENERGY PREDICTED BY IDOCK:   -2.02 KCAL/MOL
REMARK 924 INTRA-LIGAND FREE ENERGY PREDICTED BY IDOCK:   -0.15 KCAL/MOL
REMARK 927      BINDING AFFINITY PREDICTED BY RF-SCORE:    0.00 PKD
ROOT
HETATM    1  F   UNL     1      -9.757   8.443  72.396  1.00  0.00    -0.276 F  
HETATM    2  C   UNL     1      -9.581   7.744  71.260  1.00  0.00    -0.157 C  
HETATM    3  C   UNL     1      -9.493   6.414  71.242  1.00  0.00    -0.166 C  
HETATM    4  N   UNL     1      -9.311   5.714  70.062  1.00  0.00    -0.146 N  
HETATM    5  C   UNL     1      -9.169   6.368  68.841  1.00  0.00    -0.128 C  
HETATM    6  O   UNL     1      -9.539   9.726  69.952  1.00  0.00    -0.211 OA 
HETATM    7  O   UNL     1      -8.935   5.798  67.778  1.00  0.00    -0.110 OA 
HETATM    8  H   UNL     1      -9.259   8.225  67.985  1.00  0.00     0.000 HD 
HETATM    9  N   UNL     1      -9.300   7.734  68.878  1.00  0.00    -0.147 N  
HETATM   10  C   UNL     1      -9.479   8.503  69.997  1.00  0.00    -0.164 C  
ENDROOT
BRANCH   4  11
HETATM   11  C   UNL     1      -9.212   4.263  70.048  1.00  0.00    -0.137 C  
HETATM   12  C   UNL     1      -7.792   3.741  70.210  1.00  0.00    -0.047 C  
HETATM   13  C   UNL     1      -8.055   2.328  70.667  1.00  0.00    -0.054 C  
HETATM   14  C   UNL     1      -9.270   2.495  71.559  1.00  0.00    -0.110 C  
HETATM   15  O   UNL     1      -9.965   3.674  71.124  1.00  0.00    -0.167 OA 
ENDBRANCH   4  11
TORSDOF 1
ENDMDL
MODEL      173
REMARK 921   NORMALIZED FREE ENERGY PREDICTED BY IDOCK:   -1.81 KCAL/MOL
REMARK 922        TOTAL FREE ENERGY PREDICTED BY IDOCK:   -2.10 KCAL/MOL
REMARK 923 INTER-LIGAND FREE ENERGY PREDICTED BY IDOCK:   -1.91 KCAL/MOL
REMARK 924 INTRA-LIGAND FREE ENERGY PREDICTED BY IDOCK:   -0.20 KCAL/MOL
REMARK 927      BINDING AFFINITY PREDICTED BY RF-SCORE:    0.00 PKD
ROOT
HETATM    1  F   UNL     1      -9.573  11.151  64.224  1.00  0.00    -0.231 F  
HETATM    2  C   UNL     1      -9.178  10.963  65.497  1.00  0.00    -0.209 C  
HETATM    3  C   UNL     1      -8.884  11.974  66.313  1.00  0.00    -0.075 C  
HETATM    4  N   UNL     1      -8.478  11.759  67.619  1.00  0.00    -0.142 N  
HETATM    5  C   UNL     1      -8.319  10.475  68.130  1.00  0.00    -0.119 C  
HETATM    6  O   UNL     1      -9.313   8.602  65.275  1.00  0.00    -0.067 OA 
HETATM    7  O   UNL     1      -7.894  10.230  69.257  1.00  0.00    -0.115 OA 
HETATM    8  H   UNL     1      -8.609   8.503  67.662  1.00  0.00     0.000 HD 
HETATM    9  N   UNL     1      -8.662   9.449  67.284  1.00  0.00    -0.128 N  
HETATM   10  C   UNL     1      -9.070   9.573  65.983  1.00  0.00    -0.176 C  
ENDROOT
BRANCH   4  11
HETATM   11  C   UNL     1      -8.155  12.866  68.505  1.00  0.00    -0.080 C  
HETATM   12  C   UNL     1      -6.776  13.464  68.267  1.00  0.00    -0.105 C  
HETATM   13  C   UNL     1      -6.934  14.820  68.908  1.00  0.00    -0.110 C  
HETATM   14  C   UNL     1      -8.363  15.183  68.552  1.00  0.00    -0.158 C  
HETATM   15  O   UNL     1      -9.080  13.957  68.345  1.00  0.00    -0.192 OA 
ENDBRANCH   4  11
TORSDOF 1
ENDMDL
MODEL      174
REMARK 921   NORMALIZED FREE ENERGY PREDICTED BY IDOCK:   -1.81 KCAL/MOL
REMARK 922        TOTAL FREE ENERGY PREDICTED BY IDOCK:   -2.10 KCAL/MOL
REMARK 923 INTER-LIGAND FREE ENERGY PREDICTED BY IDOCK:   -1.90 KCAL/MOL
REMARK 924 INTRA-LIGAND FREE ENERGY PREDICTED BY IDOCK:   -0.20 KCAL/MOL
REMARK 927      BINDING AFFINITY PREDICTED BY RF-SCORE:    0.00 PKD
ROOT
HETATM    1  F   UNL     1     -11.256   6.700  67.227  1.00  0.00    -0.396 F  
HETATM    2  C   UNL     1     -10.369   5.695  67.347  1.00  0.00    -0.230 C  
HETATM    3  C   UNL     1      -9.545   5.586  68.390  1.00  0.00    -0.124 C  
HETATM    4  N   UNL     1      -8.638   4.545  68.492  1.00  0.00    -0.092 N  
HETATM    5  C   UNL     1      -8.515   3.584  67.493  1.00  0.00    -0.096 C  
HETATM    6  O   UNL     1     -11.043   4.745  65.278  1.00  0.00    -0.126 OA 
HETATM    7  O   UNL     1      -7.679   2.684  67.503  1.00  0.00    -0.060 OA 
HETATM    8  H   UNL     1      -9.362   2.966  65.735  1.00  0.00     0.000 HD 
HETATM    9  N   UNL     1      -9.398   3.696  66.447  1.00  0.00    -0.179 N  
HETATM   10  C   UNL     1     -10.321   4.690  66.266  1.00  0.00    -0.255 C  
ENDROOT
BRANCH   4  11
HETATM   11  C   UNL     1      -7.739   4.432  69.630  1.00  0.00    -0.054 C  
HETATM   12  C   UNL     1      -7.092   5.747  70.037  1.00  0.00    -0.067 C  
HETATM   13  C   UNL     1      -6.680   5.440  71.455  1.00  0.00    -0.052 C  
HETATM   14  C   UNL     1      -7.831   4.585  71.949  1.00  0.00    -0.097 C  
HETATM   15  O   UNL     1      -8.430   3.963  70.802  1.00  0.00    -0.069 OA 
ENDBRANCH   4  11
TORSDOF 1
ENDMDL
MODEL      175
REMARK 921   NORMALIZED FREE ENERGY PREDICTED BY IDOCK:   -1.78 KCAL/MOL
REMARK 922        TOTAL FREE ENERGY PREDICTED BY IDOCK:   -2.07 KCAL/MOL
REMARK 923 INTER-LIGAND FREE ENERGY PREDICTED BY IDOCK:   -2.53 KCAL/MOL
REMARK 924 INTRA-LIGAND FREE ENERGY PREDICTED BY IDOCK:    0.46 KCAL/MOL
REMARK 927      BINDING AFFINITY PREDICTED BY RF-SCORE:    0.00 PKD
ROOT
HETATM    1  F   UNL     1      -9.137   9.338  63.313  1.00  0.00    -0.240 F  
HETATM    2  C   UNL     1      -8.854   9.482  64.620  1.00  0.00    -0.213 C  
HETATM    3  C   UNL     1      -9.765   9.300  65.576  1.00  0.00    -0.177 C  
HETATM    4  N   UNL     1      -9.454   9.456  66.915  1.00  0.00    -0.149 N  
HETATM    5  C   UNL     1      -8.185   9.851  67.327  1.00  0.00    -0.121 C  
HETATM    6  O   UNL     1      -6.599  10.060  64.151  1.00  0.00    -0.123 OA 
HETATM    7  O   UNL     1      -7.878  10.072  68.497  1.00  0.00    -0.090 OA 
HETATM    8  H   UNL     1      -6.302  10.228  66.618  1.00  0.00     0.000 HD 
HETATM    9  N   UNL     1      -7.253   9.998  66.329  1.00  0.00    -0.101 N  
HETATM   10  C   UNL     1      -7.476   9.865  64.985  1.00  0.00    -0.134 C  
ENDROOT
BRANCH   4  11
HETATM   11  C   UNL     1     -10.453   9.259  67.954  1.00  0.00    -0.236 C  
HETATM   12  C   UNL     1     -10.002   8.333  69.074  1.00  0.00    -0.193 C  
HETATM   13  C   UNL     1     -10.955   8.726  70.175  1.00  0.00    -0.236 C  
HETATM   14  C   UNL     1     -11.082  10.224  69.976  1.00  0.00    -0.311 C  
HETATM   15  O   UNL     1     -10.797  10.501  68.596  1.00  0.00    -0.206 OA 
ENDBRANCH   4  11
TORSDOF 1
ENDMDL
MODEL      176
REMARK 921   NORMALIZED FREE ENERGY PREDICTED BY IDOCK:   -1.72 KCAL/MOL
REMARK 922        TOTAL FREE ENERGY PREDICTED BY IDOCK:   -2.01 KCAL/MOL
REMARK 923 INTER-LIGAND FREE ENERGY PREDICTED BY IDOCK:   -2.49 KCAL/MOL
REMARK 924 INTRA-LIGAND FREE ENERGY PREDICTED BY IDOCK:    0.48 KCAL/MOL
REMARK 927      BINDING AFFINITY PREDICTED BY RF-SCORE:    0.00 PKD
ROOT
HETATM    1  F   UNL     1      -9.961  17.908  68.492  1.00  0.00    -0.298 F  
HETATM    2  C   UNL     1      -8.974  17.046  68.186  1.00  0.00    -0.227 C  
HETATM    3  C   UNL     1      -9.051  15.743  68.454  1.00  0.00    -0.188 C  
HETATM    4  N   UNL     1      -8.023  14.874  68.133  1.00  0.00    -0.123 N  
HETATM    5  C   UNL     1      -6.842  15.325  67.551  1.00  0.00    -0.189 C  
HETATM    6  O   UNL     1      -7.632  18.781  67.275  1.00  0.00    -0.221 OA 
HETATM    7  O   UNL     1      -5.874  14.607  67.311  1.00  0.00    -0.297 OA 
HETATM    8  H   UNL     1      -5.966  17.002  66.769  1.00  0.00     0.000 HD 
HETATM    9  N   UNL     1      -6.799  16.665  67.250  1.00  0.00    -0.159 N  
HETATM   10  C   UNL     1      -7.767  17.591  67.534  1.00  0.00    -0.198 C  
ENDROOT
BRANCH   4  11
HETATM   11  C   UNL     1      -8.110  13.452  68.430  1.00  0.00    -0.138 C  
HETATM   12  C   UNL     1      -8.220  12.570  67.195  1.00  0.00    -0.168 C  
HETATM   13  C   UNL     1      -7.778  11.240  67.751  1.00  0.00    -0.113 C  
HETATM   14  C   UNL     1      -6.681  11.639  68.719  1.00  0.00    -0.077 C  
HETATM   15  O   UNL     1      -6.941  12.990  69.132  1.00  0.00    -0.094 OA 
ENDBRANCH   4  11
TORSDOF 1
ENDMDL
MODEL      177
REMARK 921   NORMALIZED FREE ENERGY PREDICTED BY IDOCK:   -1.68 KCAL/MOL
REMARK 922        TOTAL FREE ENERGY PREDICTED BY IDOCK:   -1.97 KCAL/MOL
REMARK 923 INTER-LIGAND FREE ENERGY PREDICTED BY IDOCK:   -1.81 KCAL/MOL
REMARK 924 INTRA-LIGAND FREE ENERGY PREDICTED BY IDOCK:   -0.15 KCAL/MOL
REMARK 927      BINDING AFFINITY PREDICTED BY RF-SCORE:    0.00 PKD
ROOT
HETATM    1  F   UNL     1     -10.176   9.537  65.239  1.00  0.00    -0.350 F  
HETATM    2  C   UNL     1      -9.471   9.777  66.360  1.00  0.00    -0.184 C  
HETATM    3  C   UNL     1      -8.493   8.974  66.778  1.00  0.00    -0.119 C  
HETATM    4  N   UNL     1      -7.781   9.238  67.935  1.00  0.00    -0.088 N  
HETATM    5  C   UNL     1      -8.078  10.333  68.740  1.00  0.00    -0.120 C  
HETATM    6  O   UNL     1     -10.714  11.748  66.817  1.00  0.00    -0.231 OA 
HETATM    7  O   UNL     1      -7.525  10.572  69.811  1.00  0.00    -0.154 OA 
HETATM    8  H   UNL     1      -9.255  12.007  68.817  1.00  0.00     0.000 HD 
HETATM    9  N   UNL     1      -9.064  11.167  68.271  1.00  0.00    -0.156 N  
HETATM   10  C   UNL     1      -9.817  10.980  67.143  1.00  0.00    -0.184 C  
ENDROOT
BRANCH   4  11
HETATM   11  C   UNL     1      -6.716   8.356  68.389  1.00  0.00    -0.064 C  
HETATM   12  C   UNL     1      -7.192   7.236  69.302  1.00  0.00    -0.081 C  
HETATM   13  C   UNL     1      -6.052   6.256  69.173  1.00  0.00    -0.029 C  
HETATM   14  C   UNL     1      -5.669   6.392  67.712  1.00  0.00    -0.009 C  
HETATM   15  O   UNL     1      -6.066   7.703  67.283  1.00  0.00    -0.045 OA 
ENDBRANCH   4  11
TORSDOF 1
ENDMDL
MODEL      178
REMARK 921   NORMALIZED FREE ENERGY PREDICTED BY IDOCK:   -1.54 KCAL/MOL
REMARK 922        TOTAL FREE ENERGY PREDICTED BY IDOCK:   -1.82 KCAL/MOL
REMARK 923 INTER-LIGAND FREE ENERGY PREDICTED BY IDOCK:   -1.62 KCAL/MOL
REMARK 924 INTRA-LIGAND FREE ENERGY PREDICTED BY IDOCK:   -0.20 KCAL/MOL
REMARK 927      BINDING AFFINITY PREDICTED BY RF-SCORE:    0.00 PKD
ROOT
HETATM    1  F   UNL     1     -11.242   5.257  65.782  1.00  0.00    -0.199 F  
HETATM    2  C   UNL     1     -10.253   4.345  65.806  1.00  0.00    -0.234 C  
HETATM    3  C   UNL     1      -9.489   4.144  66.879  1.00  0.00    -0.191 C  
HETATM    4  N   UNL     1      -8.475   3.201  66.882  1.00  0.00    -0.099 N  
HETATM    5  C   UNL     1      -8.178   2.446  65.751  1.00  0.00    -0.088 C  
HETATM    6  O   UNL     1     -10.682   3.702  63.560  1.00  0.00    -0.252 OA 
HETATM    7  O   UNL     1      -7.246   1.649  65.681  1.00  0.00    -0.049 OA 
HETATM    8  H   UNL     1      -8.837   2.057  63.853  1.00  0.00     0.000 HD 
HETATM    9  N   UNL     1      -9.001   2.644  64.670  1.00  0.00    -0.119 N  
HETATM   10  C   UNL     1     -10.022   3.553  64.582  1.00  0.00    -0.153 C  
ENDROOT
BRANCH   4  11
HETATM   11  C   UNL     1      -7.641   2.987  68.055  1.00  0.00    -0.056 C  
HETATM   12  C   UNL     1      -6.801   4.195  68.442  1.00  0.00    -0.047 C  
HETATM   13  C   UNL     1      -6.489   3.880  69.883  1.00  0.00    -0.032 C  
HETATM   14  C   UNL     1      -7.778   3.241  70.363  1.00  0.00    -0.043 C  
HETATM   15  O   UNL     1      -8.435   2.681  69.216  1.00  0.00    -0.057 OA 
ENDBRANCH   4  11
TORSDOF 1
ENDMDL
MODEL      179
REMARK 921   NORMALIZED FREE ENERGY PREDICTED BY IDOCK:   -1.26 KCAL/MOL
REMARK 922        TOTAL FREE ENERGY PREDICTED BY IDOCK:   -1.52 KCAL/MOL
REMARK 923 INTER-LIGAND FREE ENERGY PREDICTED BY IDOCK:   -1.32 KCAL/MOL
REMARK 924 INTRA-LIGAND FREE ENERGY PREDICTED BY IDOCK:   -0.20 KCAL/MOL
REMARK 927      BINDING AFFINITY PREDICTED BY RF-SCORE:    0.00 PKD
ROOT
HETATM    1  F   UNL     1      -9.437  12.153  67.948  1.00  0.00    -0.170 F  
HETATM    2  C   UNL     1      -9.055  10.871  68.096  1.00  0.00    -0.155 C  
HETATM    3  C   UNL     1      -8.247  10.472  69.078  1.00  0.00    -0.145 C  
HETATM    4  N   UNL     1      -7.863   9.149  69.211  1.00  0.00    -0.092 N  
HETATM    5  C   UNL     1      -8.270   8.177  68.301  1.00  0.00    -0.129 C  
HETATM    6  O   UNL     1     -10.291  10.197  66.184  1.00  0.00    -0.227 OA 
HETATM    7  O   UNL     1      -7.901   7.006  68.334  1.00  0.00    -0.117 OA 
HETATM    8  H   UNL     1      -9.487   7.893  66.680  1.00  0.00     0.000 HD 
HETATM    9  N   UNL     1      -9.130   8.603  67.319  1.00  0.00    -0.131 N  
HETATM   10  C   UNL     1      -9.558   9.888  67.116  1.00  0.00    -0.162 C  
ENDROOT
BRANCH   4  11
HETATM   11  C   UNL     1      -6.978   8.719  70.283  1.00  0.00    -0.043 C  
HETATM   12  C   UNL     1      -5.646   9.453  70.313  1.00  0.00    -0.032 C  
HETATM   13  C   UNL     1      -5.210   9.200  71.735  1.00  0.00    -0.052 C  
HETATM   14  C   UNL     1      -6.520   9.273  72.495  1.00  0.00     0.352 C  
HETATM   15  O   UNL     1      -7.571   8.942  71.575  1.00  0.00    -0.212 OA 
ENDBRANCH   4  11
TORSDOF 1
ENDMDL
MODEL      180
REMARK 921   NORMALIZED FREE ENERGY PREDICTED BY IDOCK:   -1.20 KCAL/MOL
REMARK 922        TOTAL FREE ENERGY PREDICTED BY IDOCK:   -1.46 KCAL/MOL
REMARK 923 INTER-LIGAND FREE ENERGY PREDICTED BY IDOCK:   -1.93 KCAL/MOL
REMARK 924 INTRA-LIGAND FREE ENERGY PREDICTED BY IDOCK:    0.47 KCAL/MOL
REMARK 927      BINDING AFFINITY PREDICTED BY RF-SCORE:    0.00 PKD
ROOT
HETATM    1  F   UNL     1      -8.997   9.050  69.518  1.00  0.00    -0.133 F  
HETATM    2  C   UNL     1      -8.946   8.404  70.697  1.00  0.00    -0.152 C  
HETATM    3  C   UNL     1      -7.973   7.546  71.004  1.00  0.00    -0.095 C  
HETATM    4  N   UNL     1      -7.940   6.890  72.222  1.00  0.00    -0.094 N  
HETATM    5  C   UNL     1      -8.944   7.064  73.171  1.00  0.00    -0.129 C  
HETATM    6  O   UNL     1     -10.953   9.434  71.441  1.00  0.00    -0.335 OA 
HETATM    7  O   UNL     1      -8.998   6.453  74.236  1.00  0.00    -0.141 OA 
HETATM    8  H   UNL     1     -10.627   8.164  73.557  1.00  0.00     0.000 HD 
HETATM    9  N   UNL     1      -9.916   7.979  72.849  1.00  0.00    -0.285 N  
HETATM   10  C   UNL     1     -10.025   8.668  71.671  1.00  0.00    -0.282 C  
ENDROOT
BRANCH   4  11
HETATM   11  C   UNL     1      -6.878   5.952  72.551  1.00  0.00    -0.078 C  
HETATM   12  C   UNL     1      -5.962   6.427  73.669  1.00  0.00    -0.062 C  
HETATM   13  C   UNL     1      -5.352   5.122  74.116  1.00  0.00    -0.018 C  
HETATM   14  C   UNL     1      -6.516   4.158  73.987  1.00  0.00    -0.047 C  
HETATM   15  O   UNL     1      -7.409   4.691  72.997  1.00  0.00    -0.077 OA 
ENDBRANCH   4  11
TORSDOF 1
ENDMDL
MODEL      181
REMARK 921   NORMALIZED FREE ENERGY PREDICTED BY IDOCK:   -1.01 KCAL/MOL
REMARK 922        TOTAL FREE ENERGY PREDICTED BY IDOCK:   -1.26 KCAL/MOL
REMARK 923 INTER-LIGAND FREE ENERGY PREDICTED BY IDOCK:   -1.18 KCAL/MOL
REMARK 924 INTRA-LIGAND FREE ENERGY PREDICTED BY IDOCK:   -0.08 KCAL/MOL
REMARK 927      BINDING AFFINITY PREDICTED BY RF-SCORE:    0.00 PKD
ROOT
HETATM    1  F   UNL     1      -5.994   6.573  66.761  1.00  0.00    -0.021 F  
HETATM    2  C   UNL     1      -6.319   7.362  67.802  1.00  0.00    -0.048 C  
HETATM    3  C   UNL     1      -6.886   8.558  67.646  1.00  0.00    -0.071 C  
HETATM    4  N   UNL     1      -7.210   9.355  68.730  1.00  0.00    -0.072 N  
HETATM    5  C   UNL     1      -6.923   8.963  70.034  1.00  0.00    -0.044 C  
HETATM    6  O   UNL     1      -5.489   5.778  69.365  1.00  0.00    -0.004 OA 
HETATM    7  O   UNL     1      -7.125   9.662  71.024  1.00  0.00    -0.295 OA 
HETATM    8  H   UNL     1      -6.212   7.383  71.125  1.00  0.00     0.000 HD 
HETATM    9  N   UNL     1      -6.373   7.712  70.173  1.00  0.00    -0.033 N  
HETATM   10  C   UNL     1      -6.021   6.863  69.159  1.00  0.00    -0.019 C  
ENDROOT
BRANCH   4  11
HETATM   11  C   UNL     1      -7.825  10.662  68.555  1.00  0.00    -0.115 C  
HETATM   12  C   UNL     1      -6.837  11.818  68.599  1.00  0.00    -0.081 C  
HETATM   13  C   UNL     1      -7.625  12.898  67.902  1.00  0.00    -0.138 C  
HETATM   14  C   UNL     1      -8.357  12.122  66.824  1.00  0.00    -0.111 C  
HETATM   15  O   UNL     1      -8.484  10.766  67.279  1.00  0.00    -0.123 OA 
ENDBRANCH   4  11
TORSDOF 1
ENDMDL
MODEL      182
REMARK 921   NORMALIZED FREE ENERGY PREDICTED BY IDOCK:   -0.97 KCAL/MOL
REMARK 922        TOTAL FREE ENERGY PREDICTED BY IDOCK:   -1.22 KCAL/MOL
REMARK 923 INTER-LIGAND FREE ENERGY PREDICTED BY IDOCK:   -1.01 KCAL/MOL
REMARK 924 INTRA-LIGAND FREE ENERGY PREDICTED BY IDOCK:   -0.20 KCAL/MOL
REMARK 927      BINDING AFFINITY PREDICTED BY RF-SCORE:    0.00 PKD
ROOT
HETATM    1  F   UNL     1      -8.553  20.231  71.648  1.00  0.00     0.774 F  
HETATM    2  C   UNL     1      -7.930  19.934  70.493  1.00  0.00     1.359 C  
HETATM    3  C   UNL     1      -8.585  19.494  69.418  1.00  0.00     0.170 C  
HETATM    4  N   UNL     1      -7.926  19.192  68.239  1.00  0.00    -0.312 N  
HETATM    5  C   UNL     1      -6.542  19.295  68.131  1.00  0.00    -0.237 C  
HETATM    6  O   UNL     1      -5.807  20.494  71.398  1.00  0.00    -0.575 OA 
HETATM    7  O   UNL     1      -5.903  18.973  67.132  1.00  0.00    -0.157 OA 
HETATM    8  H   UNL     1      -4.886  19.925  69.156  1.00  0.00     0.000 HD 
HETATM    9  N   UNL     1      -5.893  19.785  69.238  1.00  0.00    -0.238 N  
HETATM   10  C   UNL     1      -6.465  20.106  70.439  1.00  0.00    -0.206 C  
ENDROOT
BRANCH   4  11
HETATM   11  C   UNL     1      -8.644  18.708  67.071  1.00  0.00    -0.276 C  
HETATM   12  C   UNL     1      -9.824  17.807  67.402  1.00  0.00    -0.311 C  
HETATM   13  C   UNL     1     -10.627  17.903  66.129  1.00  0.00    -0.243 C  
HETATM   14  C   UNL     1     -10.433  19.353  65.731  1.00  0.00    -0.392 C  
HETATM   15  O   UNL     1      -9.192  19.795  66.303  1.00  0.00    -0.369 OA 
ENDBRANCH   4  11
TORSDOF 1
ENDMDL
MODEL      183
REMARK 921   NORMALIZED FREE ENERGY PREDICTED BY IDOCK:   -0.94 KCAL/MOL
REMARK 922        TOTAL FREE ENERGY PREDICTED BY IDOCK:   -1.18 KCAL/MOL
REMARK 923 INTER-LIGAND FREE ENERGY PREDICTED BY IDOCK:   -2.01 KCAL/MOL
REMARK 924 INTRA-LIGAND FREE ENERGY PREDICTED BY IDOCK:    0.83 KCAL/MOL
REMARK 927      BINDING AFFINITY PREDICTED BY RF-SCORE:    0.00 PKD
ROOT
HETATM    1  F   UNL     1      -9.034   7.021  64.904  1.00  0.00     0.088 F  
HETATM    2  C   UNL     1      -9.246   6.077  65.839  1.00  0.00    -0.065 C  
HETATM    3  C   UNL     1      -9.460   6.372  67.121  1.00  0.00    -0.129 C  
HETATM    4  N   UNL     1      -9.673   5.385  68.067  1.00  0.00    -0.130 N  
HETATM    5  C   UNL     1      -9.635   4.035  67.733  1.00  0.00    -0.150 C  
HETATM    6  O   UNL     1      -9.024   4.332  64.243  1.00  0.00    -0.137 OA 
HETATM    7  O   UNL     1      -9.747   3.121  68.547  1.00  0.00    -0.106 OA 
HETATM    8  H   UNL     1      -9.478   2.773  66.129  1.00  0.00     0.000 HD 
HETATM    9  N   UNL     1      -9.449   3.755  66.402  1.00  0.00    -0.187 N  
HETATM   10  C   UNL     1      -9.230   4.666  65.404  1.00  0.00    -0.155 C  
ENDROOT
BRANCH   4  11
HETATM   11  C   UNL     1      -9.903   5.712  69.466  1.00  0.00    -0.180 C  
HETATM   12  C   UNL     1     -11.339   6.109  69.778  1.00  0.00    -0.452 C  
HETATM   13  C   UNL     1     -11.385   5.877  71.267  1.00  0.00    -0.238 C  
HETATM   14  C   UNL     1     -10.531   4.634  71.430  1.00  0.00    -0.013 C  
HETATM   15  O   UNL     1      -9.619   4.590  70.322  1.00  0.00    -0.156 OA 
ENDBRANCH   4  11
TORSDOF 1
ENDMDL
MODEL      184
REMARK 921   NORMALIZED FREE ENERGY PREDICTED BY IDOCK:   -0.23 KCAL/MOL
REMARK 922        TOTAL FREE ENERGY PREDICTED BY IDOCK:   -0.43 KCAL/MOL
REMARK 923 INTER-LIGAND FREE ENERGY PREDICTED BY IDOCK:   -0.98 KCAL/MOL
REMARK 924 INTRA-LIGAND FREE ENERGY PREDICTED BY IDOCK:    0.55 KCAL/MOL
REMARK 927      BINDING AFFINITY PREDICTED BY RF-SCORE:    0.00 PKD
ROOT
HETATM    1  F   UNL     1     -10.013  18.412  69.647  1.00  0.00    -0.132 F  
HETATM    2  C   UNL     1      -9.701  18.919  68.440  1.00  0.00    -0.379 C  
HETATM    3  C   UNL     1      -8.442  19.077  68.032  1.00  0.00    -0.301 C  
HETATM    4  N   UNL     1      -8.143  19.603  66.787  1.00  0.00    -0.283 N  
HETATM    5  C   UNL     1      -9.142  20.030  65.917  1.00  0.00    -0.120 C  
HETATM    6  O   UNL     1     -11.991  19.205  67.879  1.00  0.00     1.556 OA 
HETATM    7  O   UNL     1      -8.927  20.568  64.833  1.00  0.00     0.715 OA 
HETATM    8  H   UNL     1     -11.176  20.076  65.693  1.00  0.00     0.000 HD 
HETATM    9  N   UNL     1     -10.431  19.824  66.343  1.00  0.00    -0.490 N  
HETATM   10  C   UNL     1     -10.814  19.314  67.554  1.00  0.00    -0.415 C  
ENDROOT
BRANCH   4  11
HETATM   11  C   UNL     1      -6.767  19.777  66.348  1.00  0.00    -0.203 C  
HETATM   12  C   UNL     1      -6.307  18.737  65.337  1.00  0.00    -0.322 C  
HETATM   13  C   UNL     1      -5.129  19.442  64.714  1.00  0.00    -0.198 C  
HETATM   14  C   UNL     1      -5.598  20.883  64.667  1.00  0.00    -0.236 C  
HETATM   15  O   UNL     1      -6.578  21.051  65.704  1.00  0.00    -0.172 OA 
ENDBRANCH   4  11
TORSDOF 1
ENDMDL
MODEL      185
REMARK 921   NORMALIZED FREE ENERGY PREDICTED BY IDOCK:    1.74 KCAL/MOL
REMARK 922        TOTAL FREE ENERGY PREDICTED BY IDOCK:    1.66 KCAL/MOL
REMARK 923 INTER-LIGAND FREE ENERGY PREDICTED BY IDOCK:    1.15 KCAL/MOL
REMARK 924 INTRA-LIGAND FREE ENERGY PREDICTED BY IDOCK:    0.50 KCAL/MOL
REMARK 927      BINDING AFFINITY PREDICTED BY RF-SCORE:    0.00 PKD
ROOT
HETATM    1  F   UNL     1      -9.321  11.563  63.949  1.00  0.00    -0.207 F  
HETATM    2  C   UNL     1      -9.572  11.950  65.214  1.00  0.00    -0.138 C  
HETATM    3  C   UNL     1     -10.214  11.175  66.087  1.00  0.00    -0.244 C  
HETATM    4  N   UNL     1     -10.464  11.593  67.383  1.00  0.00    -0.204 N  
HETATM    5  C   UNL     1     -10.091  12.859  67.824  1.00  0.00    -0.229 C  
HETATM    6  O   UNL     1      -8.529  14.054  64.862  1.00  0.00     3.620 OA 
HETATM    7  O   UNL     1     -10.352  13.304  68.940  1.00  0.00    -0.178 OA 
HETATM    8  H   UNL     1      -9.066  14.533  67.245  1.00  0.00     0.000 HD 
HETATM    9  N   UNL     1      -9.399  13.626  66.920  1.00  0.00    -0.250 N  
HETATM   10  C   UNL     1      -9.112  13.292  65.623  1.00  0.00     0.613 C  
ENDROOT
BRANCH   4  11
HETATM   11  C   UNL     1     -11.169  10.745  68.331  1.00  0.00    -0.284 C  
HETATM   12  C   UNL     1     -10.281  10.180  69.430  1.00  0.00    -0.246 C  
HETATM   13  C   UNL     1     -11.307   9.823  70.476  1.00  0.00    -0.382 C  
HETATM   14  C   UNL     1     -12.308  10.955  70.349  1.00  0.00    -0.351 C  
HETATM   15  O   UNL     1     -12.210  11.469  69.012  1.00  0.00    -0.368 OA 
ENDBRANCH   4  11
TORSDOF 1
ENDMDL
MODEL      186
REMARK 921   NORMALIZED FREE ENERGY PREDICTED BY IDOCK:    2.23 KCAL/MOL
REMARK 922        TOTAL FREE ENERGY PREDICTED BY IDOCK:    2.18 KCAL/MOL
REMARK 923 INTER-LIGAND FREE ENERGY PREDICTED BY IDOCK:    1.57 KCAL/MOL
REMARK 924 INTRA-LIGAND FREE ENERGY PREDICTED BY IDOCK:    0.61 KCAL/MOL
REMARK 927      BINDING AFFINITY PREDICTED BY RF-SCORE:    0.00 PKD
ROOT
HETATM    1  F   UNL     1      -5.987  17.690  69.929  1.00  0.00    -0.225 F  
HETATM    2  C   UNL     1      -6.695  16.780  69.235  1.00  0.00    -0.229 C  
HETATM    3  C   UNL     1      -6.194  15.595  68.886  1.00  0.00    -0.109 C  
HETATM    4  N   UNL     1      -6.940  14.674  68.170  1.00  0.00    -0.107 N  
HETATM    5  C   UNL     1      -8.235  14.957  67.746  1.00  0.00    -0.156 C  
HETATM    6  O   UNL     1      -8.587  18.212  69.133  1.00  0.00    -0.068 OA 
HETATM    7  O   UNL     1      -8.911  14.203  67.049  1.00  0.00    -0.220 OA 
HETATM    8  H   UNL     1      -9.712  16.366  67.898  1.00  0.00     0.000 HD 
HETATM    9  N   UNL     1      -8.743  16.168  68.148  1.00  0.00    -0.173 N  
HETATM   10  C   UNL     1      -8.077  17.134  68.853  1.00  0.00    -0.203 C  
ENDROOT
BRANCH   4  11
HETATM   11  C   UNL     1      -6.388  13.384  67.788  1.00  0.00    -0.161 C  
HETATM   12  C   UNL     1      -7.388  12.240  67.862  1.00  0.00    -0.111 C  
HETATM   13  C   UNL     1      -6.731  11.224  66.962  1.00  0.00    -0.126 C  
HETATM   14  C   UNL     1      -6.137  12.092  65.870  1.00  0.00     1.703 C  
HETATM   15  O   UNL     1      -5.915  13.396  66.429  1.00  0.00     1.754 OA 
ENDBRANCH   4  11
TORSDOF 1
ENDMDL
MODEL      187
REMARK 921   NORMALIZED FREE ENERGY PREDICTED BY IDOCK:    3.45 KCAL/MOL
REMARK 922        TOTAL FREE ENERGY PREDICTED BY IDOCK:    3.46 KCAL/MOL
REMARK 923 INTER-LIGAND FREE ENERGY PREDICTED BY IDOCK:    3.66 KCAL/MOL
REMARK 924 INTRA-LIGAND FREE ENERGY PREDICTED BY IDOCK:   -0.20 KCAL/MOL
REMARK 927      BINDING AFFINITY PREDICTED BY RF-SCORE:    0.00 PKD
ROOT
HETATM    1  F   UNL     1      -7.110  13.626  72.256  1.00  0.00     2.335 F  
HETATM    2  C   UNL     1      -7.140  13.813  70.924  1.00  0.00     1.879 C  
HETATM    3  C   UNL     1      -8.085  14.534  70.322  1.00  0.00     1.187 C  
HETATM    4  N   UNL     1      -8.099  14.712  68.949  1.00  0.00    -0.155 N  
HETATM    5  C   UNL     1      -7.149  14.113  68.127  1.00  0.00    -0.127 C  
HETATM    6  O   UNL     1      -5.190  12.493  70.614  1.00  0.00    -0.109 OA 
HETATM    7  O   UNL     1      -7.158  14.181  66.901  1.00  0.00     0.129 OA 
HETATM    8  H   UNL     1      -5.426  13.009  68.190  1.00  0.00     0.000 HD 
HETATM    9  N   UNL     1      -6.164  13.405  68.772  1.00  0.00    -0.084 N  
HETATM   10  C   UNL     1      -6.077  13.179  70.120  1.00  0.00    -0.099 C  
ENDROOT
BRANCH   4  11
HETATM   11  C   UNL     1      -9.134  15.498  68.296  1.00  0.00    -0.186 C  
HETATM   12  C   UNL     1     -10.546  14.995  68.558  1.00  0.00    -0.235 C  
HETATM   13  C   UNL     1     -11.355  16.225  68.231  1.00  0.00    -0.280 C  
HETATM   14  C   UNL     1     -10.475  17.343  68.753  1.00  0.00    -0.333 C  
HETATM   15  O   UNL     1      -9.121  16.864  68.747  1.00  0.00    -0.256 OA 
ENDBRANCH   4  11
TORSDOF 1
ENDMDL
MODEL      188
REMARK 921   NORMALIZED FREE ENERGY PREDICTED BY IDOCK:    3.78 KCAL/MOL
REMARK 922        TOTAL FREE ENERGY PREDICTED BY IDOCK:    3.81 KCAL/MOL
REMARK 923 INTER-LIGAND FREE ENERGY PREDICTED BY IDOCK:    3.37 KCAL/MOL
REMARK 924 INTRA-LIGAND FREE ENERGY PREDICTED BY IDOCK:    0.44 KCAL/MOL
REMARK 927      BINDING AFFINITY PREDICTED BY RF-SCORE:    0.00 PKD
ROOT
HETATM    1  F   UNL     1      -8.874  20.132  71.910  1.00  0.00     1.017 F  
HETATM    2  C   UNL     1      -8.831  20.025  70.569  1.00  0.00     1.649 C  
HETATM    3  C   UNL     1      -7.706  20.189  69.873  1.00  0.00     0.662 C  
HETATM    4  N   UNL     1      -7.683  20.076  68.494  1.00  0.00    -0.213 N  
HETATM    5  C   UNL     1      -8.842  19.827  67.763  1.00  0.00    -0.325 C  
HETATM    6  O   UNL     1     -11.159  19.571  70.449  1.00  0.00     2.310 OA 
HETATM    7  O   UNL     1      -8.887  19.788  66.536  1.00  0.00    -0.333 OA 
HETATM    8  H   UNL     1     -10.827  19.382  67.989  1.00  0.00     0.000 HD 
HETATM    9  N   UNL     1      -9.981  19.625  68.503  1.00  0.00    -0.425 N  
HETATM   10  C   UNL     1     -10.092  19.719  69.865  1.00  0.00     0.353 C  
ENDROOT
BRANCH   4  11
HETATM   11  C   UNL     1      -6.454  20.259  67.738  1.00  0.00    -0.250 C  
HETATM   12  C   UNL     1      -6.079  19.065  66.874  1.00  0.00    -0.177 C  
HETATM   13  C   UNL     1      -5.143  19.708  65.881  1.00  0.00    -0.165 C  
HETATM   14  C   UNL     1      -5.787  21.063  65.659  1.00  0.00    -0.250 C  
HETATM   15  O   UNL     1      -6.555  21.374  66.832  1.00  0.00    -0.480 OA 
ENDBRANCH   4  11
TORSDOF 1
ENDMDL
MODEL      189
REMARK 921   NORMALIZED FREE ENERGY PREDICTED BY IDOCK:   14.27 KCAL/MOL
REMARK 922        TOTAL FREE ENERGY PREDICTED BY IDOCK:   14.91 KCAL/MOL
REMARK 923 INTER-LIGAND FREE ENERGY PREDICTED BY IDOCK:   15.07 KCAL/MOL
REMARK 924 INTRA-LIGAND FREE ENERGY PREDICTED BY IDOCK:   -0.16 KCAL/MOL
REMARK 927      BINDING AFFINITY PREDICTED BY RF-SCORE:    0.00 PKD
ROOT
HETATM    1  F   UNL     1      -7.593  14.952  68.012  1.00  0.00    -0.099 F  
HETATM    2  C   UNL     1      -8.247  16.123  67.909  1.00  0.00    -0.153 C  
HETATM    3  C   UNL     1      -8.531  16.882  68.968  1.00  0.00    -0.142 C  
HETATM    4  N   UNL     1      -9.207  18.083  68.840  1.00  0.00    -0.197 N  
HETATM    5  C   UNL     1      -9.659  18.537  67.604  1.00  0.00    -0.286 C  
HETATM    6  O   UNL     1      -8.441  15.900  65.553  1.00  0.00     0.398 OA 
HETATM    7  O   UNL     1     -10.323  19.558  67.447  1.00  0.00    -0.390 OA 
HETATM    8  H   UNL     1      -9.594  18.106  65.604  1.00  0.00     0.000 HD 
HETATM    9  N   UNL     1      -9.324  17.758  66.524  1.00  0.00    -0.279 N  
HETATM   10  C   UNL     1      -8.661  16.560  66.561  1.00  0.00    -0.282 C  
ENDROOT
BRANCH   4  11
HETATM   11  C   UNL     1      -9.517  18.906  69.998  1.00  0.00     1.102 C  
HETATM   12  C   UNL     1      -9.410  18.168  71.325  1.00  0.00     6.862 C  
HETATM   13  C   UNL     1      -9.266  19.321  72.286  1.00  0.00     5.677 C  
HETATM   14  C   UNL     1      -8.409  20.295  71.500  1.00  0.00     2.146 C  
HETATM   15  O   UNL     1      -8.618  20.024  70.105  1.00  0.00     0.711 OA 
ENDBRANCH   4  11
TORSDOF 1
ENDMDL
MODEL      190
REMARK 921   NORMALIZED FREE ENERGY PREDICTED BY IDOCK:   39.40 KCAL/MOL
REMARK 922        TOTAL FREE ENERGY PREDICTED BY IDOCK:   41.51 KCAL/MOL
REMARK 923 INTER-LIGAND FREE ENERGY PREDICTED BY IDOCK:   41.13 KCAL/MOL
REMARK 924 INTRA-LIGAND FREE ENERGY PREDICTED BY IDOCK:    0.38 KCAL/MOL
REMARK 927      BINDING AFFINITY PREDICTED BY RF-SCORE:    0.00 PKD
ROOT
HETATM    1  F   UNL     1     -11.246  13.645  74.157  1.00  0.00     2.509 F  
HETATM    2  C   UNL     1     -11.712  14.697  73.458  1.00  0.00     0.211 C  
HETATM    3  C   UNL     1     -10.926  15.696  73.057  1.00  0.00     1.355 C  
HETATM    4  N   UNL     1     -11.427  16.770  72.341  1.00  0.00     0.032 N  
HETATM    5  C   UNL     1     -12.781  16.878  72.041  1.00  0.00     2.502 C  
HETATM    6  O   UNL     1     -13.928  13.843  73.496  1.00  0.00     0.981 OA 
HETATM    7  O   UNL     1     -13.285  17.844  71.472  1.00  0.00    11.206 OA 
HETATM    8  H   UNL     1     -14.550  15.855  72.169  1.00  0.00     0.000 HD 
HETATM    9  N   UNL     1     -13.565  15.821  72.433  1.00  0.00    -0.489 N  
HETATM   10  C   UNL     1     -13.154  14.724  73.142  1.00  0.00    -0.492 C  
ENDROOT
BRANCH   4  11
HETATM   11  C   UNL     1     -10.566  17.860  71.908  1.00  0.00     3.563 C  
HETATM   12  C   UNL     1      -9.090  17.494  71.850  1.00  0.00    11.976 C  
HETATM   13  C   UNL     1      -8.564  18.562  70.925  1.00  0.00     5.372 C  
HETATM   14  C   UNL     1      -9.696  18.715  69.927  1.00  0.00     0.863 C  
HETATM   15  O   UNL     1     -10.906  18.303  70.581  1.00  0.00     1.545 OA 
ENDBRANCH   4  11
TORSDOF 1
ENDMDL
