MODEL        1
REMARK 921   NORMALIZED FREE ENERGY PREDICTED BY IDOCK:   -6.86 KCAL/MOL
REMARK 922        TOTAL FREE ENERGY PREDICTED BY IDOCK:   -7.98 KCAL/MOL
REMARK 923 INTER-LIGAND FREE ENERGY PREDICTED BY IDOCK:   -7.66 KCAL/MOL
REMARK 924 INTRA-LIGAND FREE ENERGY PREDICTED BY IDOCK:   -0.32 KCAL/MOL
REMARK 927      BINDING AFFINITY PREDICTED BY RF-SCORE:    0.00 PKD
ROOT
ATOM      1  C5M   T A   1     -12.030  11.683  69.737  1.00  0.00    -0.402 C  
ATOM      2  C5    T A   1     -11.818  13.117  69.378  1.00  0.00    -0.383 C  
ATOM      3  C6    T A   1     -11.191  13.542  68.276  1.00  0.00    -0.274 C  
ATOM      4  N1    T A   1     -10.972  14.887  67.994  1.00  0.00    -0.270 N  
ATOM      5  O4    T A   1     -12.777  13.835  71.422  1.00  0.00    -0.345 OA 
ATOM      6  C2    T A   1     -11.315  15.850  68.938  1.00  0.00    -0.377 C  
ATOM      7  O2    T A   1     -10.909  17.009  68.943  1.00  0.00    -0.307 OA 
ATOM      8  H3    T A   1     -12.677  16.143  70.441  1.00  0.00     0.000 HD 
ATOM      9  N3    T A   1     -12.141  15.431  69.944  1.00  0.00    -0.348 N  
ATOM     10  C4    T A   1     -12.303  14.136  70.333  1.00  0.00    -0.359 C  
ENDROOT
BRANCH   4  11
ATOM     11  C1*   T A   1     -10.083  15.239  66.872  1.00  0.00    -0.256 C  
ATOM     12  C2*   T A   1     -10.450  16.429  65.988  1.00  0.00    -0.333 C  
ATOM     13  C3*   T A   1     -11.393  15.813  64.986  1.00  0.00    -0.220 C  
ATOM     14  C4*   T A   1     -10.712  14.475  64.731  1.00  0.00    -0.393 C  
ATOM     15  O3*   T A   1     -11.529  16.589  63.806  1.00  0.00    -1.615 OA 
ATOM     16  H3*   T A   1     -12.123  16.200  63.175  1.00  0.00     0.000 HD 
ATOM     17  O4*   T A   1     -10.034  14.112  65.956  1.00  0.00    -0.301 OA 
BRANCH  14  18
ATOM     18  C5*   T A   1     -11.685  13.370  64.317  1.00  0.00    -0.412 C  
ATOM     19  O5*   T A   1     -12.536  13.794  63.253  1.00  0.00    -1.065 OA 
ATOM     20  H5*   T A   1     -13.141  13.108  62.996  1.00  0.00     0.000 HD 
ENDBRANCH  14  18
ENDBRANCH   4  11
TORSDOF 2
ENDMDL
MODEL        2
REMARK 921   NORMALIZED FREE ENERGY PREDICTED BY IDOCK:   -6.33 KCAL/MOL
REMARK 922        TOTAL FREE ENERGY PREDICTED BY IDOCK:   -7.39 KCAL/MOL
REMARK 923 INTER-LIGAND FREE ENERGY PREDICTED BY IDOCK:   -7.02 KCAL/MOL
REMARK 924 INTRA-LIGAND FREE ENERGY PREDICTED BY IDOCK:   -0.37 KCAL/MOL
REMARK 927      BINDING AFFINITY PREDICTED BY RF-SCORE:    0.00 PKD
ROOT
ATOM      1  C5M   T A   1     -11.703  10.892  69.367  1.00  0.00    -0.397 C  
ATOM      2  C5    T A   1     -11.719  12.332  68.970  1.00  0.00    -0.376 C  
ATOM      3  C6    T A   1     -11.329  12.798  67.778  1.00  0.00    -0.294 C  
ATOM      4  N1    T A   1     -11.314  14.152  67.456  1.00  0.00    -0.306 N  
ATOM      5  O4    T A   1     -12.417  12.987  71.136  1.00  0.00    -0.361 OA 
ATOM      6  C2    T A   1     -11.612  15.093  68.437  1.00  0.00    -0.337 C  
ATOM      7  O2    T A   1     -11.348  16.290  68.369  1.00  0.00    -0.367 OA 
ATOM      8  H3    T A   1     -12.743  15.266  70.138  1.00  0.00     0.000 HD 
ATOM      9  N3    T A   1     -12.214  14.608  69.566  1.00  0.00    -0.289 N  
ATOM     10  C4    T A   1     -12.160  13.313  69.984  1.00  0.00    -0.315 C  
ENDROOT
BRANCH   4  11
ATOM     11  C1*   T A   1     -10.662  14.574  66.203  1.00  0.00    -0.310 C  
ATOM     12  C2*   T A   1     -11.527  15.139  65.078  1.00  0.00    -0.339 C  
ATOM     13  C3*   T A   1     -11.987  13.895  64.364  1.00  0.00    -0.450 C  
ATOM     14  C4*   T A   1     -10.721  13.051  64.403  1.00  0.00    -0.394 C  
ATOM     15  O3*   T A   1     -12.432  14.150  63.040  1.00  0.00    -1.077 OA 
ATOM     16  H3*   T A   1     -12.722  13.366  62.590  1.00  0.00     0.000 HD 
ATOM     17  O4*   T A   1     -10.015  13.416  65.612  1.00  0.00    -0.285 OA 
BRANCH  14  18
ATOM     18  C5*   T A   1     -10.995  11.547  64.383  1.00  0.00    -0.324 C  
ATOM     19  O5*   T A   1     -11.483  11.121  63.111  1.00  0.00    -0.795 OA 
ATOM     20  H5*   T A   1     -11.653  10.186  63.099  1.00  0.00     0.000 HD 
ENDBRANCH  14  18
ENDBRANCH   4  11
TORSDOF 2
ENDMDL
MODEL        3
REMARK 921   NORMALIZED FREE ENERGY PREDICTED BY IDOCK:   -6.06 KCAL/MOL
REMARK 922        TOTAL FREE ENERGY PREDICTED BY IDOCK:   -7.09 KCAL/MOL
REMARK 923 INTER-LIGAND FREE ENERGY PREDICTED BY IDOCK:   -7.04 KCAL/MOL
REMARK 924 INTRA-LIGAND FREE ENERGY PREDICTED BY IDOCK:   -0.05 KCAL/MOL
REMARK 927      BINDING AFFINITY PREDICTED BY RF-SCORE:    0.00 PKD
ROOT
ATOM      1  C5M   T A   1     -11.837  12.243  67.309  1.00  0.00    -0.330 C  
ATOM      2  C5    T A   1     -11.620  13.393  66.382  1.00  0.00    -0.381 C  
ATOM      3  C6    T A   1     -10.872  14.467  66.661  1.00  0.00    -0.311 C  
ATOM      4  N1    T A   1     -10.726  15.543  65.791  1.00  0.00    -0.339 N  
ATOM      5  O4    T A   1     -13.113  12.474  64.789  1.00  0.00    -0.853 OA 
ATOM      6  C2    T A   1     -11.468  15.578  64.614  1.00  0.00    -0.324 C  
ATOM      7  O2    T A   1     -11.656  16.578  63.928  1.00  0.00    -1.175 OA 
ATOM      8  H3    T A   1     -12.296  14.285  63.256  1.00  0.00     0.000 HD 
ATOM      9  N3    T A   1     -12.047  14.396  64.239  1.00  0.00    -0.470 N  
ATOM     10  C4    T A   1     -12.314  13.357  65.077  1.00  0.00    -0.436 C  
ENDROOT
BRANCH   4  11
ATOM     11  C1*   T A   1     -10.065  16.766  66.282  1.00  0.00    -0.326 C  
ATOM     12  C2*   T A   1      -8.602  16.688  66.712  1.00  0.00    -0.268 C  
ATOM     13  C3*   T A   1      -8.706  16.226  68.143  1.00  0.00    -0.182 C  
ATOM     14  C4*   T A   1      -9.909  17.028  68.621  1.00  0.00    -0.290 C  
ATOM     15  O3*   T A   1      -7.535  16.497  68.898  1.00  0.00    -0.201 OA 
ATOM     16  H3*   T A   1      -7.602  16.205  69.800  1.00  0.00     0.000 HD 
ATOM     17  O4*   T A   1     -10.766  17.218  67.471  1.00  0.00    -0.345 OA 
BRANCH  14  18
ATOM     18  C5*   T A   1     -10.681  16.346  69.751  1.00  0.00    -0.324 C  
ATOM     19  O5*   T A   1     -10.059  15.125  70.147  1.00  0.00    -0.489 OA 
ATOM     20  H5*   T A   1     -10.539  14.701  70.848  1.00  0.00     0.000 HD 
ENDBRANCH  14  18
ENDBRANCH   4  11
TORSDOF 2
ENDMDL
MODEL        4
REMARK 921   NORMALIZED FREE ENERGY PREDICTED BY IDOCK:   -5.96 KCAL/MOL
REMARK 922        TOTAL FREE ENERGY PREDICTED BY IDOCK:   -6.98 KCAL/MOL
REMARK 923 INTER-LIGAND FREE ENERGY PREDICTED BY IDOCK:   -7.16 KCAL/MOL
REMARK 924 INTRA-LIGAND FREE ENERGY PREDICTED BY IDOCK:    0.18 KCAL/MOL
REMARK 927      BINDING AFFINITY PREDICTED BY RF-SCORE:    0.00 PKD
ROOT
ATOM      1  C5M   T A   1     -12.997  15.397  70.746  1.00  0.00    -0.510 C  
ATOM      2  C5    T A   1     -12.733  13.928  70.773  1.00  0.00    -0.383 C  
ATOM      3  C6    T A   1     -12.008  13.267  69.864  1.00  0.00    -0.330 C  
ATOM      4  N1    T A   1     -11.818  11.888  69.895  1.00  0.00    -0.340 N  
ATOM      5  O4    T A   1     -14.131  13.648  72.665  1.00  0.00    -0.746 OA 
ATOM      6  C2    T A   1     -12.492  11.125  70.842  1.00  0.00    -0.409 C  
ATOM      7  O2    T A   1     -12.647   9.908  70.788  1.00  0.00    -0.295 OA 
ATOM      8  H3    T A   1     -13.238  11.303  72.743  1.00  0.00     0.000 HD 
ATOM      9  N3    T A   1     -13.044  11.818  71.885  1.00  0.00    -0.445 N  
ATOM     10  C4    T A   1     -13.354  13.145  71.863  1.00  0.00    -0.455 C  
ENDROOT
BRANCH   4  11
ATOM     11  C1*   T A   1     -11.192  11.235  68.731  1.00  0.00    -0.250 C  
ATOM     12  C2*   T A   1      -9.828  11.731  68.256  1.00  0.00    -0.198 C  
ATOM     13  C3*   T A   1     -10.195  12.880  67.353  1.00  0.00    -0.230 C  
ATOM     14  C4*   T A   1     -11.421  12.317  66.647  1.00  0.00    -0.373 C  
ATOM     15  O3*   T A   1      -9.157  13.226  66.449  1.00  0.00    -0.423 OA 
ATOM     16  H3*   T A   1      -9.389  13.951  65.880  1.00  0.00     0.000 HD 
ATOM     17  O4*   T A   1     -12.061  11.416  67.581  1.00  0.00    -0.630 OA 
BRANCH  14  18
ATOM     18  C5*   T A   1     -12.405  13.394  66.190  1.00  0.00    -0.380 C  
ATOM     19  O5*   T A   1     -13.121  12.986  65.025  1.00  0.00    -0.761 OA 
ATOM     20  H5*   T A   1     -13.733  13.656  64.741  1.00  0.00     0.000 HD 
ENDBRANCH  14  18
ENDBRANCH   4  11
TORSDOF 2
ENDMDL
MODEL        5
REMARK 921   NORMALIZED FREE ENERGY PREDICTED BY IDOCK:   -5.93 KCAL/MOL
REMARK 922        TOTAL FREE ENERGY PREDICTED BY IDOCK:   -6.95 KCAL/MOL
REMARK 923 INTER-LIGAND FREE ENERGY PREDICTED BY IDOCK:   -6.68 KCAL/MOL
REMARK 924 INTRA-LIGAND FREE ENERGY PREDICTED BY IDOCK:   -0.27 KCAL/MOL
REMARK 927      BINDING AFFINITY PREDICTED BY RF-SCORE:    0.00 PKD
ROOT
ATOM      1  C5M   T A   1     -10.891  19.387  67.109  1.00  0.00    -0.561 C  
ATOM      2  C5    T A   1     -10.163  18.139  67.487  1.00  0.00    -0.382 C  
ATOM      3  C6    T A   1     -10.498  16.909  67.082  1.00  0.00    -0.296 C  
ATOM      4  N1    T A   1      -9.824  15.761  67.489  1.00  0.00    -0.228 N  
ATOM      5  O4    T A   1      -8.715  19.344  68.923  1.00  0.00    -0.365 OA 
ATOM      6  C2    T A   1      -8.820  15.860  68.447  1.00  0.00    -0.184 C  
ATOM      7  O2    T A   1      -8.370  14.921  69.096  1.00  0.00    -0.176 OA 
ATOM      8  H3    T A   1      -7.416  17.203  69.099  1.00  0.00     0.000 HD 
ATOM      9  N3    T A   1      -8.344  17.121  68.684  1.00  0.00    -0.258 N  
ATOM     10  C4    T A   1      -9.014  18.273  68.408  1.00  0.00    -0.309 C  
ENDROOT
BRANCH   4  11
ATOM     11  C1*   T A   1     -10.406  14.447  67.164  1.00  0.00    -0.262 C  
ATOM     12  C2*   T A   1      -9.681  13.549  66.163  1.00  0.00    -0.264 C  
ATOM     13  C3*   T A   1     -10.196  14.052  64.840  1.00  0.00    -0.348 C  
ATOM     14  C4*   T A   1     -11.662  14.298  65.172  1.00  0.00    -0.368 C  
ATOM     15  O3*   T A   1     -10.026  13.114  63.788  1.00  0.00    -0.741 OA 
ATOM     16  H3*   T A   1     -10.352  13.431  62.954  1.00  0.00     0.000 HD 
ATOM     17  O4*   T A   1     -11.716  14.659  66.572  1.00  0.00    -0.369 OA 
BRANCH  14  18
ATOM     18  C5*   T A   1     -12.302  15.392  64.317  1.00  0.00    -0.061 C  
ATOM     19  O5*   T A   1     -11.335  16.346  63.880  1.00  0.00    -1.510 OA 
ATOM     20  H5*   T A   1     -11.733  17.026  63.349  1.00  0.00     0.000 HD 
ENDBRANCH  14  18
ENDBRANCH   4  11
TORSDOF 2
ENDMDL
MODEL        6
REMARK 921   NORMALIZED FREE ENERGY PREDICTED BY IDOCK:   -5.82 KCAL/MOL
REMARK 922        TOTAL FREE ENERGY PREDICTED BY IDOCK:   -6.82 KCAL/MOL
REMARK 923 INTER-LIGAND FREE ENERGY PREDICTED BY IDOCK:   -6.50 KCAL/MOL
REMARK 924 INTRA-LIGAND FREE ENERGY PREDICTED BY IDOCK:   -0.32 KCAL/MOL
REMARK 927      BINDING AFFINITY PREDICTED BY RF-SCORE:    0.00 PKD
ROOT
ATOM      1  C5M   T A   1      -7.100  13.604  68.223  1.00  0.00    -0.110 C  
ATOM      2  C5    T A   1      -7.944  12.748  67.338  1.00  0.00    -0.179 C  
ATOM      3  C6    T A   1      -9.203  13.027  66.982  1.00  0.00    -0.232 C  
ATOM      4  N1    T A   1      -9.977  12.184  66.190  1.00  0.00    -0.228 N  
ATOM      5  O4    T A   1      -6.257  11.088  67.231  1.00  0.00    -0.058 OA 
ATOM      6  C2    T A   1      -9.479  10.935  65.829  1.00  0.00    -0.211 C  
ATOM      7  O2    T A   1     -10.155  10.003  65.404  1.00  0.00    -0.310 OA 
ATOM      8  H3    T A   1      -7.682  10.021  65.462  1.00  0.00     0.000 HD 
ATOM      9  N3    T A   1      -8.135  10.754  66.007  1.00  0.00    -0.159 N  
ATOM     10  C4    T A   1      -7.355  11.480  66.856  1.00  0.00    -0.140 C  
ENDROOT
BRANCH   4  11
ATOM     11  C1*   T A   1     -11.414  12.476  66.040  1.00  0.00    -0.377 C  
ATOM     12  C2*   T A   1     -12.067  12.270  64.675  1.00  0.00    -0.449 C  
ATOM     13  C3*   T A   1     -11.777  13.572  63.974  1.00  0.00    -0.395 C  
ATOM     14  C4*   T A   1     -11.986  14.566  65.108  1.00  0.00    -0.369 C  
ATOM     15  O3*   T A   1     -12.641  13.812  62.874  1.00  0.00    -0.944 OA 
ATOM     16  H3*   T A   1     -12.457  14.633  62.432  1.00  0.00     0.000 HD 
ATOM     17  O4*   T A   1     -11.627  13.883  66.332  1.00  0.00    -0.337 OA 
BRANCH  14  18
ATOM     18  C5*   T A   1     -11.161  15.844  64.953  1.00  0.00    -0.389 C  
ATOM     19  O5*   T A   1     -11.480  16.529  63.743  1.00  0.00    -1.615 OA 
ATOM     20  H5*   T A   1     -10.967  17.323  63.647  1.00  0.00     0.000 HD 
ENDBRANCH  14  18
ENDBRANCH   4  11
TORSDOF 2
ENDMDL
MODEL        7
REMARK 921   NORMALIZED FREE ENERGY PREDICTED BY IDOCK:   -5.80 KCAL/MOL
REMARK 922        TOTAL FREE ENERGY PREDICTED BY IDOCK:   -6.80 KCAL/MOL
REMARK 923 INTER-LIGAND FREE ENERGY PREDICTED BY IDOCK:   -6.42 KCAL/MOL
REMARK 924 INTRA-LIGAND FREE ENERGY PREDICTED BY IDOCK:   -0.38 KCAL/MOL
REMARK 927      BINDING AFFINITY PREDICTED BY RF-SCORE:    0.00 PKD
ROOT
ATOM      1  C5M   T A   1     -10.153   8.935  67.743  1.00  0.00    -0.263 C  
ATOM      2  C5    T A   1     -10.815  10.252  67.978  1.00  0.00    -0.325 C  
ATOM      3  C6    T A   1     -10.798  11.278  67.119  1.00  0.00    -0.270 C  
ATOM      4  N1    T A   1     -11.389  12.509  67.389  1.00  0.00    -0.293 N  
ATOM      5  O4    T A   1     -11.463   9.608  70.164  1.00  0.00    -0.242 OA 
ATOM      6  C2    T A   1     -11.934  12.746  68.646  1.00  0.00    -0.233 C  
ATOM      7  O2    T A   1     -12.204  13.854  69.100  1.00  0.00    -0.356 OA 
ATOM      8  H3    T A   1     -12.826  11.716  70.178  1.00  0.00     0.000 HD 
ATOM      9  N3    T A   1     -12.141  11.641  69.425  1.00  0.00    -0.293 N  
ATOM     10  C4    T A   1     -11.503  10.447  69.272  1.00  0.00    -0.215 C  
ENDROOT
BRANCH   4  11
ATOM     11  C1*   T A   1     -11.124  13.635  66.475  1.00  0.00    -0.305 C  
ATOM     12  C2*   T A   1     -12.237  14.095  65.535  1.00  0.00    -0.443 C  
ATOM     13  C3*   T A   1     -12.076  13.166  64.360  1.00  0.00    -0.410 C  
ATOM     14  C4*   T A   1     -10.560  13.094  64.249  1.00  0.00    -0.412 C  
ATOM     15  O3*   T A   1     -12.686  13.660  63.177  1.00  0.00    -0.841 OA 
ATOM     16  H3*   T A   1     -12.585  13.074  62.436  1.00  0.00     0.000 HD 
ATOM     17  O4*   T A   1     -10.037  13.259  65.588  1.00  0.00    -0.287 OA 
BRANCH  14  18
ATOM     18  C5*   T A   1     -10.057  11.784  63.642  1.00  0.00    -0.418 C  
ATOM     19  O5*   T A   1     -11.078  11.132  62.889  1.00  0.00    -0.812 OA 
ATOM     20  H5*   T A   1     -10.766  10.317  62.512  1.00  0.00     0.000 HD 
ENDBRANCH  14  18
ENDBRANCH   4  11
TORSDOF 2
ENDMDL
MODEL        8
REMARK 921   NORMALIZED FREE ENERGY PREDICTED BY IDOCK:   -5.79 KCAL/MOL
REMARK 922        TOTAL FREE ENERGY PREDICTED BY IDOCK:   -6.80 KCAL/MOL
REMARK 923 INTER-LIGAND FREE ENERGY PREDICTED BY IDOCK:   -6.53 KCAL/MOL
REMARK 924 INTRA-LIGAND FREE ENERGY PREDICTED BY IDOCK:   -0.26 KCAL/MOL
REMARK 927      BINDING AFFINITY PREDICTED BY RF-SCORE:    0.00 PKD
ROOT
ATOM      1  C5M   T A   1      -7.859  10.466  66.527  1.00  0.00    -0.124 C  
ATOM      2  C5    T A   1      -8.971  10.959  65.660  1.00  0.00    -0.209 C  
ATOM      3  C6    T A   1      -9.709  12.046  65.911  1.00  0.00    -0.239 C  
ATOM      4  N1    T A   1     -10.767  12.453  65.104  1.00  0.00    -0.283 N  
ATOM      5  O4    T A   1      -8.761   9.090  64.220  1.00  0.00    -0.185 OA 
ATOM      6  C2    T A   1     -11.167  11.649  64.041  1.00  0.00    -0.369 C  
ATOM      7  O2    T A   1     -12.243  11.736  63.456  1.00  0.00    -0.500 OA 
ATOM      8  H3    T A   1     -10.366  10.303  62.719  1.00  0.00     0.000 HD 
ATOM      9  N3    T A   1     -10.284  10.674  63.665  1.00  0.00    -0.257 N  
ATOM     10  C4    T A   1      -9.302  10.162  64.459  1.00  0.00    -0.289 C  
ENDROOT
BRANCH   4  11
ATOM     11  C1*   T A   1     -11.650  13.530  65.586  1.00  0.00    -0.325 C  
ATOM     12  C2*   T A   1     -12.197  14.539  64.578  1.00  0.00    -0.483 C  
ATOM     13  C3*   T A   1     -11.084  15.552  64.495  1.00  0.00    -0.274 C  
ATOM     14  C4*   T A   1     -10.659  15.639  65.954  1.00  0.00    -0.343 C  
ATOM     15  O3*   T A   1     -11.513  16.803  63.978  1.00  0.00    -1.481 OA 
ATOM     16  H3*   T A   1     -10.812  17.441  63.926  1.00  0.00     0.000 HD 
ATOM     17  O4*   T A   1     -10.908  14.339  66.538  1.00  0.00    -0.297 OA 
BRANCH  14  18
ATOM     18  C5*   T A   1      -9.192  16.029  66.136  1.00  0.00    -0.352 C  
ATOM     19  O5*   T A   1      -8.955  17.376  65.733  1.00  0.00    -0.521 OA 
ATOM     20  H5*   T A   1      -8.043  17.619  65.845  1.00  0.00     0.000 HD 
ENDBRANCH  14  18
ENDBRANCH   4  11
TORSDOF 2
ENDMDL
MODEL        9
REMARK 921   NORMALIZED FREE ENERGY PREDICTED BY IDOCK:   -5.79 KCAL/MOL
REMARK 922        TOTAL FREE ENERGY PREDICTED BY IDOCK:   -6.79 KCAL/MOL
REMARK 923 INTER-LIGAND FREE ENERGY PREDICTED BY IDOCK:   -6.85 KCAL/MOL
REMARK 924 INTRA-LIGAND FREE ENERGY PREDICTED BY IDOCK:    0.06 KCAL/MOL
REMARK 927      BINDING AFFINITY PREDICTED BY RF-SCORE:    0.00 PKD
ROOT
ATOM      1  C5M   T A   1      -9.493  10.797  62.987  1.00  0.00    -0.372 C  
ATOM      2  C5    T A   1     -10.126  11.094  64.306  1.00  0.00    -0.382 C  
ATOM      3  C6    T A   1     -10.915  12.146  64.555  1.00  0.00    -0.314 C  
ATOM      4  N1    T A   1     -11.453  12.417  65.809  1.00  0.00    -0.352 N  
ATOM      5  O4    T A   1      -9.016   9.264  65.321  1.00  0.00    -0.191 OA 
ATOM      6  C2    T A   1     -11.081  11.634  66.897  1.00  0.00    -0.308 C  
ATOM      7  O2    T A   1     -11.240  11.943  68.075  1.00  0.00    -0.220 OA 
ATOM      8  H3    T A   1     -10.483   9.717  67.307  1.00  0.00     0.000 HD 
ATOM      9  N3    T A   1     -10.463  10.451  66.599  1.00  0.00    -0.234 N  
ATOM     10  C4    T A   1      -9.824  10.179  65.427  1.00  0.00    -0.307 C  
ENDROOT
BRANCH   4  11
ATOM     11  C1*   T A   1     -12.123  13.712  66.026  1.00  0.00    -0.441 C  
ATOM     12  C2*   T A   1     -12.451  14.582  64.814  1.00  0.00    -0.333 C  
ATOM     13  C3*   T A   1     -11.165  15.336  64.596  1.00  0.00    -0.356 C  
ATOM     14  C4*   T A   1     -10.754  15.633  66.032  1.00  0.00    -0.317 C  
ATOM     15  O3*   T A   1     -11.340  16.515  63.825  1.00  0.00    -1.553 OA 
ATOM     16  H3*   T A   1     -10.529  16.990  63.688  1.00  0.00     0.000 HD 
ATOM     17  O4*   T A   1     -11.256  14.544  66.842  1.00  0.00    -0.316 OA 
BRANCH  14  18
ATOM     18  C5*   T A   1      -9.243  15.776  66.212  1.00  0.00    -0.333 C  
ATOM     19  O5*   T A   1      -8.797  17.086  65.868  1.00  0.00    -0.518 OA 
ATOM     20  H5*   T A   1      -7.857  17.175  65.980  1.00  0.00     0.000 HD 
ENDBRANCH  14  18
ENDBRANCH   4  11
TORSDOF 2
ENDMDL
MODEL       10
REMARK 921   NORMALIZED FREE ENERGY PREDICTED BY IDOCK:   -5.76 KCAL/MOL
REMARK 922        TOTAL FREE ENERGY PREDICTED BY IDOCK:   -6.75 KCAL/MOL
REMARK 923 INTER-LIGAND FREE ENERGY PREDICTED BY IDOCK:   -6.97 KCAL/MOL
REMARK 924 INTRA-LIGAND FREE ENERGY PREDICTED BY IDOCK:    0.22 KCAL/MOL
REMARK 927      BINDING AFFINITY PREDICTED BY RF-SCORE:    0.00 PKD
ROOT
ATOM      1  C5M   T A   1     -12.385  15.646  70.443  1.00  0.00    -0.427 C  
ATOM      2  C5    T A   1     -11.673  14.626  69.616  1.00  0.00    -0.358 C  
ATOM      3  C6    T A   1     -10.843  14.908  68.605  1.00  0.00    -0.251 C  
ATOM      4  N1    T A   1     -10.230  13.932  67.826  1.00  0.00    -0.234 N  
ATOM      5  O4    T A   1     -12.775  12.854  70.739  1.00  0.00    -0.252 OA 
ATOM      6  C2    T A   1     -10.562  12.594  68.016  1.00  0.00    -0.221 C  
ATOM      7  O2    T A   1     -10.332  11.690  67.219  1.00  0.00    -0.198 OA 
ATOM      8  H3    T A   1     -11.189  11.343  69.514  1.00  0.00     0.000 HD 
ATOM      9  N3    T A   1     -11.228  12.304  69.176  1.00  0.00    -0.250 N  
ATOM     10  C4    T A   1     -11.938  13.202  69.914  1.00  0.00    -0.317 C  
ENDROOT
BRANCH   4  11
ATOM     11  C1*   T A   1      -9.515  14.347  66.606  1.00  0.00    -0.283 C  
ATOM     12  C2*   T A   1      -9.800  15.729  66.021  1.00  0.00    -0.366 C  
ATOM     13  C3*   T A   1     -11.015  15.477  65.166  1.00  0.00    -0.409 C  
ATOM     14  C4*   T A   1     -10.671  14.122  64.562  1.00  0.00    -0.303 C  
ATOM     15  O3*   T A   1     -11.215  16.478  64.180  1.00  0.00    -1.355 OA 
ATOM     16  H3*   T A   1     -11.981  16.319  63.642  1.00  0.00     0.000 HD 
ATOM     17  O4*   T A   1      -9.860  13.426  65.537  1.00  0.00    -0.237 OA 
BRANCH  14  18
ATOM     18  C5*   T A   1     -11.901  13.288  64.203  1.00  0.00    -0.443 C  
ATOM     19  O5*   T A   1     -12.503  13.740  62.991  1.00  0.00    -1.068 OA 
ATOM     20  H5*   T A   1     -13.268  13.222  62.768  1.00  0.00     0.000 HD 
ENDBRANCH  14  18
ENDBRANCH   4  11
TORSDOF 2
ENDMDL
MODEL       11
REMARK 921   NORMALIZED FREE ENERGY PREDICTED BY IDOCK:   -5.75 KCAL/MOL
REMARK 922        TOTAL FREE ENERGY PREDICTED BY IDOCK:   -6.74 KCAL/MOL
REMARK 923 INTER-LIGAND FREE ENERGY PREDICTED BY IDOCK:   -6.41 KCAL/MOL
REMARK 924 INTRA-LIGAND FREE ENERGY PREDICTED BY IDOCK:   -0.33 KCAL/MOL
REMARK 927      BINDING AFFINITY PREDICTED BY RF-SCORE:    0.00 PKD
ROOT
ATOM      1  C5M   T A   1      -8.136  16.657  68.690  1.00  0.00    -0.237 C  
ATOM      2  C5    T A   1      -9.086  16.628  67.538  1.00  0.00    -0.204 C  
ATOM      3  C6    T A   1      -9.379  15.539  66.817  1.00  0.00    -0.245 C  
ATOM      4  N1    T A   1     -10.236  15.557  65.721  1.00  0.00    -0.337 N  
ATOM      5  O4    T A   1      -9.412  18.971  67.667  1.00  0.00    -0.298 OA 
ATOM      6  C2    T A   1     -10.740  16.771  65.266  1.00  0.00    -0.169 C  
ATOM      7  O2    T A   1     -11.245  16.955  64.162  1.00  0.00    -1.176 OA 
ATOM      8  H3    T A   1     -11.248  18.619  65.993  1.00  0.00     0.000 HD 
ATOM      9  N3    T A   1     -10.617  17.829  66.125  1.00  0.00    -0.296 N  
ATOM     10  C4    T A   1      -9.716  17.906  67.143  1.00  0.00    -0.289 C  
ENDROOT
BRANCH   4  11
ATOM     11  C1*   T A   1     -10.317  14.358  64.868  1.00  0.00    -0.389 C  
ATOM     12  C2*   T A   1     -11.682  13.927  64.335  1.00  0.00    -0.427 C  
ATOM     13  C3*   T A   1     -12.229  13.099  65.469  1.00  0.00    -0.461 C  
ATOM     14  C4*   T A   1     -10.981  12.348  65.911  1.00  0.00    -0.288 C  
ATOM     15  O3*   T A   1     -13.274  12.228  65.064  1.00  0.00    -0.462 OA 
ATOM     16  H3*   T A   1     -13.618  11.706  65.779  1.00  0.00     0.000 HD 
ATOM     17  O4*   T A   1      -9.855  13.216  65.638  1.00  0.00    -0.246 OA 
BRANCH  14  18
ATOM     18  C5*   T A   1     -11.001  11.956  67.388  1.00  0.00    -0.263 C  
ATOM     19  O5*   T A   1     -12.159  11.186  67.709  1.00  0.00    -0.626 OA 
ATOM     20  H5*   T A   1     -12.171  10.943  68.628  1.00  0.00     0.000 HD 
ENDBRANCH  14  18
ENDBRANCH   4  11
TORSDOF 2
ENDMDL
MODEL       12
REMARK 921   NORMALIZED FREE ENERGY PREDICTED BY IDOCK:   -5.73 KCAL/MOL
REMARK 922        TOTAL FREE ENERGY PREDICTED BY IDOCK:   -6.72 KCAL/MOL
REMARK 923 INTER-LIGAND FREE ENERGY PREDICTED BY IDOCK:   -6.47 KCAL/MOL
REMARK 924 INTRA-LIGAND FREE ENERGY PREDICTED BY IDOCK:   -0.25 KCAL/MOL
REMARK 927      BINDING AFFINITY PREDICTED BY RF-SCORE:    0.00 PKD
ROOT
ATOM      1  C5M   T A   1     -11.290  16.156  64.559  1.00  0.00    -0.273 C  
ATOM      2  C5    T A   1     -11.509  14.873  65.291  1.00  0.00    -0.336 C  
ATOM      3  C6    T A   1     -11.160  14.651  66.563  1.00  0.00    -0.329 C  
ATOM      4  N1    T A   1     -11.339  13.428  67.202  1.00  0.00    -0.302 N  
ATOM      5  O4    T A   1     -12.359  13.832  63.340  1.00  0.00    -0.750 OA 
ATOM      6  C2    T A   1     -11.801  12.336  66.474  1.00  0.00    -0.306 C  
ATOM      7  O2    T A   1     -11.717  11.164  66.831  1.00  0.00    -0.410 OA 
ATOM      8  H3    T A   1     -12.993  11.934  64.856  1.00  0.00     0.000 HD 
ATOM      9  N3    T A   1     -12.356  12.622  65.257  1.00  0.00    -0.488 N  
ATOM     10  C4    T A   1     -12.121  13.756  64.540  1.00  0.00    -0.428 C  
ENDROOT
BRANCH   4  11
ATOM     11  C1*   T A   1     -10.722  13.224  68.525  1.00  0.00    -0.262 C  
ATOM     12  C2*   T A   1     -11.430  12.324  69.536  1.00  0.00    -0.318 C  
ATOM     13  C3*   T A   1     -12.405  13.269  70.189  1.00  0.00    -0.236 C  
ATOM     14  C4*   T A   1     -11.556  14.528  70.305  1.00  0.00    -0.268 C  
ATOM     15  O3*   T A   1     -12.866  12.804  71.448  1.00  0.00    -0.370 OA 
ATOM     16  H3*   T A   1     -13.480  13.401  71.859  1.00  0.00     0.000 HD 
ATOM     17  O4*   T A   1     -10.632  14.512  69.192  1.00  0.00    -0.244 OA 
BRANCH  14  18
ATOM     18  C5*   T A   1     -12.379  15.816  70.292  1.00  0.00    -0.310 C  
ATOM     19  O5*   T A   1     -13.706  15.594  70.766  1.00  0.00    -0.843 OA 
ATOM     20  H5*   T A   1     -14.218  16.395  70.757  1.00  0.00     0.000 HD 
ENDBRANCH  14  18
ENDBRANCH   4  11
TORSDOF 2
ENDMDL
MODEL       13
REMARK 921   NORMALIZED FREE ENERGY PREDICTED BY IDOCK:   -5.73 KCAL/MOL
REMARK 922        TOTAL FREE ENERGY PREDICTED BY IDOCK:   -6.72 KCAL/MOL
REMARK 923 INTER-LIGAND FREE ENERGY PREDICTED BY IDOCK:   -6.62 KCAL/MOL
REMARK 924 INTRA-LIGAND FREE ENERGY PREDICTED BY IDOCK:   -0.11 KCAL/MOL
REMARK 927      BINDING AFFINITY PREDICTED BY RF-SCORE:    0.00 PKD
ROOT
ATOM      1  C5M   T A   1      -9.443  16.512  66.185  1.00  0.00    -0.347 C  
ATOM      2  C5    T A   1     -10.526  15.511  65.952  1.00  0.00    -0.356 C  
ATOM      3  C6    T A   1     -10.741  14.429  66.709  1.00  0.00    -0.292 C  
ATOM      4  N1    T A   1     -11.733  13.492  66.437  1.00  0.00    -0.351 N  
ATOM      5  O4    T A   1     -11.195  16.605  63.960  1.00  0.00    -1.052 OA 
ATOM      6  C2    T A   1     -12.479  13.604  65.269  1.00  0.00    -0.479 C  
ATOM      7  O2    T A   1     -13.154  12.705  64.774  1.00  0.00    -0.852 OA 
ATOM      8  H3    T A   1     -13.166  15.052  63.991  1.00  0.00     0.000 HD 
ATOM      9  N3    T A   1     -12.407  14.810  64.627  1.00  0.00    -0.402 N  
ATOM     10  C4    T A   1     -11.397  15.712  64.774  1.00  0.00    -0.343 C  
ENDROOT
BRANCH   4  11
ATOM     11  C1*   T A   1     -11.742  12.230  67.200  1.00  0.00    -0.326 C  
ATOM     12  C2*   T A   1     -11.034  12.184  68.553  1.00  0.00    -0.276 C  
ATOM     13  C3*   T A   1      -9.609  11.885  68.165  1.00  0.00    -0.195 C  
ATOM     14  C4*   T A   1      -9.817  10.876  67.045  1.00  0.00    -0.183 C  
ATOM     15  O3*   T A   1      -8.843  11.358  69.239  1.00  0.00    -0.376 OA 
ATOM     16  H3*   T A   1      -7.945  11.170  68.994  1.00  0.00     0.000 HD 
ATOM     17  O4*   T A   1     -11.072  11.212  66.409  1.00  0.00    -0.247 OA 
BRANCH  14  18
ATOM     18  C5*   T A   1      -8.686  10.870  66.016  1.00  0.00    -0.186 C  
ATOM     19  O5*   T A   1      -7.582  11.665  66.449  1.00  0.00    -0.352 OA 
ATOM     20  H5*   T A   1      -6.880  11.662  65.809  1.00  0.00     0.000 HD 
ENDBRANCH  14  18
ENDBRANCH   4  11
TORSDOF 2
ENDMDL
MODEL       14
REMARK 921   NORMALIZED FREE ENERGY PREDICTED BY IDOCK:   -5.62 KCAL/MOL
REMARK 922        TOTAL FREE ENERGY PREDICTED BY IDOCK:   -6.60 KCAL/MOL
REMARK 923 INTER-LIGAND FREE ENERGY PREDICTED BY IDOCK:   -6.43 KCAL/MOL
REMARK 924 INTRA-LIGAND FREE ENERGY PREDICTED BY IDOCK:   -0.18 KCAL/MOL
REMARK 927      BINDING AFFINITY PREDICTED BY RF-SCORE:    0.00 PKD
ROOT
ATOM      1  C5M   T A   1     -11.269  15.910  64.330  1.00  0.00    -0.242 C  
ATOM      2  C5    T A   1     -11.529  14.770  65.260  1.00  0.00    -0.352 C  
ATOM      3  C6    T A   1     -11.230  14.766  66.564  1.00  0.00    -0.342 C  
ATOM      4  N1    T A   1     -11.446  13.669  67.393  1.00  0.00    -0.318 N  
ATOM      5  O4    T A   1     -12.318  13.418  63.481  1.00  0.00    -0.711 OA 
ATOM      6  C2    T A   1     -11.893  12.472  66.843  1.00  0.00    -0.334 C  
ATOM      7  O2    T A   1     -11.836  11.377  67.395  1.00  0.00    -0.609 OA 
ATOM      8  H3    T A   1     -13.028  11.807  65.271  1.00  0.00     0.000 HD 
ATOM      9  N3    T A   1     -12.399  12.550  65.574  1.00  0.00    -0.402 N  
ATOM     10  C4    T A   1     -12.125  13.545  64.685  1.00  0.00    -0.409 C  
ENDROOT
BRANCH   4  11
ATOM     11  C1*   T A   1     -10.881  13.690  68.754  1.00  0.00    -0.255 C  
ATOM     12  C2*   T A   1     -11.707  14.301  69.884  1.00  0.00    -0.373 C  
ATOM     13  C3*   T A   1     -11.375  15.767  69.775  1.00  0.00    -0.339 C  
ATOM     14  C4*   T A   1      -9.886  15.706  69.467  1.00  0.00    -0.289 C  
ATOM     15  O3*   T A   1     -11.657  16.487  70.965  1.00  0.00    -0.598 OA 
ATOM     16  H3*   T A   1     -11.447  17.411  70.896  1.00  0.00     0.000 HD 
ATOM     17  O4*   T A   1      -9.662  14.480  68.731  1.00  0.00    -0.220 OA 
BRANCH  14  18
ATOM     18  C5*   T A   1      -9.385  16.905  68.661  1.00  0.00    -0.268 C  
ATOM     19  O5*   T A   1     -10.363  17.942  68.603  1.00  0.00    -0.367 OA 
ATOM     20  H5*   T A   1     -10.052  18.687  68.102  1.00  0.00     0.000 HD 
ENDBRANCH  14  18
ENDBRANCH   4  11
TORSDOF 2
ENDMDL
MODEL       15
REMARK 921   NORMALIZED FREE ENERGY PREDICTED BY IDOCK:   -5.56 KCAL/MOL
REMARK 922        TOTAL FREE ENERGY PREDICTED BY IDOCK:   -6.54 KCAL/MOL
REMARK 923 INTER-LIGAND FREE ENERGY PREDICTED BY IDOCK:   -6.13 KCAL/MOL
REMARK 924 INTRA-LIGAND FREE ENERGY PREDICTED BY IDOCK:   -0.41 KCAL/MOL
REMARK 927      BINDING AFFINITY PREDICTED BY RF-SCORE:    0.00 PKD
ROOT
ATOM      1  C5M   T A   1     -12.881  14.039  65.785  1.00  0.00    -0.416 C  
ATOM      2  C5    T A   1     -12.039  12.927  65.251  1.00  0.00    -0.496 C  
ATOM      3  C6    T A   1     -11.296  12.105  66.000  1.00  0.00    -0.358 C  
ATOM      4  N1    T A   1     -10.488  11.106  65.466  1.00  0.00    -0.266 N  
ATOM      5  O4    T A   1     -12.546  13.532  63.017  1.00  0.00    -0.716 OA 
ATOM      6  C2    T A   1     -10.345  11.005  64.086  1.00  0.00    -0.369 C  
ATOM      7  O2    T A   1      -9.454  10.385  63.513  1.00  0.00    -0.270 OA 
ATOM      8  H3    T A   1     -11.410  11.387  62.377  1.00  0.00     0.000 HD 
ATOM      9  N3    T A   1     -11.263  11.692  63.339  1.00  0.00    -0.370 N  
ATOM     10  C4    T A   1     -11.996  12.750  63.783  1.00  0.00    -0.510 C  
ENDROOT
BRANCH   4  11
ATOM     11  C1*   T A   1      -9.546  10.406  66.358  1.00  0.00    -0.179 C  
ATOM     12  C2*   T A   1      -9.801   8.936  66.688  1.00  0.00    -0.332 C  
ATOM     13  C3*   T A   1     -10.760   9.023  67.847  1.00  0.00    -0.138 C  
ATOM     14  C4*   T A   1     -10.176  10.195  68.622  1.00  0.00    -0.176 C  
ATOM     15  O3*   T A   1     -10.807   7.831  68.616  1.00  0.00    -0.396 OA 
ATOM     16  H3*   T A   1     -11.412   7.886  69.346  1.00  0.00     0.000 HD 
ATOM     17  O4*   T A   1      -9.558  11.071  67.650  1.00  0.00    -0.166 OA 
BRANCH  14  18
ATOM     18  C5*   T A   1     -11.217  10.961  69.439  1.00  0.00    -0.272 C  
ATOM     19  O5*   T A   1     -12.533  10.459  69.210  1.00  0.00    -0.699 OA 
ATOM     20  H5*   T A   1     -13.180  10.935  69.717  1.00  0.00     0.000 HD 
ENDBRANCH  14  18
ENDBRANCH   4  11
TORSDOF 2
ENDMDL
MODEL       16
REMARK 921   NORMALIZED FREE ENERGY PREDICTED BY IDOCK:   -5.55 KCAL/MOL
REMARK 922        TOTAL FREE ENERGY PREDICTED BY IDOCK:   -6.52 KCAL/MOL
REMARK 923 INTER-LIGAND FREE ENERGY PREDICTED BY IDOCK:   -6.32 KCAL/MOL
REMARK 924 INTRA-LIGAND FREE ENERGY PREDICTED BY IDOCK:   -0.20 KCAL/MOL
REMARK 927      BINDING AFFINITY PREDICTED BY RF-SCORE:    0.00 PKD
ROOT
ATOM      1  C5M   T A   1     -10.150  13.117  68.077  1.00  0.00    -0.232 C  
ATOM      2  C5    T A   1     -10.290  14.240  67.103  1.00  0.00    -0.262 C  
ATOM      3  C6    T A   1     -10.333  15.536  67.434  1.00  0.00    -0.266 C  
ATOM      4  N1    T A   1     -10.508  16.556  66.504  1.00  0.00    -0.294 N  
ATOM      5  O4    T A   1     -10.524  12.727  65.295  1.00  0.00    -0.282 OA 
ATOM      6  C2    T A   1     -10.761  16.235  65.174  1.00  0.00    -0.331 C  
ATOM      7  O2    T A   1     -11.221  17.006  64.337  1.00  0.00    -1.167 OA 
ATOM      8  H3    T A   1     -10.342  14.752  63.823  1.00  0.00     0.000 HD 
ATOM      9  N3    T A   1     -10.499  14.941  64.812  1.00  0.00    -0.350 N  
ATOM     10  C4    T A   1     -10.430  13.889  65.674  1.00  0.00    -0.312 C  
ENDROOT
BRANCH   4  11
ATOM     11  C1*   T A   1     -10.761  17.923  66.993  1.00  0.00    -0.209 C  
ATOM     12  C2*   T A   1     -10.292  19.105  66.148  1.00  0.00    -0.561 C  
ATOM     13  C3*   T A   1      -8.857  19.267  66.581  1.00  0.00    -0.334 C  
ATOM     14  C4*   T A   1      -8.975  19.017  68.078  1.00  0.00    -0.308 C  
ATOM     15  O3*   T A   1      -8.331  20.551  66.283  1.00  0.00    -0.533 OA 
ATOM     16  H3*   T A   1      -7.427  20.652  66.556  1.00  0.00     0.000 HD 
ATOM     17  O4*   T A   1     -10.071  18.091  68.261  1.00  0.00    -0.342 OA 
BRANCH  14  18
ATOM     18  C5*   T A   1      -7.697  18.455  68.701  1.00  0.00    -0.301 C  
ATOM     19  O5*   T A   1      -6.574  19.293  68.436  1.00  0.00    -0.240 OA 
ATOM     20  H5*   T A   1      -5.779  18.944  68.823  1.00  0.00     0.000 HD 
ENDBRANCH  14  18
ENDBRANCH   4  11
TORSDOF 2
ENDMDL
MODEL       17
REMARK 921   NORMALIZED FREE ENERGY PREDICTED BY IDOCK:   -5.49 KCAL/MOL
REMARK 922        TOTAL FREE ENERGY PREDICTED BY IDOCK:   -6.45 KCAL/MOL
REMARK 923 INTER-LIGAND FREE ENERGY PREDICTED BY IDOCK:   -6.40 KCAL/MOL
REMARK 924 INTRA-LIGAND FREE ENERGY PREDICTED BY IDOCK:   -0.06 KCAL/MOL
REMARK 927      BINDING AFFINITY PREDICTED BY RF-SCORE:    0.00 PKD
ROOT
ATOM      1  C5M   T A   1     -13.402  12.530  72.054  1.00  0.00    -0.528 C  
ATOM      2  C5    T A   1     -12.817  13.731  71.387  1.00  0.00    -0.449 C  
ATOM      3  C6    T A   1     -12.365  13.760  70.128  1.00  0.00    -0.323 C  
ATOM      4  N1    T A   1     -11.785  14.885  69.550  1.00  0.00    -0.301 N  
ATOM      5  O4    T A   1     -12.968  14.994  73.386  1.00  0.00    -0.498 OA 
ATOM      6  C2    T A   1     -11.553  16.013  70.331  1.00  0.00    -0.348 C  
ATOM      7  O2    T A   1     -10.797  16.933  70.034  1.00  0.00    -0.219 OA 
ATOM      8  H3    T A   1     -12.342  16.966  71.965  1.00  0.00     0.000 HD 
ATOM      9  N3    T A   1     -12.208  16.053  71.532  1.00  0.00    -0.452 N  
ATOM     10  C4    T A   1     -12.693  14.965  72.192  1.00  0.00    -0.323 C  
ENDROOT
BRANCH   4  11
ATOM     11  C1*   T A   1     -11.124  14.746  68.240  1.00  0.00    -0.274 C  
ATOM     12  C2*   T A   1     -11.978  14.424  67.016  1.00  0.00    -0.424 C  
ATOM     13  C3*   T A   1     -12.076  12.921  67.073  1.00  0.00    -0.230 C  
ATOM     14  C4*   T A   1     -10.663  12.553  67.504  1.00  0.00    -0.225 C  
ATOM     15  O3*   T A   1     -12.433  12.343  65.827  1.00  0.00    -0.615 OA 
ATOM     16  H3*   T A   1     -12.495  11.396  65.864  1.00  0.00     0.000 HD 
ATOM     17  O4*   T A   1     -10.178  13.646  68.319  1.00  0.00    -0.231 OA 
BRANCH  14  18
ATOM     18  C5*   T A   1     -10.589  11.239  68.282  1.00  0.00    -0.197 C  
ATOM     19  O5*   T A   1     -11.813  10.510  68.193  1.00  0.00    -0.762 OA 
ATOM     20  H5*   T A   1     -11.767   9.693  68.677  1.00  0.00     0.000 HD 
ENDBRANCH  14  18
ENDBRANCH   4  11
TORSDOF 2
ENDMDL
MODEL       18
REMARK 921   NORMALIZED FREE ENERGY PREDICTED BY IDOCK:   -5.46 KCAL/MOL
REMARK 922        TOTAL FREE ENERGY PREDICTED BY IDOCK:   -6.42 KCAL/MOL
REMARK 923 INTER-LIGAND FREE ENERGY PREDICTED BY IDOCK:   -6.46 KCAL/MOL
REMARK 924 INTRA-LIGAND FREE ENERGY PREDICTED BY IDOCK:    0.04 KCAL/MOL
REMARK 927      BINDING AFFINITY PREDICTED BY RF-SCORE:    0.00 PKD
ROOT
ATOM      1  C5M   T A   1      -9.091  16.636  65.862  1.00  0.00    -0.155 C  
ATOM      2  C5    T A   1     -10.139  15.588  65.679  1.00  0.00    -0.406 C  
ATOM      3  C6    T A   1     -10.112  14.376  66.246  1.00  0.00    -0.297 C  
ATOM      4  N1    T A   1     -11.084  13.406  66.019  1.00  0.00    -0.282 N  
ATOM      5  O4    T A   1     -11.305  16.936  64.119  1.00  0.00    -1.208 OA 
ATOM      6  C2    T A   1     -12.082  13.642  65.079  1.00  0.00    -0.392 C  
ATOM      7  O2    T A   1     -12.797  12.780  64.578  1.00  0.00    -0.701 OA 
ATOM      8  H3    T A   1     -13.124  15.213  64.274  1.00  0.00     0.000 HD 
ATOM      9  N3    T A   1     -12.227  14.942  64.676  1.00  0.00    -0.391 N  
ATOM     10  C4    T A   1     -11.265  15.901  64.773  1.00  0.00    -0.355 C  
ENDROOT
BRANCH   4  11
ATOM     11  C1*   T A   1     -10.846  12.038  66.513  1.00  0.00    -0.277 C  
ATOM     12  C2*   T A   1      -9.444  11.663  66.991  1.00  0.00    -0.191 C  
ATOM     13  C3*   T A   1      -8.757  11.269  65.709  1.00  0.00    -0.109 C  
ATOM     14  C4*   T A   1      -9.872  10.511  65.002  1.00  0.00    -0.306 C  
ATOM     15  O3*   T A   1      -7.605  10.467  65.924  1.00  0.00    -0.141 OA 
ATOM     16  H3*   T A   1      -7.172  10.219  65.115  1.00  0.00     0.000 HD 
ATOM     17  O4*   T A   1     -11.118  11.107  65.432  1.00  0.00    -0.145 OA 
BRANCH  14  18
ATOM     18  C5*   T A   1      -9.762  10.555  63.478  1.00  0.00    -0.319 C  
ATOM     19  O5*   T A   1     -10.870  11.239  62.894  1.00  0.00    -0.781 OA 
ATOM     20  H5*   T A   1     -10.802  11.267  61.946  1.00  0.00     0.000 HD 
ENDBRANCH  14  18
ENDBRANCH   4  11
TORSDOF 2
ENDMDL
MODEL       19
REMARK 921   NORMALIZED FREE ENERGY PREDICTED BY IDOCK:   -5.41 KCAL/MOL
REMARK 922        TOTAL FREE ENERGY PREDICTED BY IDOCK:   -6.37 KCAL/MOL
REMARK 923 INTER-LIGAND FREE ENERGY PREDICTED BY IDOCK:   -6.37 KCAL/MOL
REMARK 924 INTRA-LIGAND FREE ENERGY PREDICTED BY IDOCK:    0.00 KCAL/MOL
REMARK 927      BINDING AFFINITY PREDICTED BY RF-SCORE:    0.00 PKD
ROOT
ATOM      1  C5M   T A   1     -10.309   9.857  68.172  1.00  0.00    -0.232 C  
ATOM      2  C5    T A   1     -10.545  10.562  66.878  1.00  0.00    -0.303 C  
ATOM      3  C6    T A   1     -11.229  11.705  66.745  1.00  0.00    -0.308 C  
ATOM      4  N1    T A   1     -11.469  12.313  65.517  1.00  0.00    -0.350 N  
ATOM      5  O4    T A   1      -9.487   8.824  65.665  1.00  0.00    -0.200 OA 
ATOM      6  C2    T A   1     -11.083  11.668  64.346  1.00  0.00    -0.317 C  
ATOM      7  O2    T A   1     -11.493  11.942  63.222  1.00  0.00    -0.369 OA 
ATOM      8  H3    T A   1      -9.648  10.362  63.687  1.00  0.00     0.000 HD 
ATOM      9  N3    T A   1     -10.205  10.630  64.498  1.00  0.00    -0.349 N  
ATOM     10  C4    T A   1     -10.018   9.928  65.651  1.00  0.00    -0.283 C  
ENDROOT
BRANCH   4  11
ATOM     11  C1*   T A   1     -12.415  13.442  65.460  1.00  0.00    -0.483 C  
ATOM     12  C2*   T A   1     -12.392  14.358  64.238  1.00  0.00    -0.402 C  
ATOM     13  C3*   T A   1     -11.310  15.345  64.590  1.00  0.00    -0.355 C  
ATOM     14  C4*   T A   1     -11.584  15.564  66.071  1.00  0.00     0.209 C  
ATOM     15  O3*   T A   1     -11.391  16.546  63.837  1.00  0.00    -1.557 OA 
ATOM     16  H3*   T A   1     -10.708  17.168  64.060  1.00  0.00     0.000 HD 
ATOM     17  O4*   T A   1     -12.139  14.327  66.578  1.00  0.00    -0.431 OA 
BRANCH  14  18
ATOM     18  C5*   T A   1     -10.338  15.950  66.868  1.00  0.00    -0.291 C  
ATOM     19  O5*   T A   1      -9.322  16.487  66.021  1.00  0.00    -0.353 OA 
ATOM     20  H5*   T A   1      -8.547  16.727  66.517  1.00  0.00     0.000 HD 
ENDBRANCH  14  18
ENDBRANCH   4  11
TORSDOF 2
ENDMDL
MODEL       20
REMARK 921   NORMALIZED FREE ENERGY PREDICTED BY IDOCK:   -5.41 KCAL/MOL
REMARK 922        TOTAL FREE ENERGY PREDICTED BY IDOCK:   -6.37 KCAL/MOL
REMARK 923 INTER-LIGAND FREE ENERGY PREDICTED BY IDOCK:   -5.92 KCAL/MOL
REMARK 924 INTRA-LIGAND FREE ENERGY PREDICTED BY IDOCK:   -0.45 KCAL/MOL
REMARK 927      BINDING AFFINITY PREDICTED BY RF-SCORE:    0.00 PKD
ROOT
ATOM      1  C5M   T A   1     -13.214  14.117  72.106  1.00  0.00    -0.510 C  
ATOM      2  C5    T A   1     -12.683  13.343  70.944  1.00  0.00    -0.349 C  
ATOM      3  C6    T A   1     -12.298  13.882  69.781  1.00  0.00    -0.275 C  
ATOM      4  N1    T A   1     -11.849  13.127  68.702  1.00  0.00    -0.325 N  
ATOM      5  O4    T A   1     -13.060  11.288  72.060  1.00  0.00    -0.495 OA 
ATOM      6  C2    T A   1     -11.893  11.738  68.772  1.00  0.00    -0.320 C  
ATOM      7  O2    T A   1     -11.816  10.980  67.809  1.00  0.00    -0.605 OA 
ATOM      8  H3    T A   1     -11.779  10.243  70.170  1.00  0.00     0.000 HD 
ATOM      9  N3    T A   1     -12.074  11.208  70.021  1.00  0.00    -0.338 N  
ATOM     10  C4    T A   1     -12.615  11.872  71.079  1.00  0.00    -0.283 C  
ENDROOT
BRANCH   4  11
ATOM     11  C1*   T A   1     -11.662  13.794  67.401  1.00  0.00    -0.382 C  
ATOM     12  C2*   T A   1     -10.306  13.682  66.706  1.00  0.00    -0.268 C  
ATOM     13  C3*   T A   1      -9.521  14.801  67.340  1.00  0.00    -0.207 C  
ATOM     14  C4*   T A   1     -10.581  15.891  67.423  1.00  0.00    -0.315 C  
ATOM     15  O3*   T A   1      -8.396  15.192  66.568  1.00  0.00    -0.385 OA 
ATOM     16  H3*   T A   1      -7.901  15.898  66.968  1.00  0.00     0.000 HD 
ATOM     17  O4*   T A   1     -11.853  15.222  67.588  1.00  0.00    -0.265 OA 
BRANCH  14  18
ATOM     18  C5*   T A   1     -10.348  16.876  68.568  1.00  0.00    -0.336 C  
ATOM     19  O5*   T A   1      -9.028  17.418  68.531  1.00  0.00    -0.266 OA 
ATOM     20  H5*   T A   1      -8.883  18.031  69.243  1.00  0.00     0.000 HD 
ENDBRANCH  14  18
ENDBRANCH   4  11
TORSDOF 2
ENDMDL
MODEL       21
REMARK 921   NORMALIZED FREE ENERGY PREDICTED BY IDOCK:   -5.41 KCAL/MOL
REMARK 922        TOTAL FREE ENERGY PREDICTED BY IDOCK:   -6.36 KCAL/MOL
REMARK 923 INTER-LIGAND FREE ENERGY PREDICTED BY IDOCK:   -6.13 KCAL/MOL
REMARK 924 INTRA-LIGAND FREE ENERGY PREDICTED BY IDOCK:   -0.24 KCAL/MOL
REMARK 927      BINDING AFFINITY PREDICTED BY RF-SCORE:    0.00 PKD
ROOT
ATOM      1  C5M   T A   1     -10.267  18.232  66.152  1.00  0.00    -0.393 C  
ATOM      2  C5    T A   1     -10.557  17.187  67.178  1.00  0.00    -0.244 C  
ATOM      3  C6    T A   1     -11.124  16.003  66.922  1.00  0.00    -0.039 C  
ATOM      4  N1    T A   1     -11.420  15.069  67.910  1.00  0.00    -0.333 N  
ATOM      5  O4    T A   1      -9.822  18.610  68.925  1.00  0.00    -0.382 OA 
ATOM      6  C2    T A   1     -11.228  15.402  69.247  1.00  0.00    -0.296 C  
ATOM      7  O2    T A   1     -11.719  14.804  70.200  1.00  0.00    -0.270 OA 
ATOM      8  H3    T A   1     -10.017  16.588  70.399  1.00  0.00     0.000 HD 
ATOM      9  N3    T A   1     -10.456  16.506  69.482  1.00  0.00    -0.308 N  
ATOM     10  C4    T A   1     -10.229  17.505  68.584  1.00  0.00    -0.373 C  
ENDROOT
BRANCH   4  11
ATOM     11  C1*   T A   1     -12.240  13.897  67.552  1.00  0.00    -0.231 C  
ATOM     12  C2*   T A   1     -11.618  12.506  67.654  1.00  0.00    -0.416 C  
ATOM     13  C3*   T A   1     -10.919  12.363  66.327  1.00  0.00    -0.286 C  
ATOM     14  C4*   T A   1     -11.936  13.001  65.391  1.00  0.00    -0.414 C  
ATOM     15  O3*   T A   1     -10.642  11.012  65.991  1.00  0.00    -0.252 OA 
ATOM     16  H3*   T A   1     -10.201  10.922  65.154  1.00  0.00     0.000 HD 
ATOM     17  O4*   T A   1     -12.625  14.017  66.156  1.00  0.00    -0.468 OA 
BRANCH  14  18
ATOM     18  C5*   T A   1     -11.307  13.616  64.141  1.00  0.00    -0.304 C  
ATOM     19  O5*   T A   1     -12.290  14.236  63.312  1.00  0.00    -1.118 OA 
ATOM     20  H5*   T A   1     -11.899  14.617  62.535  1.00  0.00     0.000 HD 
ENDBRANCH  14  18
ENDBRANCH   4  11
TORSDOF 2
ENDMDL
MODEL       22
REMARK 921   NORMALIZED FREE ENERGY PREDICTED BY IDOCK:   -5.41 KCAL/MOL
REMARK 922        TOTAL FREE ENERGY PREDICTED BY IDOCK:   -6.36 KCAL/MOL
REMARK 923 INTER-LIGAND FREE ENERGY PREDICTED BY IDOCK:   -6.01 KCAL/MOL
REMARK 924 INTRA-LIGAND FREE ENERGY PREDICTED BY IDOCK:   -0.35 KCAL/MOL
REMARK 927      BINDING AFFINITY PREDICTED BY RF-SCORE:    0.00 PKD
ROOT
ATOM      1  C5M   T A   1     -12.947  10.826  70.992  1.00  0.00    -0.425 C  
ATOM      2  C5    T A   1     -12.532  12.206  70.601  1.00  0.00    -0.330 C  
ATOM      3  C6    T A   1     -11.751  12.499  69.555  1.00  0.00    -0.309 C  
ATOM      4  N1    T A   1     -11.346  13.794  69.243  1.00  0.00    -0.268 N  
ATOM      5  O4    T A   1     -13.599  13.134  72.501  1.00  0.00    -0.579 OA 
ATOM      6  C2    T A   1     -11.665  14.837  70.107  1.00  0.00    -0.301 C  
ATOM      7  O2    T A   1     -11.128  15.941  70.108  1.00  0.00    -0.306 OA 
ATOM      8  H3    T A   1     -13.127  15.362  71.444  1.00  0.00     0.000 HD 
ATOM      9  N3    T A   1     -12.633  14.569  71.036  1.00  0.00    -0.317 N  
ATOM     10  C4    T A   1     -12.985  13.322  71.457  1.00  0.00    -0.337 C  
ENDROOT
BRANCH   4  11
ATOM     11  C1*   T A   1     -10.314  13.983  68.209  1.00  0.00    -0.247 C  
ATOM     12  C2*   T A   1     -10.461  15.143  67.226  1.00  0.00    -0.271 C  
ATOM     13  C3*   T A   1     -11.354  14.557  66.162  1.00  0.00    -0.348 C  
ATOM     14  C4*   T A   1     -10.794  13.146  66.056  1.00  0.00    -0.272 C  
ATOM     15  O3*   T A   1     -11.285  15.264  64.933  1.00  0.00    -0.398 OA 
ATOM     16  H3*   T A   1     -11.848  14.895  64.263  1.00  0.00     0.000 HD 
ATOM     17  O4*   T A   1     -10.288  12.799  67.367  1.00  0.00    -0.220 OA 
BRANCH  14  18
ATOM     18  C5*   T A   1     -11.828  12.116  65.599  1.00  0.00    -0.276 C  
ATOM     19  O5*   T A   1     -12.961  12.744  65.000  1.00  0.00    -0.811 OA 
ATOM     20  H5*   T A   1     -13.603  12.104  64.716  1.00  0.00     0.000 HD 
ENDBRANCH  14  18
ENDBRANCH   4  11
TORSDOF 2
ENDMDL
MODEL       23
REMARK 921   NORMALIZED FREE ENERGY PREDICTED BY IDOCK:   -5.37 KCAL/MOL
REMARK 922        TOTAL FREE ENERGY PREDICTED BY IDOCK:   -6.32 KCAL/MOL
REMARK 923 INTER-LIGAND FREE ENERGY PREDICTED BY IDOCK:   -6.29 KCAL/MOL
REMARK 924 INTRA-LIGAND FREE ENERGY PREDICTED BY IDOCK:   -0.02 KCAL/MOL
REMARK 927      BINDING AFFINITY PREDICTED BY RF-SCORE:    0.00 PKD
ROOT
ATOM      1  C5M   T A   1     -10.310  14.193  65.250  1.00  0.00    -0.409 C  
ATOM      2  C5    T A   1     -10.760  14.821  66.529  1.00  0.00    -0.319 C  
ATOM      3  C6    T A   1     -10.432  16.055  66.929  1.00  0.00    -0.306 C  
ATOM      4  N1    T A   1     -10.832  16.593  68.148  1.00  0.00    -0.349 N  
ATOM      5  O4    T A   1     -11.839  12.823  67.203  1.00  0.00    -0.365 OA 
ATOM      6  C2    T A   1     -11.515  15.793  69.059  1.00  0.00    -0.391 C  
ATOM      7  O2    T A   1     -11.653  16.044  70.253  1.00  0.00    -0.335 OA 
ATOM      8  H3    T A   1     -12.798  14.195  69.074  1.00  0.00     0.000 HD 
ATOM      9  N3    T A   1     -12.029  14.627  68.561  1.00  0.00    -0.297 N  
ATOM     10  C4    T A   1     -11.594  14.001  67.433  1.00  0.00    -0.368 C  
ENDROOT
BRANCH   4  11
ATOM     11  C1*   T A   1     -10.238  17.868  68.587  1.00  0.00    -0.385 C  
ATOM     12  C2*   T A   1     -10.552  19.137  67.797  1.00  0.00    -0.498 C  
ATOM     13  C3*   T A   1      -9.529  19.094  66.691  1.00  0.00    -0.344 C  
ATOM     14  C4*   T A   1      -8.305  18.594  67.446  1.00  0.00    -0.260 C  
ATOM     15  O3*   T A   1      -9.316  20.361  66.086  1.00  0.00    -0.620 OA 
ATOM     16  H3*   T A   1      -8.671  20.334  65.390  1.00  0.00     0.000 HD 
ATOM     17  O4*   T A   1      -8.792  17.748  68.514  1.00  0.00    -0.282 OA 
BRANCH  14  18
ATOM     18  C5*   T A   1      -7.323  17.822  66.564  1.00  0.00    -0.248 C  
ATOM     19  O5*   T A   1      -7.020  18.538  65.368  1.00  0.00    -0.514 OA 
ATOM     20  H5*   T A   1      -6.410  18.058  64.820  1.00  0.00     0.000 HD 
ENDBRANCH  14  18
ENDBRANCH   4  11
TORSDOF 2
ENDMDL
MODEL       24
REMARK 921   NORMALIZED FREE ENERGY PREDICTED BY IDOCK:   -5.35 KCAL/MOL
REMARK 922        TOTAL FREE ENERGY PREDICTED BY IDOCK:   -6.30 KCAL/MOL
REMARK 923 INTER-LIGAND FREE ENERGY PREDICTED BY IDOCK:   -5.84 KCAL/MOL
REMARK 924 INTRA-LIGAND FREE ENERGY PREDICTED BY IDOCK:   -0.46 KCAL/MOL
REMARK 927      BINDING AFFINITY PREDICTED BY RF-SCORE:    0.00 PKD
ROOT
ATOM      1  C5M   T A   1     -12.570  12.086  63.333  1.00  0.00    -0.592 C  
ATOM      2  C5    T A   1     -12.254  12.762  64.626  1.00  0.00    -0.510 C  
ATOM      3  C6    T A   1     -12.030  12.129  65.783  1.00  0.00    -0.194 C  
ATOM      4  N1    T A   1     -11.781  12.792  66.981  1.00  0.00    -0.362 N  
ATOM      5  O4    T A   1     -12.538  14.902  63.650  1.00  0.00    -0.724 OA 
ATOM      6  C2    T A   1     -11.871  14.180  67.027  1.00  0.00    -0.429 C  
ATOM      7  O2    T A   1     -11.971  14.847  68.053  1.00  0.00    -0.306 OA 
ATOM      8  H3    T A   1     -11.604  15.800  65.799  1.00  0.00     0.000 HD 
ATOM      9  N3    T A   1     -11.879  14.818  65.816  1.00  0.00    -0.263 N  
ATOM     10  C4    T A   1     -12.226  14.241  64.632  1.00  0.00    -0.454 C  
ENDROOT
BRANCH   4  11
ATOM     11  C1*   T A   1     -11.769  12.013  68.232  1.00  0.00    -0.334 C  
ATOM     12  C2*   T A   1     -10.553  12.117  69.151  1.00  0.00    -0.046 C  
ATOM     13  C3*   T A   1      -9.610  11.100  68.562  1.00  0.00    -0.193 C  
ATOM     14  C4*   T A   1     -10.575   9.977  68.209  1.00  0.00    -0.226 C  
ATOM     15  O3*   T A   1      -8.604  10.687  69.474  1.00  0.00    -0.354 OA 
ATOM     16  H3*   T A   1      -8.010  10.045  69.103  1.00  0.00     0.000 HD 
ATOM     17  O4*   T A   1     -11.842  10.602  67.892  1.00  0.00    -0.485 OA 
BRANCH  14  18
ATOM     18  C5*   T A   1     -10.102   9.117  67.037  1.00  0.00    -0.249 C  
ATOM     19  O5*   T A   1      -8.707   9.290  66.793  1.00  0.00    -0.125 OA 
ATOM     20  H5*   T A   1      -8.412   8.755  66.064  1.00  0.00     0.000 HD 
ENDBRANCH  14  18
ENDBRANCH   4  11
TORSDOF 2
ENDMDL
MODEL       25
REMARK 921   NORMALIZED FREE ENERGY PREDICTED BY IDOCK:   -5.34 KCAL/MOL
REMARK 922        TOTAL FREE ENERGY PREDICTED BY IDOCK:   -6.29 KCAL/MOL
REMARK 923 INTER-LIGAND FREE ENERGY PREDICTED BY IDOCK:   -5.94 KCAL/MOL
REMARK 924 INTRA-LIGAND FREE ENERGY PREDICTED BY IDOCK:   -0.35 KCAL/MOL
REMARK 927      BINDING AFFINITY PREDICTED BY RF-SCORE:    0.00 PKD
ROOT
ATOM      1  C5M   T A   1     -12.032  16.064  69.432  1.00  0.00    -0.188 C  
ATOM      2  C5    T A   1     -11.914  14.609  69.115  1.00  0.00    -0.329 C  
ATOM      3  C6    T A   1     -11.950  14.092  67.882  1.00  0.00    -0.351 C  
ATOM      4  N1    T A   1     -11.881  12.726  67.625  1.00  0.00    -0.359 N  
ATOM      5  O4    T A   1     -11.868  14.048  71.417  1.00  0.00    -0.179 OA 
ATOM      6  C2    T A   1     -11.883  11.828  68.688  1.00  0.00    -0.310 C  
ATOM      7  O2    T A   1     -12.125  10.628  68.597  1.00  0.00    -0.410 OA 
ATOM      8  H3    T A   1     -11.287  11.731  70.647  1.00  0.00     0.000 HD 
ATOM      9  N3    T A   1     -11.626  12.362  69.921  1.00  0.00    -0.236 N  
ATOM     10  C4    T A   1     -11.787  13.674  70.253  1.00  0.00    -0.266 C  
ENDROOT
BRANCH   4  11
ATOM     11  C1*   T A   1     -12.151  12.249  66.257  1.00  0.00    -0.074 C  
ATOM     12  C2*   T A   1     -10.975  11.819  65.383  1.00  0.00    -0.352 C  
ATOM     13  C3*   T A   1     -10.516  13.124  64.787  1.00  0.00    -0.372 C  
ATOM     14  C4*   T A   1     -11.850  13.802  64.507  1.00  0.00    -0.417 C  
ATOM     15  O3*   T A   1      -9.735  12.952  63.614  1.00  0.00    -0.669 OA 
ATOM     16  H3*   T A   1      -9.446  13.776  63.239  1.00  0.00     0.000 HD 
ATOM     17  O4*   T A   1     -12.777  13.328  65.512  1.00  0.00    -0.474 OA 
BRANCH  14  18
ATOM     18  C5*   T A   1     -11.773  15.328  64.535  1.00  0.00    -0.305 C  
ATOM     19  O5*   T A   1     -10.426  15.781  64.669  1.00  0.00    -0.650 OA 
ATOM     20  H5*   T A   1     -10.378  16.730  64.688  1.00  0.00     0.000 HD 
ENDBRANCH  14  18
ENDBRANCH   4  11
TORSDOF 2
ENDMDL
MODEL       26
REMARK 921   NORMALIZED FREE ENERGY PREDICTED BY IDOCK:   -5.32 KCAL/MOL
REMARK 922        TOTAL FREE ENERGY PREDICTED BY IDOCK:   -6.27 KCAL/MOL
REMARK 923 INTER-LIGAND FREE ENERGY PREDICTED BY IDOCK:   -5.86 KCAL/MOL
REMARK 924 INTRA-LIGAND FREE ENERGY PREDICTED BY IDOCK:   -0.41 KCAL/MOL
REMARK 927      BINDING AFFINITY PREDICTED BY RF-SCORE:    0.00 PKD
ROOT
ATOM      1  C5M   T A   1     -12.442   9.915  71.588  1.00  0.00    -0.507 C  
ATOM      2  C5    T A   1     -11.935  10.981  70.674  1.00  0.00    -0.464 C  
ATOM      3  C6    T A   1     -12.317  12.263  70.710  1.00  0.00    -0.290 C  
ATOM      4  N1    T A   1     -11.857  13.222  69.813  1.00  0.00    -0.324 N  
ATOM      5  O4    T A   1     -10.660   9.408  69.445  1.00  0.00    -0.213 OA 
ATOM      6  C2    T A   1     -11.044  12.835  68.753  1.00  0.00    -0.260 C  
ATOM      7  O2    T A   1     -10.825  13.507  67.749  1.00  0.00    -0.246 OA 
ATOM      8  H3    T A   1      -9.651  11.401  68.300  1.00  0.00     0.000 HD 
ATOM      9  N3    T A   1     -10.489  11.588  68.851  1.00  0.00    -0.207 N  
ATOM     10  C4    T A   1     -10.970  10.579  69.628  1.00  0.00    -0.283 C  
ENDROOT
BRANCH   4  11
ATOM     11  C1*   T A   1     -12.505  14.546  69.800  1.00  0.00    -0.215 C  
ATOM     12  C2*   T A   1     -11.653  15.784  70.076  1.00  0.00    -0.361 C  
ATOM     13  C3*   T A   1     -11.652  15.851  71.581  1.00  0.00    -0.461 C  
ATOM     14  C4*   T A   1     -13.092  15.468  71.891  1.00  0.00    -0.454 C  
ATOM     15  O3*   T A   1     -11.311  17.137  72.076  1.00  0.00    -0.090 OA 
ATOM     16  H3*   T A   1     -11.311  17.179  73.025  1.00  0.00     0.000 HD 
ATOM     17  O4*   T A   1     -13.519  14.570  70.840  1.00  0.00    -0.354 OA 
BRANCH  14  18
ATOM     18  C5*   T A   1     -13.262  14.803  73.257  1.00  0.00    -0.343 C  
ATOM     19  O5*   T A   1     -13.090  15.740  74.319  1.00  0.00    -0.787 OA 
ATOM     20  H5*   T A   1     -13.195  15.327  75.169  1.00  0.00     0.000 HD 
ENDBRANCH  14  18
ENDBRANCH   4  11
TORSDOF 2
ENDMDL
MODEL       27
REMARK 921   NORMALIZED FREE ENERGY PREDICTED BY IDOCK:   -5.30 KCAL/MOL
REMARK 922        TOTAL FREE ENERGY PREDICTED BY IDOCK:   -6.24 KCAL/MOL
REMARK 923 INTER-LIGAND FREE ENERGY PREDICTED BY IDOCK:   -6.43 KCAL/MOL
REMARK 924 INTRA-LIGAND FREE ENERGY PREDICTED BY IDOCK:    0.18 KCAL/MOL
REMARK 927      BINDING AFFINITY PREDICTED BY RF-SCORE:    0.00 PKD
ROOT
ATOM      1  C5M   T A   1     -11.878  11.975  69.094  1.00  0.00    -0.369 C  
ATOM      2  C5    T A   1     -11.695  13.234  68.312  1.00  0.00    -0.388 C  
ATOM      3  C6    T A   1     -11.670  13.305  66.976  1.00  0.00    -0.389 C  
ATOM      4  N1    T A   1     -11.452  14.489  66.279  1.00  0.00    -0.353 N  
ATOM      5  O4    T A   1     -11.373  14.492  70.293  1.00  0.00    -0.244 OA 
ATOM      6  C2    T A   1     -11.136  15.649  66.980  1.00  0.00    -0.200 C  
ATOM      7  O2    T A   1     -10.638  16.657  66.488  1.00  0.00    -0.286 OA 
ATOM      8  H3    T A   1     -11.489  16.510  68.806  1.00  0.00     0.000 HD 
ATOM      9  N3    T A   1     -11.379  15.617  68.326  1.00  0.00    -0.350 N  
ATOM     10  C4    T A   1     -11.487  14.484  69.074  1.00  0.00    -0.290 C  
ENDROOT
BRANCH   4  11
ATOM     11  C1*   T A   1     -11.224  14.422  64.824  1.00  0.00    -0.387 C  
ATOM     12  C2*   T A   1     -12.299  13.794  63.940  1.00  0.00    -0.346 C  
ATOM     13  C3*   T A   1     -11.966  12.326  64.013  1.00  0.00    -0.462 C  
ATOM     14  C4*   T A   1     -10.445  12.370  63.960  1.00  0.00    -0.416 C  
ATOM     15  O3*   T A   1     -12.527  11.578  62.945  1.00  0.00    -0.964 OA 
ATOM     16  H3*   T A   1     -12.316  10.653  62.991  1.00  0.00     0.000 HD 
ATOM     17  O4*   T A   1     -10.042  13.612  64.584  1.00  0.00    -0.357 OA 
BRANCH  14  18
ATOM     18  C5*   T A   1      -9.780  11.185  64.661  1.00  0.00    -0.262 C  
ATOM     19  O5*   T A   1      -8.518  10.872  64.074  1.00  0.00    -0.362 OA 
ATOM     20  H5*   T A   1      -8.104  10.135  64.509  1.00  0.00     0.000 HD 
ENDBRANCH  14  18
ENDBRANCH   4  11
TORSDOF 2
ENDMDL
MODEL       28
REMARK 921   NORMALIZED FREE ENERGY PREDICTED BY IDOCK:   -5.22 KCAL/MOL
REMARK 922        TOTAL FREE ENERGY PREDICTED BY IDOCK:   -6.16 KCAL/MOL
REMARK 923 INTER-LIGAND FREE ENERGY PREDICTED BY IDOCK:   -5.90 KCAL/MOL
REMARK 924 INTRA-LIGAND FREE ENERGY PREDICTED BY IDOCK:   -0.25 KCAL/MOL
REMARK 927      BINDING AFFINITY PREDICTED BY RF-SCORE:    0.00 PKD
ROOT
ATOM      1  C5M   T A   1     -12.956  12.248  71.829  1.00  0.00    -0.431 C  
ATOM      2  C5    T A   1     -12.252  11.720  70.623  1.00  0.00    -0.443 C  
ATOM      3  C6    T A   1     -12.113  12.384  69.470  1.00  0.00    -0.189 C  
ATOM      4  N1    T A   1     -11.489  11.845  68.349  1.00  0.00    -0.273 N  
ATOM      5  O4    T A   1     -11.896   9.625  71.670  1.00  0.00    -0.379 OA 
ATOM      6  C2    T A   1     -11.079  10.515  68.367  1.00  0.00    -0.281 C  
ATOM      7  O2    T A   1     -10.801   9.849  67.373  1.00  0.00    -0.280 OA 
ATOM      8  H3    T A   1     -10.428   9.103  69.702  1.00  0.00     0.000 HD 
ATOM      9  N3    T A   1     -11.024   9.924  69.599  1.00  0.00    -0.243 N  
ATOM     10  C4    T A   1     -11.707  10.348  70.699  1.00  0.00    -0.351 C  
ENDROOT
BRANCH   4  11
ATOM     11  C1*   T A   1     -11.584  12.570  67.069  1.00  0.00    -0.368 C  
ATOM     12  C2*   T A   1     -10.299  12.878  66.302  1.00  0.00    -0.278 C  
ATOM     13  C3*   T A   1      -9.837  14.162  66.942  1.00  0.00    -0.265 C  
ATOM     14  C4*   T A   1     -11.161  14.890  67.123  1.00  0.00    -0.343 C  
ATOM     15  O3*   T A   1      -8.924  14.886  66.131  1.00  0.00    -0.466 OA 
ATOM     16  H3*   T A   1      -8.633  15.695  66.535  1.00  0.00     0.000 HD 
ATOM     17  O4*   T A   1     -12.171  13.874  67.324  1.00  0.00    -0.394 OA 
BRANCH  14  18
ATOM     18  C5*   T A   1     -11.158  15.872  68.296  1.00  0.00    -0.345 C  
ATOM     19  O5*   T A   1     -12.344  15.754  69.080  1.00  0.00    -0.575 OA 
ATOM     20  H5*   T A   1     -12.342  16.365  69.808  1.00  0.00     0.000 HD 
ENDBRANCH  14  18
ENDBRANCH   4  11
TORSDOF 2
ENDMDL
MODEL       29
REMARK 921   NORMALIZED FREE ENERGY PREDICTED BY IDOCK:   -5.22 KCAL/MOL
REMARK 922        TOTAL FREE ENERGY PREDICTED BY IDOCK:   -6.16 KCAL/MOL
REMARK 923 INTER-LIGAND FREE ENERGY PREDICTED BY IDOCK:   -5.79 KCAL/MOL
REMARK 924 INTRA-LIGAND FREE ENERGY PREDICTED BY IDOCK:   -0.37 KCAL/MOL
REMARK 927      BINDING AFFINITY PREDICTED BY RF-SCORE:    0.00 PKD
ROOT
ATOM      1  C5M   T A   1     -12.211  14.424  64.128  1.00  0.00    -0.393 C  
ATOM      2  C5    T A   1     -11.318  14.433  65.325  1.00  0.00    -0.346 C  
ATOM      3  C6    T A   1     -10.385  15.359  65.573  1.00  0.00    -0.387 C  
ATOM      4  N1    T A   1      -9.539  15.313  66.677  1.00  0.00    -0.242 N  
ATOM      5  O4    T A   1     -12.190  12.360  66.069  1.00  0.00    -0.636 OA 
ATOM      6  C2    T A   1      -9.570  14.206  67.519  1.00  0.00    -0.223 C  
ATOM      7  O2    T A   1      -8.695  13.908  68.326  1.00  0.00    -0.174 OA 
ATOM      8  H3    T A   1     -10.893  12.785  68.176  1.00  0.00     0.000 HD 
ATOM      9  N3    T A   1     -10.658  13.386  67.386  1.00  0.00    -0.250 N  
ATOM     10  C4    T A   1     -11.450  13.313  66.281  1.00  0.00    -0.325 C  
ENDROOT
BRANCH   4  11
ATOM     11  C1*   T A   1      -8.407  16.255  66.740  1.00  0.00    -0.253 C  
ATOM     12  C2*   T A   1      -8.093  16.939  68.069  1.00  0.00    -0.194 C  
ATOM     13  C3*   T A   1      -9.020  18.127  68.052  1.00  0.00    -0.283 C  
ATOM     14  C4*   T A   1      -8.921  18.553  66.593  1.00  0.00    -0.295 C  
ATOM     15  O3*   T A   1      -8.620  19.154  68.947  1.00  0.00    -0.348 OA 
ATOM     16  H3*   T A   1      -9.204  19.902  68.936  1.00  0.00     0.000 HD 
ATOM     17  O4*   T A   1      -8.673  17.352  65.825  1.00  0.00    -0.522 OA 
BRANCH  14  18
ATOM     18  C5*   T A   1     -10.177  19.259  66.082  1.00  0.00    -0.470 C  
ATOM     19  O5*   T A   1     -11.074  19.567  67.147  1.00  0.00    -0.446 OA 
ATOM     20  H5*   T A   1     -11.855  20.005  66.829  1.00  0.00     0.000 HD 
ENDBRANCH  14  18
ENDBRANCH   4  11
TORSDOF 2
ENDMDL
MODEL       30
REMARK 921   NORMALIZED FREE ENERGY PREDICTED BY IDOCK:   -5.22 KCAL/MOL
REMARK 922        TOTAL FREE ENERGY PREDICTED BY IDOCK:   -6.16 KCAL/MOL
REMARK 923 INTER-LIGAND FREE ENERGY PREDICTED BY IDOCK:   -6.25 KCAL/MOL
REMARK 924 INTRA-LIGAND FREE ENERGY PREDICTED BY IDOCK:    0.09 KCAL/MOL
REMARK 927      BINDING AFFINITY PREDICTED BY RF-SCORE:    0.00 PKD
ROOT
ATOM      1  C5M   T A   1     -12.990  11.022  71.774  1.00  0.00    -0.544 C  
ATOM      2  C5    T A   1     -12.772  12.331  71.090  1.00  0.00    -0.340 C  
ATOM      3  C6    T A   1     -12.045  12.500  69.979  1.00  0.00    -0.266 C  
ATOM      4  N1    T A   1     -11.827  13.742  69.392  1.00  0.00    -0.320 N  
ATOM      5  O4    T A   1     -13.949  13.487  72.790  1.00  0.00    -0.733 OA 
ATOM      6  C2    T A   1     -12.284  14.891  70.029  1.00  0.00    -0.333 C  
ATOM      7  O2    T A   1     -11.905  16.033  69.782  1.00  0.00    -0.312 OA 
ATOM      8  H3    T A   1     -13.798  15.483  71.277  1.00  0.00     0.000 HD 
ATOM      9  N3    T A   1     -13.199  14.696  71.026  1.00  0.00    -0.375 N  
ATOM     10  C4    T A   1     -13.373  13.531  71.710  1.00  0.00    -0.397 C  
ENDROOT
BRANCH   4  11
ATOM     11  C1*   T A   1     -10.835  13.846  68.306  1.00  0.00    -0.249 C  
ATOM     12  C2*   T A   1     -11.328  14.108  66.884  1.00  0.00    -0.343 C  
ATOM     13  C3*   T A   1     -11.654  12.722  66.390  1.00  0.00    -0.378 C  
ATOM     14  C4*   T A   1     -10.500  11.924  66.979  1.00  0.00    -0.224 C  
ATOM     15  O3*   T A   1     -11.708  12.638  64.974  1.00  0.00    -0.326 OA 
ATOM     16  H3*   T A   1     -11.913  11.764  64.663  1.00  0.00     0.000 HD 
ATOM     17  O4*   T A   1     -10.125  12.582  68.212  1.00  0.00    -0.219 OA 
BRANCH  14  18
ATOM     18  C5*   T A   1     -10.850  10.459  67.246  1.00  0.00    -0.264 C  
ATOM     19  O5*   T A   1     -12.023  10.340  68.049  1.00  0.00    -0.625 OA 
ATOM     20  H5*   T A   1     -12.240   9.430  68.216  1.00  0.00     0.000 HD 
ENDBRANCH  14  18
ENDBRANCH   4  11
TORSDOF 2
ENDMDL
MODEL       31
REMARK 921   NORMALIZED FREE ENERGY PREDICTED BY IDOCK:   -5.21 KCAL/MOL
REMARK 922        TOTAL FREE ENERGY PREDICTED BY IDOCK:   -6.15 KCAL/MOL
REMARK 923 INTER-LIGAND FREE ENERGY PREDICTED BY IDOCK:   -5.71 KCAL/MOL
REMARK 924 INTRA-LIGAND FREE ENERGY PREDICTED BY IDOCK:   -0.43 KCAL/MOL
REMARK 927      BINDING AFFINITY PREDICTED BY RF-SCORE:    0.00 PKD
ROOT
ATOM      1  C5M   T A   1     -13.140  11.053  71.831  1.00  0.00    -0.525 C  
ATOM      2  C5    T A   1     -12.178  10.514  70.824  1.00  0.00    -0.468 C  
ATOM      3  C6    T A   1     -12.029  10.987  69.582  1.00  0.00    -0.353 C  
ATOM      4  N1    T A   1     -11.152  10.432  68.654  1.00  0.00    -0.258 N  
ATOM      5  O4    T A   1     -11.519   8.775  72.293  1.00  0.00    -0.362 OA 
ATOM      6  C2    T A   1     -10.467   9.264  68.972  1.00  0.00    -0.216 C  
ATOM      7  O2    T A   1      -9.914   8.527  68.161  1.00  0.00    -0.168 OA 
ATOM      8  H3    T A   1      -9.713   8.298  70.616  1.00  0.00     0.000 HD 
ATOM      9  N3    T A   1     -10.456   8.921  70.297  1.00  0.00    -0.202 N  
ATOM     10  C4    T A   1     -11.360   9.347  71.221  1.00  0.00    -0.366 C  
ENDROOT
BRANCH   4  11
ATOM     11  C1*   T A   1     -11.225  10.886  67.254  1.00  0.00    -0.233 C  
ATOM     12  C2*   T A   1      -9.957  11.413  66.585  1.00  0.00    -0.239 C  
ATOM     13  C3*   T A   1      -9.944  12.860  67.004  1.00  0.00    -0.244 C  
ATOM     14  C4*   T A   1     -11.422  13.209  66.893  1.00  0.00    -0.341 C  
ATOM     15  O3*   T A   1      -9.130  13.670  66.170  1.00  0.00    -0.475 OA 
ATOM     16  H3*   T A   1      -9.122  14.582  66.434  1.00  0.00     0.000 HD 
ATOM     17  O4*   T A   1     -12.158  11.997  67.180  1.00  0.00    -0.587 OA 
BRANCH  14  18
ATOM     18  C5*   T A   1     -11.853  14.328  67.841  1.00  0.00    -0.358 C  
ATOM     19  O5*   T A   1     -11.160  15.544  67.563  1.00  0.00    -0.321 OA 
ATOM     20  H5*   T A   1     -11.428  16.240  68.153  1.00  0.00     0.000 HD 
ENDBRANCH  14  18
ENDBRANCH   4  11
TORSDOF 2
ENDMDL
MODEL       32
REMARK 921   NORMALIZED FREE ENERGY PREDICTED BY IDOCK:   -5.21 KCAL/MOL
REMARK 922        TOTAL FREE ENERGY PREDICTED BY IDOCK:   -6.14 KCAL/MOL
REMARK 923 INTER-LIGAND FREE ENERGY PREDICTED BY IDOCK:   -5.68 KCAL/MOL
REMARK 924 INTRA-LIGAND FREE ENERGY PREDICTED BY IDOCK:   -0.46 KCAL/MOL
REMARK 927      BINDING AFFINITY PREDICTED BY RF-SCORE:    0.00 PKD
ROOT
ATOM      1  C5M   T A   1      -8.530  15.888  67.913  1.00  0.00    -0.164 C  
ATOM      2  C5    T A   1      -8.423  14.462  67.483  1.00  0.00    -0.202 C  
ATOM      3  C6    T A   1      -9.441  13.727  67.020  1.00  0.00    -0.255 C  
ATOM      4  N1    T A   1      -9.316  12.386  66.668  1.00  0.00    -0.223 N  
ATOM      5  O4    T A   1      -6.150  14.367  68.144  1.00  0.00    -0.112 OA 
ATOM      6  C2    T A   1      -8.113  11.726  66.902  1.00  0.00    -0.160 C  
ATOM      7  O2    T A   1      -7.970  10.507  66.920  1.00  0.00    -0.115 OA 
ATOM      8  H3    T A   1      -6.107  12.132  67.003  1.00  0.00     0.000 HD 
ATOM      9  N3    T A   1      -7.034  12.526  67.162  1.00  0.00    -0.109 N  
ATOM     10  C4    T A   1      -7.104  13.808  67.617  1.00  0.00    -0.176 C  
ENDROOT
BRANCH   4  11
ATOM     11  C1*   T A   1     -10.538  11.613  66.382  1.00  0.00    -0.258 C  
ATOM     12  C2*   T A   1     -10.656  10.895  65.040  1.00  0.00    -0.287 C  
ATOM     13  C3*   T A   1     -11.185  11.978  64.136  1.00  0.00    -0.373 C  
ATOM     14  C4*   T A   1     -12.182  12.666  65.058  1.00  0.00    -0.476 C  
ATOM     15  O3*   T A   1     -11.795  11.467  62.960  1.00  0.00    -0.903 OA 
ATOM     16  H3*   T A   1     -12.129  12.150  62.390  1.00  0.00     0.000 HD 
ATOM     17  O4*   T A   1     -11.670  12.523  66.404  1.00  0.00    -0.374 OA 
BRANCH  14  18
ATOM     18  C5*   T A   1     -12.393  14.144  64.727  1.00  0.00    -0.417 C  
ATOM     19  O5*   T A   1     -12.382  14.370  63.318  1.00  0.00    -1.079 OA 
ATOM     20  H5*   T A   1     -12.513  15.288  63.112  1.00  0.00     0.000 HD 
ENDBRANCH  14  18
ENDBRANCH   4  11
TORSDOF 2
ENDMDL
MODEL       33
REMARK 921   NORMALIZED FREE ENERGY PREDICTED BY IDOCK:   -5.17 KCAL/MOL
REMARK 922        TOTAL FREE ENERGY PREDICTED BY IDOCK:   -6.10 KCAL/MOL
REMARK 923 INTER-LIGAND FREE ENERGY PREDICTED BY IDOCK:   -5.81 KCAL/MOL
REMARK 924 INTRA-LIGAND FREE ENERGY PREDICTED BY IDOCK:   -0.29 KCAL/MOL
REMARK 927      BINDING AFFINITY PREDICTED BY RF-SCORE:    0.00 PKD
ROOT
ATOM      1  C5M   T A   1     -11.969  15.911  71.605  1.00  0.00    -0.553 C  
ATOM      2  C5    T A   1     -11.706  15.411  70.223  1.00  0.00    -0.355 C  
ATOM      3  C6    T A   1     -11.364  16.182  69.185  1.00  0.00    -0.323 C  
ATOM      4  N1    T A   1     -11.169  15.688  67.898  1.00  0.00    -0.341 N  
ATOM      5  O4    T A   1     -12.307  13.203  70.840  1.00  0.00    -0.364 OA 
ATOM      6  C2    T A   1     -11.443  14.351  67.629  1.00  0.00    -0.346 C  
ATOM      7  O2    T A   1     -11.600  13.875  66.508  1.00  0.00    -0.337 OA 
ATOM      8  H3    T A   1     -11.436  12.536  68.582  1.00  0.00     0.000 HD 
ATOM      9  N3    T A   1     -11.575  13.537  68.721  1.00  0.00    -0.300 N  
ATOM     10  C4    T A   1     -11.878  13.962  69.979  1.00  0.00    -0.315 C  
ENDROOT
BRANCH   4  11
ATOM     11  C1*   T A   1     -11.012  16.647  66.789  1.00  0.00     0.078 C  
ATOM     12  C2*   T A   1      -9.767  16.555  65.909  1.00  0.00    -0.303 C  
ATOM     13  C3*   T A   1      -8.758  17.361  66.686  1.00  0.00    -0.260 C  
ATOM     14  C4*   T A   1      -9.623  18.513  67.180  1.00  0.00    -0.295 C  
ATOM     15  O3*   T A   1      -7.669  17.800  65.888  1.00  0.00    -0.501 OA 
ATOM     16  H3*   T A   1      -7.034  18.308  66.379  1.00  0.00     0.000 HD 
ATOM     17  O4*   T A   1     -10.961  17.987  67.347  1.00  0.00    -0.293 OA 
BRANCH  14  18
ATOM     18  C5*   T A   1      -9.127  19.125  68.490  1.00  0.00    -0.371 C  
ATOM     19  O5*   T A   1     -10.210  19.598  69.289  1.00  0.00    -0.629 OA 
ATOM     20  H5*   T A   1      -9.902  19.979  70.103  1.00  0.00     0.000 HD 
ENDBRANCH  14  18
ENDBRANCH   4  11
TORSDOF 2
ENDMDL
MODEL       34
REMARK 921   NORMALIZED FREE ENERGY PREDICTED BY IDOCK:   -5.17 KCAL/MOL
REMARK 922        TOTAL FREE ENERGY PREDICTED BY IDOCK:   -6.09 KCAL/MOL
REMARK 923 INTER-LIGAND FREE ENERGY PREDICTED BY IDOCK:   -5.62 KCAL/MOL
REMARK 924 INTRA-LIGAND FREE ENERGY PREDICTED BY IDOCK:   -0.47 KCAL/MOL
REMARK 927      BINDING AFFINITY PREDICTED BY RF-SCORE:    0.00 PKD
ROOT
ATOM      1  C5M   T A   1     -10.400  20.181  68.352  1.00  0.00    -0.401 C  
ATOM      2  C5    T A   1     -10.419  18.867  67.644  1.00  0.00    -0.514 C  
ATOM      3  C6    T A   1     -10.323  17.675  68.244  1.00  0.00    -0.384 C  
ATOM      4  N1    T A   1     -10.299  16.470  67.549  1.00  0.00    -0.288 N  
ATOM      5  O4    T A   1     -10.478  19.936  65.530  1.00  0.00    -0.434 OA 
ATOM      6  C2    T A   1     -10.263  16.482  66.159  1.00  0.00    -0.346 C  
ATOM      7  O2    T A   1      -9.943  15.529  65.453  1.00  0.00    -0.337 OA 
ATOM      8  H3    T A   1     -10.894  17.645  64.593  1.00  0.00     0.000 HD 
ATOM      9  N3    T A   1     -10.580  17.672  65.563  1.00  0.00    -0.209 N  
ATOM     10  C4    T A   1     -10.510  18.890  66.168  1.00  0.00    -0.457 C  
ENDROOT
BRANCH   4  11
ATOM     11  C1*   T A   1      -9.969  15.236  68.285  1.00  0.00    -0.222 C  
ATOM     12  C2*   T A   1     -10.992  14.102  68.313  1.00  0.00    -0.266 C  
ATOM     13  C3*   T A   1     -11.883  14.494  69.464  1.00  0.00    -0.329 C  
ATOM     14  C4*   T A   1     -10.858  15.020  70.460  1.00  0.00    -0.123 C  
ATOM     15  O3*   T A   1     -12.633  13.404  69.978  1.00  0.00    -0.180 OA 
ATOM     16  H3*   T A   1     -13.194  13.652  70.703  1.00  0.00     0.000 HD 
ATOM     17  O4*   T A   1      -9.771  15.576  69.684  1.00  0.00    -0.270 OA 
BRANCH  14  18
ATOM     18  C5*   T A   1     -11.424  16.075  71.411  1.00  0.00    -0.398 C  
ATOM     19  O5*   T A   1     -12.827  15.904  71.605  1.00  0.00    -0.465 OA 
ATOM     20  H5*   T A   1     -13.179  16.560  72.196  1.00  0.00     0.000 HD 
ENDBRANCH  14  18
ENDBRANCH   4  11
TORSDOF 2
ENDMDL
MODEL       35
REMARK 921   NORMALIZED FREE ENERGY PREDICTED BY IDOCK:   -5.16 KCAL/MOL
REMARK 922        TOTAL FREE ENERGY PREDICTED BY IDOCK:   -6.09 KCAL/MOL
REMARK 923 INTER-LIGAND FREE ENERGY PREDICTED BY IDOCK:   -6.11 KCAL/MOL
REMARK 924 INTRA-LIGAND FREE ENERGY PREDICTED BY IDOCK:    0.02 KCAL/MOL
REMARK 927      BINDING AFFINITY PREDICTED BY RF-SCORE:    0.00 PKD
ROOT
ATOM      1  C5M   T A   1     -12.576  12.141  63.349  1.00  0.00    -0.584 C  
ATOM      2  C5    T A   1     -11.685  12.747  64.382  1.00  0.00    -0.426 C  
ATOM      3  C6    T A   1     -10.835  12.061  65.154  1.00  0.00    -0.300 C  
ATOM      4  N1    T A   1     -10.050  12.653  66.139  1.00  0.00    -0.252 N  
ATOM      5  O4    T A   1     -12.616  14.895  64.016  1.00  0.00    -0.832 OA 
ATOM      6  C2    T A   1     -10.216  14.003  66.428  1.00  0.00    -0.291 C  
ATOM      7  O2    T A   1      -9.818  14.561  67.446  1.00  0.00    -0.223 OA 
ATOM      8  H3    T A   1     -10.770  15.740  65.491  1.00  0.00     0.000 HD 
ATOM      9  N3    T A   1     -10.913  14.731  65.501  1.00  0.00    -0.329 N  
ATOM     10  C4    T A   1     -11.780  14.208  64.591  1.00  0.00    -0.417 C  
ENDROOT
BRANCH   4  11
ATOM     11  C1*   T A   1      -9.317  11.783  67.077  1.00  0.00    -0.184 C  
ATOM     12  C2*   T A   1      -9.463  10.269  66.941  1.00  0.00    -0.200 C  
ATOM     13  C3*   T A   1     -10.714   9.989  67.733  1.00  0.00    -0.280 C  
ATOM     14  C4*   T A   1     -10.529  10.932  68.913  1.00  0.00    -0.203 C  
ATOM     15  O3*   T A   1     -10.822   8.631  68.133  1.00  0.00    -0.447 OA 
ATOM     16  H3*   T A   1     -11.611   8.455  68.632  1.00  0.00     0.000 HD 
ATOM     17  O4*   T A   1      -9.780  12.070  68.424  1.00  0.00    -0.208 OA 
BRANCH  14  18
ATOM     18  C5*   T A   1     -11.849  11.394  69.532  1.00  0.00    -0.357 C  
ATOM     19  O5*   T A   1     -12.869  10.409  69.382  1.00  0.00    -0.580 OA 
ATOM     20  H5*   T A   1     -13.690  10.696  69.766  1.00  0.00     0.000 HD 
ENDBRANCH  14  18
ENDBRANCH   4  11
TORSDOF 2
ENDMDL
MODEL       36
REMARK 921   NORMALIZED FREE ENERGY PREDICTED BY IDOCK:   -5.15 KCAL/MOL
REMARK 922        TOTAL FREE ENERGY PREDICTED BY IDOCK:   -6.08 KCAL/MOL
REMARK 923 INTER-LIGAND FREE ENERGY PREDICTED BY IDOCK:   -6.21 KCAL/MOL
REMARK 924 INTRA-LIGAND FREE ENERGY PREDICTED BY IDOCK:    0.13 KCAL/MOL
REMARK 927      BINDING AFFINITY PREDICTED BY RF-SCORE:    0.00 PKD
ROOT
ATOM      1  C5M   T A   1      -8.805  10.098  65.679  1.00  0.00    -0.185 C  
ATOM      2  C5    T A   1      -9.682  11.211  65.207  1.00  0.00    -0.285 C  
ATOM      3  C6    T A   1     -10.219  12.146  65.997  1.00  0.00    -0.237 C  
ATOM      4  N1    T A   1     -11.069  13.145  65.530  1.00  0.00    -0.277 N  
ATOM      5  O4    T A   1      -9.661  10.370  62.992  1.00  0.00    -0.318 OA 
ATOM      6  C2    T A   1     -11.480  13.127  64.201  1.00  0.00    -0.403 C  
ATOM      7  O2    T A   1     -12.437  13.751  63.751  1.00  0.00    -0.713 OA 
ATOM      8  H3    T A   1     -10.798  12.519  62.366  1.00  0.00     0.000 HD 
ATOM      9  N3    T A   1     -10.764  12.315  63.365  1.00  0.00    -0.438 N  
ATOM     10  C4    T A   1     -10.009  11.254  63.765  1.00  0.00    -0.342 C  
ENDROOT
BRANCH   4  11
ATOM     11  C1*   T A   1     -11.778  13.986  66.511  1.00  0.00    -0.394 C  
ATOM     12  C2*   T A   1     -10.962  14.908  67.414  1.00  0.00    -0.314 C  
ATOM     13  C3*   T A   1     -10.575  13.995  68.549  1.00  0.00    -0.254 C  
ATOM     14  C4*   T A   1     -11.859  13.198  68.733  1.00  0.00    -0.324 C  
ATOM     15  O3*   T A   1     -10.198  14.700  69.722  1.00  0.00    -0.431 OA 
ATOM     16  H3*   T A   1      -9.954  14.123  70.436  1.00  0.00     0.000 HD 
ATOM     17  O4*   T A   1     -12.488  13.115  67.432  1.00  0.00    -0.150 OA 
BRANCH  14  18
ATOM     18  C5*   T A   1     -11.627  11.797  69.299  1.00  0.00    -0.315 C  
ATOM     19  O5*   T A   1     -12.362  10.812  68.574  1.00  0.00    -0.825 OA 
ATOM     20  H5*   T A   1     -12.218   9.941  68.926  1.00  0.00     0.000 HD 
ENDBRANCH  14  18
ENDBRANCH   4  11
TORSDOF 2
ENDMDL
MODEL       37
REMARK 921   NORMALIZED FREE ENERGY PREDICTED BY IDOCK:   -5.14 KCAL/MOL
REMARK 922        TOTAL FREE ENERGY PREDICTED BY IDOCK:   -6.06 KCAL/MOL
REMARK 923 INTER-LIGAND FREE ENERGY PREDICTED BY IDOCK:   -5.62 KCAL/MOL
REMARK 924 INTRA-LIGAND FREE ENERGY PREDICTED BY IDOCK:   -0.44 KCAL/MOL
REMARK 927      BINDING AFFINITY PREDICTED BY RF-SCORE:    0.00 PKD
ROOT
ATOM      1  C5M   T A   1     -13.402  15.554  71.333  1.00  0.00    -0.592 C  
ATOM      2  C5    T A   1     -12.919  14.231  70.835  1.00  0.00    -0.395 C  
ATOM      3  C6    T A   1     -12.382  14.021  69.628  1.00  0.00    -0.260 C  
ATOM      4  N1    T A   1     -11.982  12.766  69.179  1.00  0.00    -0.277 N  
ATOM      5  O4    T A   1     -13.675  13.145  72.800  1.00  0.00    -0.630 OA 
ATOM      6  C2    T A   1     -12.241  11.644  69.960  1.00  0.00    -0.263 C  
ATOM      7  O2    T A   1     -12.216  10.484  69.559  1.00  0.00    -0.217 OA 
ATOM      8  H3    T A   1     -12.447  11.134  71.935  1.00  0.00     0.000 HD 
ATOM      9  N3    T A   1     -12.581  11.889  71.263  1.00  0.00    -0.335 N  
ATOM     10  C4    T A   1     -13.084  13.066  71.729  1.00  0.00    -0.373 C  
ENDROOT
BRANCH   4  11
ATOM     11  C1*   T A   1     -11.611  12.607  67.761  1.00  0.00    -0.348 C  
ATOM     12  C2*   T A   1     -10.194  12.153  67.419  1.00  0.00    -0.211 C  
ATOM     13  C3*   T A   1      -9.425  13.449  67.426  1.00  0.00    -0.222 C  
ATOM     14  C4*   T A   1     -10.425  14.385  66.762  1.00  0.00    -0.273 C  
ATOM     15  O3*   T A   1      -8.199  13.368  66.715  1.00  0.00    -0.409 OA 
ATOM     16  H3*   T A   1      -7.715  14.185  66.719  1.00  0.00     0.000 HD 
ATOM     17  O4*   T A   1     -11.743  13.897  67.106  1.00  0.00    -0.345 OA 
BRANCH  14  18
ATOM     18  C5*   T A   1     -10.271  15.843  67.196  1.00  0.00    -0.278 C  
ATOM     19  O5*   T A   1      -9.320  15.976  68.251  1.00  0.00    -0.194 OA 
ATOM     20  H5*   T A   1      -9.224  16.883  68.521  1.00  0.00     0.000 HD 
ENDBRANCH  14  18
ENDBRANCH   4  11
TORSDOF 2
ENDMDL
MODEL       38
REMARK 921   NORMALIZED FREE ENERGY PREDICTED BY IDOCK:   -5.13 KCAL/MOL
REMARK 922        TOTAL FREE ENERGY PREDICTED BY IDOCK:   -6.05 KCAL/MOL
REMARK 923 INTER-LIGAND FREE ENERGY PREDICTED BY IDOCK:   -5.61 KCAL/MOL
REMARK 924 INTRA-LIGAND FREE ENERGY PREDICTED BY IDOCK:   -0.44 KCAL/MOL
REMARK 927      BINDING AFFINITY PREDICTED BY RF-SCORE:    0.00 PKD
ROOT
ATOM      1  C5M   T A   1      -9.478   7.905  66.826  1.00  0.00    -0.257 C  
ATOM      2  C5    T A   1     -10.071   9.092  67.510  1.00  0.00    -0.284 C  
ATOM      3  C6    T A   1     -10.144  10.319  66.982  1.00  0.00    -0.218 C  
ATOM      4  N1    T A   1     -10.663  11.415  67.665  1.00  0.00    -0.204 N  
ATOM      5  O4    T A   1     -10.438   7.846  69.491  1.00  0.00    -0.221 OA 
ATOM      6  C2    T A   1     -11.031  11.278  69.000  1.00  0.00    -0.236 C  
ATOM      7  O2    T A   1     -11.211  12.208  69.781  1.00  0.00    -0.145 OA 
ATOM      8  H3    T A   1     -11.736   9.843  70.283  1.00  0.00     0.000 HD 
ATOM      9  N3    T A   1     -11.159   9.994  69.455  1.00  0.00    -0.240 N  
ATOM     10  C4    T A   1     -10.576   8.903  68.887  1.00  0.00    -0.165 C  
ENDROOT
BRANCH   4  11
ATOM     11  C1*   T A   1     -10.495  12.757  67.081  1.00  0.00    -0.233 C  
ATOM     12  C2*   T A   1     -11.719  13.662  66.955  1.00  0.00    -0.423 C  
ATOM     13  C3*   T A   1     -12.320  13.219  65.646  1.00  0.00    -0.465 C  
ATOM     14  C4*   T A   1     -11.068  13.011  64.806  1.00  0.00    -0.322 C  
ATOM     15  O3*   T A   1     -13.197  14.184  65.086  1.00  0.00    -0.743 OA 
ATOM     16  H3*   T A   1     -13.576  13.904  64.260  1.00  0.00     0.000 HD 
ATOM     17  O4*   T A   1     -10.018  12.606  65.717  1.00  0.00    -0.263 OA 
BRANCH  14  18
ATOM     18  C5*   T A   1     -11.244  11.966  63.704  1.00  0.00    -0.441 C  
ATOM     19  O5*   T A   1     -12.573  11.974  63.184  1.00  0.00    -0.749 OA 
ATOM     20  H5*   T A   1     -12.682  11.324  62.499  1.00  0.00     0.000 HD 
ENDBRANCH  14  18
ENDBRANCH   4  11
TORSDOF 2
ENDMDL
MODEL       39
REMARK 921   NORMALIZED FREE ENERGY PREDICTED BY IDOCK:   -5.10 KCAL/MOL
REMARK 922        TOTAL FREE ENERGY PREDICTED BY IDOCK:   -6.02 KCAL/MOL
REMARK 923 INTER-LIGAND FREE ENERGY PREDICTED BY IDOCK:   -5.74 KCAL/MOL
REMARK 924 INTRA-LIGAND FREE ENERGY PREDICTED BY IDOCK:   -0.29 KCAL/MOL
REMARK 927      BINDING AFFINITY PREDICTED BY RF-SCORE:    0.00 PKD
ROOT
ATOM      1  C5M   T A   1     -10.070   8.870  66.506  1.00  0.00    -0.356 C  
ATOM      2  C5    T A   1     -10.400   8.009  67.680  1.00  0.00    -0.312 C  
ATOM      3  C6    T A   1     -10.556   8.454  68.932  1.00  0.00    -0.140 C  
ATOM      4  N1    T A   1     -10.820   7.617  70.012  1.00  0.00    -0.248 N  
ATOM      5  O4    T A   1     -10.278   6.048  66.357  1.00  0.00    -0.153 OA 
ATOM      6  C2    T A   1     -10.821   6.238  69.827  1.00  0.00    -0.336 C  
ATOM      7  O2    T A   1     -10.741   5.406  70.725  1.00  0.00    -0.248 OA 
ATOM      8  H3    T A   1     -11.220   4.864  68.359  1.00  0.00     0.000 HD 
ATOM      9  N3    T A   1     -10.881   5.811  68.528  1.00  0.00    -0.231 N  
ATOM     10  C4    T A   1     -10.525   6.555  67.445  1.00  0.00    -0.252 C  
ENDROOT
BRANCH   4  11
ATOM     11  C1*   T A   1     -10.754   8.178  71.374  1.00  0.00    -0.232 C  
ATOM     12  C2*   T A   1     -11.856   7.823  72.370  1.00  0.00    -0.371 C  
ATOM     13  C3*   T A   1     -12.922   8.840  72.053  1.00  0.00    -0.390 C  
ATOM     14  C4*   T A   1     -12.077  10.082  71.810  1.00  0.00    -0.240 C  
ATOM     15  O3*   T A   1     -13.852   9.012  73.112  1.00  0.00    -1.096 OA 
ATOM     16  H3*   T A   1     -14.524   9.654  72.912  1.00  0.00     0.000 HD 
ATOM     17  O4*   T A   1     -10.812   9.626  71.276  1.00  0.00    -0.350 OA 
BRANCH  14  18
ATOM     18  C5*   T A   1     -12.728  11.080  70.852  1.00  0.00    -0.358 C  
ATOM     19  O5*   T A   1     -13.491  10.416  69.845  1.00  0.00    -0.422 OA 
ATOM     20  H5*   T A   1     -13.895  11.037  69.249  1.00  0.00     0.000 HD 
ENDBRANCH  14  18
ENDBRANCH   4  11
TORSDOF 2
ENDMDL
MODEL       40
REMARK 921   NORMALIZED FREE ENERGY PREDICTED BY IDOCK:   -5.04 KCAL/MOL
REMARK 922        TOTAL FREE ENERGY PREDICTED BY IDOCK:   -5.95 KCAL/MOL
REMARK 923 INTER-LIGAND FREE ENERGY PREDICTED BY IDOCK:   -5.96 KCAL/MOL
REMARK 924 INTRA-LIGAND FREE ENERGY PREDICTED BY IDOCK:    0.01 KCAL/MOL
REMARK 927      BINDING AFFINITY PREDICTED BY RF-SCORE:    0.00 PKD
ROOT
ATOM      1  C5M   T A   1     -11.904  15.792  69.246  1.00  0.00    -0.358 C  
ATOM      2  C5    T A   1     -12.182  14.575  70.066  1.00  0.00    -0.396 C  
ATOM      3  C6    T A   1     -11.930  13.320  69.678  1.00  0.00    -0.314 C  
ATOM      4  N1    T A   1     -12.243  12.205  70.450  1.00  0.00    -0.330 N  
ATOM      5  O4    T A   1     -13.194  15.876  71.768  1.00  0.00    -0.451 OA 
ATOM      6  C2    T A   1     -12.949  12.370  71.637  1.00  0.00    -0.305 C  
ATOM      7  O2    T A   1     -13.535  11.475  72.240  1.00  0.00    -0.368 OA 
ATOM      8  H3    T A   1     -13.199  13.762  73.121  1.00  0.00     0.000 HD 
ATOM      9  N3    T A   1     -13.004  13.646  72.126  1.00  0.00    -0.338 N  
ATOM     10  C4    T A   1     -12.818  14.774  71.386  1.00  0.00    -0.336 C  
ENDROOT
BRANCH   4  11
ATOM     11  C1*   T A   1     -12.129  10.868  69.840  1.00  0.00    -0.354 C  
ATOM     12  C2*   T A   1     -10.799  10.123  69.946  1.00  0.00    -0.347 C  
ATOM     13  C3*   T A   1     -10.024  10.671  68.776  1.00  0.00    -0.193 C  
ATOM     14  C4*   T A   1     -11.112  10.748  67.714  1.00  0.00    -0.318 C  
ATOM     15  O3*   T A   1      -8.943   9.836  68.389  1.00  0.00    -0.122 OA 
ATOM     16  H3*   T A   1      -8.454  10.182  67.652  1.00  0.00     0.000 HD 
ATOM     17  O4*   T A   1     -12.356  10.996  68.410  1.00  0.00    -0.528 OA 
BRANCH  14  18
ATOM     18  C5*   T A   1     -10.864  11.836  66.669  1.00  0.00    -0.276 C  
ATOM     19  O5*   T A   1     -12.085  12.291  66.089  1.00  0.00    -0.625 OA 
ATOM     20  H5*   T A   1     -11.931  12.967  65.439  1.00  0.00     0.000 HD 
ENDBRANCH  14  18
ENDBRANCH   4  11
TORSDOF 2
ENDMDL
MODEL       41
REMARK 921   NORMALIZED FREE ENERGY PREDICTED BY IDOCK:   -4.93 KCAL/MOL
REMARK 922        TOTAL FREE ENERGY PREDICTED BY IDOCK:   -5.83 KCAL/MOL
REMARK 923 INTER-LIGAND FREE ENERGY PREDICTED BY IDOCK:   -5.74 KCAL/MOL
REMARK 924 INTRA-LIGAND FREE ENERGY PREDICTED BY IDOCK:   -0.09 KCAL/MOL
REMARK 927      BINDING AFFINITY PREDICTED BY RF-SCORE:    0.00 PKD
ROOT
ATOM      1  C5M   T A   1     -11.252  16.465  68.400  1.00  0.00    -0.324 C  
ATOM      2  C5    T A   1     -11.403  15.094  68.973  1.00  0.00    -0.307 C  
ATOM      3  C6    T A   1     -11.173  13.958  68.304  1.00  0.00    -0.272 C  
ATOM      4  N1    T A   1     -11.366  12.696  68.856  1.00  0.00    -0.278 N  
ATOM      5  O4    T A   1     -12.229  15.970  71.013  1.00  0.00    -0.407 OA 
ATOM      6  C2    T A   1     -11.926  12.580  70.125  1.00  0.00    -0.301 C  
ATOM      7  O2    T A   1     -12.415  11.555  70.589  1.00  0.00    -0.339 OA 
ATOM      8  H3    T A   1     -12.024  13.626  71.885  1.00  0.00     0.000 HD 
ATOM      9  N3    T A   1     -11.949  13.726  70.873  1.00  0.00    -0.271 N  
ATOM     10  C4    T A   1     -11.878  14.989  70.369  1.00  0.00    -0.297 C  
ENDROOT
BRANCH   4  11
ATOM     11  C1*   T A   1     -11.297  11.519  67.971  1.00  0.00    -0.298 C  
ATOM     12  C2*   T A   1      -9.929  10.930  67.636  1.00  0.00    -0.197 C  
ATOM     13  C3*   T A   1      -9.486  11.774  66.470  1.00  0.00    -0.214 C  
ATOM     14  C4*   T A   1     -10.792  11.918  65.702  1.00  0.00    -0.286 C  
ATOM     15  O3*   T A   1      -8.465  11.160  65.698  1.00  0.00    -0.307 OA 
ATOM     16  H3*   T A   1      -8.186  11.693  64.963  1.00  0.00     0.000 HD 
ATOM     17  O4*   T A   1     -11.857  11.884  66.681  1.00  0.00    -0.591 OA 
BRANCH  14  18
ATOM     18  C5*   T A   1     -10.872  13.204  64.878  1.00  0.00    -0.332 C  
ATOM     19  O5*   T A   1      -9.799  13.292  63.942  1.00  0.00    -0.716 OA 
ATOM     20  H5*   T A   1      -9.849  14.091  63.430  1.00  0.00     0.000 HD 
ENDBRANCH  14  18
ENDBRANCH   4  11
TORSDOF 2
ENDMDL
MODEL       42
REMARK 921   NORMALIZED FREE ENERGY PREDICTED BY IDOCK:   -4.92 KCAL/MOL
REMARK 922        TOTAL FREE ENERGY PREDICTED BY IDOCK:   -5.82 KCAL/MOL
REMARK 923 INTER-LIGAND FREE ENERGY PREDICTED BY IDOCK:   -5.70 KCAL/MOL
REMARK 924 INTRA-LIGAND FREE ENERGY PREDICTED BY IDOCK:   -0.12 KCAL/MOL
REMARK 927      BINDING AFFINITY PREDICTED BY RF-SCORE:    0.00 PKD
ROOT
ATOM      1  C5M   T A   1     -10.510  16.828  66.975  1.00  0.00    -0.285 C  
ATOM      2  C5    T A   1     -10.520  15.538  66.222  1.00  0.00    -0.313 C  
ATOM      3  C6    T A   1     -10.047  14.378  66.691  1.00  0.00    -0.274 C  
ATOM      4  N1    T A   1     -10.031  13.203  65.945  1.00  0.00    -0.282 N  
ATOM      5  O4    T A   1     -11.393  16.600  64.292  1.00  0.00    -1.116 OA 
ATOM      6  C2    T A   1     -10.419  13.235  64.609  1.00  0.00    -0.402 C  
ATOM      7  O2    T A   1     -10.170  12.362  63.781  1.00  0.00    -0.409 OA 
ATOM      8  H3    T A   1     -11.679  14.280  63.376  1.00  0.00     0.000 HD 
ATOM      9  N3    T A   1     -11.097  14.354  64.210  1.00  0.00    -0.161 N  
ATOM     10  C4    T A   1     -11.054  15.559  64.844  1.00  0.00    -0.416 C  
ENDROOT
BRANCH   4  11
ATOM     11  C1*   T A   1      -9.292  12.041  66.471  1.00  0.00    -0.223 C  
ATOM     12  C2*   T A   1      -9.812  10.639  66.163  1.00  0.00    -0.268 C  
ATOM     13  C3*   T A   1     -10.832  10.423  67.251  1.00  0.00    -0.264 C  
ATOM     14  C4*   T A   1     -10.124  11.051  68.444  1.00  0.00    -0.184 C  
ATOM     15  O3*   T A   1     -11.137   9.052  67.459  1.00  0.00    -0.458 OA 
ATOM     16  H3*   T A   1     -11.780   8.917  68.145  1.00  0.00     0.000 HD 
ATOM     17  O4*   T A   1      -9.295  12.116  67.921  1.00  0.00    -0.179 OA 
BRANCH  14  18
ATOM     18  C5*   T A   1     -11.084  11.597  69.501  1.00  0.00    -0.164 C  
ATOM     19  O5*   T A   1     -11.524  10.569  70.388  1.00  0.00    -0.300 OA 
ATOM     20  H5*   T A   1     -12.121  10.909  71.044  1.00  0.00     0.000 HD 
ENDBRANCH  14  18
ENDBRANCH   4  11
TORSDOF 2
ENDMDL
MODEL       43
REMARK 921   NORMALIZED FREE ENERGY PREDICTED BY IDOCK:   -4.88 KCAL/MOL
REMARK 922        TOTAL FREE ENERGY PREDICTED BY IDOCK:   -5.77 KCAL/MOL
REMARK 923 INTER-LIGAND FREE ENERGY PREDICTED BY IDOCK:   -5.39 KCAL/MOL
REMARK 924 INTRA-LIGAND FREE ENERGY PREDICTED BY IDOCK:   -0.38 KCAL/MOL
REMARK 927      BINDING AFFINITY PREDICTED BY RF-SCORE:    0.00 PKD
ROOT
ATOM      1  C5M   T A   1     -10.455  18.257  68.279  1.00  0.00    -0.324 C  
ATOM      2  C5    T A   1      -9.730  16.967  68.080  1.00  0.00    -0.260 C  
ATOM      3  C6    T A   1     -10.293  15.835  67.643  1.00  0.00    -0.281 C  
ATOM      4  N1    T A   1      -9.597  14.638  67.511  1.00  0.00    -0.204 N  
ATOM      5  O4    T A   1      -7.728  17.886  68.951  1.00  0.00    -0.272 OA 
ATOM      6  C2    T A   1      -8.279  14.560  67.950  1.00  0.00    -0.153 C  
ATOM      7  O2    T A   1      -7.667  13.517  68.165  1.00  0.00    -0.115 OA 
ATOM      8  H3    T A   1      -6.636  15.766  68.169  1.00  0.00     0.000 HD 
ATOM      9  N3    T A   1      -7.656  15.755  68.183  1.00  0.00    -0.121 N  
ATOM     10  C4    T A   1      -8.294  16.933  68.430  1.00  0.00    -0.238 C  
ENDROOT
BRANCH   4  11
ATOM     11  C1*   T A   1     -10.356  13.405  67.236  1.00  0.00    -0.244 C  
ATOM     12  C2*   T A   1      -9.844  12.451  66.158  1.00  0.00    -0.263 C  
ATOM     13  C3*   T A   1     -10.429  13.036  64.899  1.00  0.00    -0.339 C  
ATOM     14  C4*   T A   1     -11.815  13.440  65.382  1.00  0.00    -0.353 C  
ATOM     15  O3*   T A   1     -10.475  12.107  63.827  1.00  0.00    -0.361 OA 
ATOM     16  H3*   T A   1     -10.843  12.477  63.034  1.00  0.00     0.000 HD 
ATOM     17  O4*   T A   1     -11.685  13.777  66.783  1.00  0.00    -0.349 OA 
BRANCH  14  18
ATOM     18  C5*   T A   1     -12.407  14.618  64.607  1.00  0.00    -0.375 C  
ATOM     19  O5*   T A   1     -12.517  14.325  63.215  1.00  0.00    -1.133 OA 
ATOM     20  H5*   T A   1     -12.885  15.057  62.733  1.00  0.00     0.000 HD 
ENDBRANCH  14  18
ENDBRANCH   4  11
TORSDOF 2
ENDMDL
MODEL       44
REMARK 921   NORMALIZED FREE ENERGY PREDICTED BY IDOCK:   -4.87 KCAL/MOL
REMARK 922        TOTAL FREE ENERGY PREDICTED BY IDOCK:   -5.76 KCAL/MOL
REMARK 923 INTER-LIGAND FREE ENERGY PREDICTED BY IDOCK:   -5.82 KCAL/MOL
REMARK 924 INTRA-LIGAND FREE ENERGY PREDICTED BY IDOCK:    0.05 KCAL/MOL
REMARK 927      BINDING AFFINITY PREDICTED BY RF-SCORE:    0.00 PKD
ROOT
ATOM      1  C5M   T A   1     -10.899  19.561  66.746  1.00  0.00    -0.500 C  
ATOM      2  C5    T A   1     -10.030  18.353  66.621  1.00  0.00    -0.382 C  
ATOM      3  C6    T A   1     -10.334  17.265  65.904  1.00  0.00    -0.278 C  
ATOM      4  N1    T A   1      -9.520  16.138  65.844  1.00  0.00    -0.328 N  
ATOM      5  O4    T A   1      -8.459  19.248  68.152  1.00  0.00    -0.304 OA 
ATOM      6  C2    T A   1      -8.383  16.071  66.643  1.00  0.00    -0.296 C  
ATOM      7  O2    T A   1      -7.765  15.044  66.905  1.00  0.00    -0.152 OA 
ATOM      8  H3    T A   1      -6.994  17.322  67.485  1.00  0.00     0.000 HD 
ATOM      9  N3    T A   1      -7.969  17.254  67.192  1.00  0.00    -0.198 N  
ATOM     10  C4    T A   1      -8.759  18.348  67.377  1.00  0.00    -0.260 C  
ENDROOT
BRANCH   4  11
ATOM     11  C1*   T A   1     -10.049  14.917  65.210  1.00  0.00    -0.345 C  
ATOM     12  C2*   T A   1     -11.496  14.911  64.720  1.00  0.00    -0.410 C  
ATOM     13  C3*   T A   1     -12.260  14.539  65.965  1.00  0.00    -0.252 C  
ATOM     14  C4*   T A   1     -11.342  13.484  66.566  1.00  0.00    -0.319 C  
ATOM     15  O3*   T A   1     -13.558  14.036  65.686  1.00  0.00    -0.659 OA 
ATOM     16  H3*   T A   1     -14.039  13.802  66.471  1.00  0.00     0.000 HD 
ATOM     17  O4*   T A   1      -9.993  13.837  66.180  1.00  0.00    -0.293 OA 
BRANCH  14  18
ATOM     18  C5*   T A   1     -11.448  13.385  68.088  1.00  0.00    -0.304 C  
ATOM     19  O5*   T A   1     -12.527  14.172  68.589  1.00  0.00    -0.537 OA 
ATOM     20  H5*   T A   1     -12.592  14.111  69.535  1.00  0.00     0.000 HD 
ENDBRANCH  14  18
ENDBRANCH   4  11
TORSDOF 2
ENDMDL
MODEL       45
REMARK 921   NORMALIZED FREE ENERGY PREDICTED BY IDOCK:   -4.83 KCAL/MOL
REMARK 922        TOTAL FREE ENERGY PREDICTED BY IDOCK:   -5.72 KCAL/MOL
REMARK 923 INTER-LIGAND FREE ENERGY PREDICTED BY IDOCK:   -5.47 KCAL/MOL
REMARK 924 INTRA-LIGAND FREE ENERGY PREDICTED BY IDOCK:   -0.25 KCAL/MOL
REMARK 927      BINDING AFFINITY PREDICTED BY RF-SCORE:    0.00 PKD
ROOT
ATOM      1  C5M   T A   1     -12.863  10.420  71.482  1.00  0.00    -0.569 C  
ATOM      2  C5    T A   1     -11.897  10.823  70.417  1.00  0.00    -0.450 C  
ATOM      3  C6    T A   1     -11.904  12.004  69.787  1.00  0.00    -0.331 C  
ATOM      4  N1    T A   1     -11.015  12.330  68.768  1.00  0.00    -0.228 N  
ATOM      5  O4    T A   1     -10.882   8.683  70.440  1.00  0.00    -0.221 OA 
ATOM      6  C2    T A   1     -10.138  11.363  68.288  1.00  0.00    -0.196 C  
ATOM      7  O2    T A   1      -9.532  11.427  67.221  1.00  0.00    -0.166 OA 
ATOM      8  H3    T A   1      -9.138   9.700  68.949  1.00  0.00     0.000 HD 
ATOM      9  N3    T A   1      -9.987  10.252  69.072  1.00  0.00    -0.202 N  
ATOM     10  C4    T A   1     -10.885   9.828  70.004  1.00  0.00    -0.278 C  
ENDROOT
BRANCH   4  11
ATOM     11  C1*   T A   1     -11.249  13.563  67.994  1.00  0.00    -0.271 C  
ATOM     12  C2*   T A   1     -10.113  14.576  67.865  1.00  0.00    -0.227 C  
ATOM     13  C3*   T A   1     -10.260  15.393  69.122  1.00  0.00    -0.239 C  
ATOM     14  C4*   T A   1     -11.775  15.509  69.219  1.00  0.00    -0.365 C  
ATOM     15  O3*   T A   1      -9.622  16.659  69.037  1.00  0.00    -0.258 OA 
ATOM     16  H3*   T A   1      -9.715  17.173  69.830  1.00  0.00     0.000 HD 
ATOM     17  O4*   T A   1     -12.323  14.306  68.630  1.00  0.00    -0.231 OA 
BRANCH  14  18
ATOM     18  C5*   T A   1     -12.280  15.674  70.652  1.00  0.00    -0.405 C  
ATOM     19  O5*   T A   1     -13.700  15.550  70.724  1.00  0.00    -0.838 OA 
ATOM     20  H5*   T A   1     -14.014  15.652  71.615  1.00  0.00     0.000 HD 
ENDBRANCH  14  18
ENDBRANCH   4  11
TORSDOF 2
ENDMDL
MODEL       46
REMARK 921   NORMALIZED FREE ENERGY PREDICTED BY IDOCK:   -4.82 KCAL/MOL
REMARK 922        TOTAL FREE ENERGY PREDICTED BY IDOCK:   -5.70 KCAL/MOL
REMARK 923 INTER-LIGAND FREE ENERGY PREDICTED BY IDOCK:   -5.63 KCAL/MOL
REMARK 924 INTRA-LIGAND FREE ENERGY PREDICTED BY IDOCK:   -0.07 KCAL/MOL
REMARK 927      BINDING AFFINITY PREDICTED BY RF-SCORE:    0.00 PKD
ROOT
ATOM      1  C5M   T A   1     -12.842  14.084  65.901  1.00  0.00    -0.354 C  
ATOM      2  C5    T A   1     -12.042  12.963  65.322  1.00  0.00    -0.496 C  
ATOM      3  C6    T A   1     -11.306  12.104  66.036  1.00  0.00    -0.358 C  
ATOM      4  N1    T A   1     -10.536  11.097  65.460  1.00  0.00    -0.251 N  
ATOM      5  O4    T A   1     -12.580  13.636  63.115  1.00  0.00    -0.792 OA 
ATOM      6  C2    T A   1     -10.425  11.027  64.075  1.00  0.00    -0.366 C  
ATOM      7  O2    T A   1      -9.563  10.398  63.468  1.00  0.00    -0.289 OA 
ATOM      8  H3    T A   1     -11.515  11.479  62.399  1.00  0.00     0.000 HD 
ATOM      9  N3    T A   1     -11.340  11.756  63.365  1.00  0.00    -0.388 N  
ATOM     10  C4    T A   1     -12.035  12.822  63.850  1.00  0.00    -0.480 C  
ENDROOT
BRANCH   4  11
ATOM     11  C1*   T A   1      -9.595  10.351  66.314  1.00  0.00    -0.182 C  
ATOM     12  C2*   T A   1     -10.099   9.779  67.638  1.00  0.00    -0.236 C  
ATOM     13  C3*   T A   1      -9.951  10.948  68.577  1.00  0.00    -0.182 C  
ATOM     14  C4*   T A   1      -8.622  11.528  68.112  1.00  0.00    -0.156 C  
ATOM     15  O3*   T A   1      -9.929  10.561  69.942  1.00  0.00    -0.420 OA 
ATOM     16  H3*   T A   1      -9.835  11.298  70.534  1.00  0.00     0.000 HD 
ATOM     17  O4*   T A   1      -8.516  11.245  66.697  1.00  0.00    -0.158 OA 
BRANCH  14  18
ATOM     18  C5*   T A   1      -8.496  13.030  68.363  1.00  0.00    -0.118 C  
ATOM     19  O5*   T A   1      -9.690  13.568  68.929  1.00  0.00    -0.410 OA 
ATOM     20  H5*   T A   1      -9.612  14.502  69.085  1.00  0.00     0.000 HD 
ENDBRANCH  14  18
ENDBRANCH   4  11
TORSDOF 2
ENDMDL
MODEL       47
REMARK 921   NORMALIZED FREE ENERGY PREDICTED BY IDOCK:   -4.81 KCAL/MOL
REMARK 922        TOTAL FREE ENERGY PREDICTED BY IDOCK:   -5.70 KCAL/MOL
REMARK 923 INTER-LIGAND FREE ENERGY PREDICTED BY IDOCK:   -5.31 KCAL/MOL
REMARK 924 INTRA-LIGAND FREE ENERGY PREDICTED BY IDOCK:   -0.39 KCAL/MOL
REMARK 927      BINDING AFFINITY PREDICTED BY RF-SCORE:    0.00 PKD
ROOT
ATOM      1  C5M   T A   1     -10.680  11.143  69.159  1.00  0.00    -0.262 C  
ATOM      2  C5    T A   1     -11.532  10.452  70.172  1.00  0.00    -0.396 C  
ATOM      3  C6    T A   1     -11.572   9.128  70.359  1.00  0.00    -0.146 C  
ATOM      4  N1    T A   1     -12.411   8.513  71.284  1.00  0.00    -0.298 N  
ATOM      5  O4    T A   1     -12.540  12.498  70.812  1.00  0.00    -0.304 OA 
ATOM      6  C2    T A   1     -13.338   9.279  71.983  1.00  0.00    -0.450 C  
ATOM      7  O2    T A   1     -14.312   8.833  72.584  1.00  0.00    -0.585 OA 
ATOM      8  H3    T A   1     -13.564  11.189  72.693  1.00  0.00     0.000 HD 
ATOM      9  N3    T A   1     -13.141  10.633  71.950  1.00  0.00    -0.487 N  
ATOM     10  C4    T A   1     -12.423  11.293  71.000  1.00  0.00    -0.400 C  
ENDROOT
BRANCH   4  11
ATOM     11  C1*   T A   1     -12.538   7.045  71.256  1.00  0.00    -0.373 C  
ATOM     12  C2*   T A   1     -11.905   6.231  72.382  1.00  0.00    -0.272 C  
ATOM     13  C3*   T A   1     -10.483   6.069  71.909  1.00  0.00    -0.218 C  
ATOM     14  C4*   T A   1     -10.698   5.829  70.421  1.00  0.00    -0.302 C  
ATOM     15  O3*   T A   1      -9.808   4.993  72.542  1.00  0.00    -0.152 OA 
ATOM     16  H3*   T A   1      -8.913   4.892  72.243  1.00  0.00     0.000 HD 
ATOM     17  O4*   T A   1     -11.895   6.553  70.050  1.00  0.00    -0.404 OA 
BRANCH  14  18
ATOM     18  C5*   T A   1      -9.519   6.280  69.558  1.00  0.00    -0.141 C  
ATOM     19  O5*   T A   1      -8.276   6.098  70.235  1.00  0.00    -0.119 OA 
ATOM     20  H5*   T A   1      -7.543   6.379  69.699  1.00  0.00     0.000 HD 
ENDBRANCH  14  18
ENDBRANCH   4  11
TORSDOF 2
ENDMDL
MODEL       48
REMARK 921   NORMALIZED FREE ENERGY PREDICTED BY IDOCK:   -4.81 KCAL/MOL
REMARK 922        TOTAL FREE ENERGY PREDICTED BY IDOCK:   -5.70 KCAL/MOL
REMARK 923 INTER-LIGAND FREE ENERGY PREDICTED BY IDOCK:   -5.29 KCAL/MOL
REMARK 924 INTRA-LIGAND FREE ENERGY PREDICTED BY IDOCK:   -0.41 KCAL/MOL
REMARK 927      BINDING AFFINITY PREDICTED BY RF-SCORE:    0.00 PKD
ROOT
ATOM      1  C5M   T A   1     -10.664  14.814  68.558  1.00  0.00    -0.247 C  
ATOM      2  C5    T A   1     -11.432  14.192  69.678  1.00  0.00    -0.329 C  
ATOM      3  C6    T A   1     -11.684  12.883  69.795  1.00  0.00    -0.281 C  
ATOM      4  N1    T A   1     -12.441  12.341  70.829  1.00  0.00    -0.322 N  
ATOM      5  O4    T A   1     -11.910  16.315  70.614  1.00  0.00    -0.283 OA 
ATOM      6  C2    T A   1     -13.068  13.189  71.736  1.00  0.00    -0.383 C  
ATOM      7  O2    T A   1     -13.983  12.865  72.488  1.00  0.00    -0.581 OA 
ATOM      8  H3    T A   1     -12.803  15.037  72.581  1.00  0.00     0.000 HD 
ATOM      9  N3    T A   1     -12.632  14.486  71.740  1.00  0.00    -0.333 N  
ATOM     10  C4    T A   1     -11.987  15.096  70.708  1.00  0.00    -0.327 C  
ENDROOT
BRANCH   4  11
ATOM     11  C1*   T A   1     -12.842  10.925  70.744  1.00  0.00    -0.289 C  
ATOM     12  C2*   T A   1     -12.592  10.017  71.947  1.00  0.00    -0.454 C  
ATOM     13  C3*   T A   1     -11.166   9.577  71.733  1.00  0.00    -0.193 C  
ATOM     14  C4*   T A   1     -11.150   9.365  70.225  1.00  0.00    -0.257 C  
ATOM     15  O3*   T A   1     -10.838   8.399  72.452  1.00  0.00    -0.330 OA 
ATOM     16  H3*   T A   1      -9.939   8.122  72.317  1.00  0.00     0.000 HD 
ATOM     17  O4*   T A   1     -12.098  10.302  69.663  1.00  0.00    -0.147 OA 
BRANCH  14  18
ATOM     18  C5*   T A   1      -9.770   9.568  69.600  1.00  0.00    -0.200 C  
ATOM     19  O5*   T A   1      -8.823  10.029  70.562  1.00  0.00    -0.332 OA 
ATOM     20  H5*   T A   1      -7.965  10.156  70.173  1.00  0.00     0.000 HD 
ENDBRANCH  14  18
ENDBRANCH   4  11
TORSDOF 2
ENDMDL
MODEL       49
REMARK 921   NORMALIZED FREE ENERGY PREDICTED BY IDOCK:   -4.76 KCAL/MOL
REMARK 922        TOTAL FREE ENERGY PREDICTED BY IDOCK:   -5.64 KCAL/MOL
REMARK 923 INTER-LIGAND FREE ENERGY PREDICTED BY IDOCK:   -5.66 KCAL/MOL
REMARK 924 INTRA-LIGAND FREE ENERGY PREDICTED BY IDOCK:    0.02 KCAL/MOL
REMARK 927      BINDING AFFINITY PREDICTED BY RF-SCORE:    0.00 PKD
ROOT
ATOM      1  C5M   T A   1     -12.136  13.316  63.922  1.00  0.00    -0.531 C  
ATOM      2  C5    T A   1     -11.390  14.155  64.907  1.00  0.00    -0.365 C  
ATOM      3  C6    T A   1     -10.787  13.686  66.005  1.00  0.00    -0.275 C  
ATOM      4  N1    T A   1     -10.136  14.502  66.926  1.00  0.00    -0.254 N  
ATOM      5  O4    T A   1     -11.978  16.140  63.756  1.00  0.00    -0.926 OA 
ATOM      6  C2    T A   1     -10.195  15.884  66.777  1.00  0.00    -0.282 C  
ATOM      7  O2    T A   1      -9.932  16.700  67.656  1.00  0.00    -0.252 OA 
ATOM      8  H3    T A   1     -10.356  17.286  65.291  1.00  0.00     0.000 HD 
ATOM      9  N3    T A   1     -10.615  16.336  65.556  1.00  0.00    -0.380 N  
ATOM     10  C4    T A   1     -11.351  15.613  64.667  1.00  0.00    -0.349 C  
ENDROOT
BRANCH   4  11
ATOM     11  C1*   T A   1      -9.700  13.916  68.206  1.00  0.00    -0.223 C  
ATOM     12  C2*   T A   1      -8.310  13.290  68.291  1.00  0.00    -0.154 C  
ATOM     13  C3*   T A   1      -8.550  11.891  67.787  1.00  0.00    -0.154 C  
ATOM     14  C4*   T A   1      -9.894  11.576  68.430  1.00  0.00    -0.204 C  
ATOM     15  O3*   T A   1      -7.533  10.980  68.176  1.00  0.00    -0.086 OA 
ATOM     16  H3*   T A   1      -7.685  10.098  67.858  1.00  0.00     0.000 HD 
ATOM     17  O4*   T A   1     -10.604  12.831  68.545  1.00  0.00    -0.244 OA 
BRANCH  14  18
ATOM     18  C5*   T A   1     -10.724  10.568  67.636  1.00  0.00    -0.275 C  
ATOM     19  O5*   T A   1     -12.119  10.721  67.894  1.00  0.00    -0.702 OA 
ATOM     20  H5*   T A   1     -12.636  10.094  67.401  1.00  0.00     0.000 HD 
ENDBRANCH  14  18
ENDBRANCH   4  11
TORSDOF 2
ENDMDL
MODEL       50
REMARK 921   NORMALIZED FREE ENERGY PREDICTED BY IDOCK:   -4.74 KCAL/MOL
REMARK 922        TOTAL FREE ENERGY PREDICTED BY IDOCK:   -5.62 KCAL/MOL
REMARK 923 INTER-LIGAND FREE ENERGY PREDICTED BY IDOCK:   -5.55 KCAL/MOL
REMARK 924 INTRA-LIGAND FREE ENERGY PREDICTED BY IDOCK:   -0.08 KCAL/MOL
REMARK 927      BINDING AFFINITY PREDICTED BY RF-SCORE:    0.00 PKD
ROOT
ATOM      1  C5M   T A   1     -10.557  19.695  66.345  1.00  0.00    -0.592 C  
ATOM      2  C5    T A   1      -9.579  18.799  67.031  1.00  0.00    -0.329 C  
ATOM      3  C6    T A   1      -9.723  17.476  67.167  1.00  0.00    -0.279 C  
ATOM      4  N1    T A   1      -8.813  16.675  67.851  1.00  0.00    -0.202 N  
ATOM      5  O4    T A   1      -8.235  20.644  67.665  1.00  0.00    -0.249 OA 
ATOM      6  C2    T A   1      -7.751  17.269  68.526  1.00  0.00    -0.261 C  
ATOM      7  O2    T A   1      -7.073  16.723  69.392  1.00  0.00    -0.230 OA 
ATOM      8  H3    T A   1      -6.556  18.929  68.399  1.00  0.00     0.000 HD 
ATOM      9  N3    T A   1      -7.491  18.572  68.202  1.00  0.00    -0.260 N  
ATOM     10  C4    T A   1      -8.386  19.429  67.636  1.00  0.00    -0.299 C  
ENDROOT
BRANCH   4  11
ATOM     11  C1*   T A   1      -9.175  15.275  68.132  1.00  0.00    -0.183 C  
ATOM     12  C2*   T A   1     -10.288  14.624  67.313  1.00  0.00    -0.256 C  
ATOM     13  C3*   T A   1     -11.529  15.045  68.055  1.00  0.00    -0.342 C  
ATOM     14  C4*   T A   1     -11.064  14.914  69.499  1.00  0.00    -0.281 C  
ATOM     15  O3*   T A   1     -12.650  14.224  67.767  1.00  0.00    -0.487 OA 
ATOM     16  H3*   T A   1     -13.433  14.489  68.236  1.00  0.00     0.000 HD 
ATOM     17  O4*   T A   1      -9.644  15.190  69.505  1.00  0.00    -0.212 OA 
BRANCH  14  18
ATOM     18  C5*   T A   1     -11.791  15.857  70.458  1.00  0.00    -0.350 C  
ATOM     19  O5*   T A   1     -13.193  15.596  70.485  1.00  0.00    -0.733 OA 
ATOM     20  H5*   T A   1     -13.645  16.183  71.081  1.00  0.00     0.000 HD 
ENDBRANCH  14  18
ENDBRANCH   4  11
TORSDOF 2
ENDMDL
MODEL       51
REMARK 921   NORMALIZED FREE ENERGY PREDICTED BY IDOCK:   -4.74 KCAL/MOL
REMARK 922        TOTAL FREE ENERGY PREDICTED BY IDOCK:   -5.62 KCAL/MOL
REMARK 923 INTER-LIGAND FREE ENERGY PREDICTED BY IDOCK:   -5.16 KCAL/MOL
REMARK 924 INTRA-LIGAND FREE ENERGY PREDICTED BY IDOCK:   -0.46 KCAL/MOL
REMARK 927      BINDING AFFINITY PREDICTED BY RF-SCORE:    0.00 PKD
ROOT
ATOM      1  C5M   T A   1     -10.373   8.149  69.433  1.00  0.00    -0.219 C  
ATOM      2  C5    T A   1     -10.969   9.500  69.657  1.00  0.00    -0.233 C  
ATOM      3  C6    T A   1     -10.753  10.567  68.880  1.00  0.00    -0.220 C  
ATOM      4  N1    T A   1     -11.291  11.824  69.143  1.00  0.00    -0.258 N  
ATOM      5  O4    T A   1     -11.981   8.787  71.677  1.00  0.00    -0.291 OA 
ATOM      6  C2    T A   1     -12.001  12.033  70.321  1.00  0.00    -0.314 C  
ATOM      7  O2    T A   1     -12.258  13.131  70.804  1.00  0.00    -0.361 OA 
ATOM      8  H3    T A   1     -13.181  10.992  71.634  1.00  0.00     0.000 HD 
ATOM      9  N3    T A   1     -12.398  10.905  70.986  1.00  0.00    -0.377 N  
ATOM     10  C4    T A   1     -11.829   9.675  70.847  1.00  0.00    -0.323 C  
ENDROOT
BRANCH   4  11
ATOM     11  C1*   T A   1     -10.815  12.975  68.355  1.00  0.00    -0.258 C  
ATOM     12  C2*   T A   1     -11.815  13.736  67.487  1.00  0.00    -0.422 C  
ATOM     13  C3*   T A   1     -11.824  12.929  66.215  1.00  0.00    -0.416 C  
ATOM     14  C4*   T A   1     -10.346  12.588  66.075  1.00  0.00    -0.256 C  
ATOM     15  O3*   T A   1     -12.322  13.656  65.102  1.00  0.00    -0.406 OA 
ATOM     16  H3*   T A   1     -12.328  13.146  64.300  1.00  0.00     0.000 HD 
ATOM     17  O4*   T A   1      -9.810  12.504  67.417  1.00  0.00    -0.197 OA 
BRANCH  14  18
ATOM     18  C5*   T A   1     -10.093  11.283  65.321  1.00  0.00    -0.267 C  
ATOM     19  O5*   T A   1     -11.021  11.110  64.251  1.00  0.00    -0.341 OA 
ATOM     20  H5*   T A   1     -10.865  10.298  63.782  1.00  0.00     0.000 HD 
ENDBRANCH  14  18
ENDBRANCH   4  11
TORSDOF 2
ENDMDL
MODEL       52
REMARK 921   NORMALIZED FREE ENERGY PREDICTED BY IDOCK:   -4.74 KCAL/MOL
REMARK 922        TOTAL FREE ENERGY PREDICTED BY IDOCK:   -5.62 KCAL/MOL
REMARK 923 INTER-LIGAND FREE ENERGY PREDICTED BY IDOCK:   -5.43 KCAL/MOL
REMARK 924 INTRA-LIGAND FREE ENERGY PREDICTED BY IDOCK:   -0.19 KCAL/MOL
REMARK 927      BINDING AFFINITY PREDICTED BY RF-SCORE:    0.00 PKD
ROOT
ATOM      1  C5M   T A   1     -11.559  10.675  70.013  1.00  0.00    -0.406 C  
ATOM      2  C5    T A   1     -11.305  11.140  68.617  1.00  0.00    -0.342 C  
ATOM      3  C6    T A   1     -11.545  12.378  68.170  1.00  0.00    -0.341 C  
ATOM      4  N1    T A   1     -11.337  12.767  66.850  1.00  0.00    -0.303 N  
ATOM      5  O4    T A   1     -10.658   8.963  67.942  1.00  0.00    -0.230 OA 
ATOM      6  C2    T A   1     -10.968  11.814  65.906  1.00  0.00    -0.304 C  
ATOM      7  O2    T A   1     -11.047  11.959  64.689  1.00  0.00    -0.303 OA 
ATOM      8  H3    T A   1      -9.935  10.047  65.797  1.00  0.00     0.000 HD 
ATOM      9  N3    T A   1     -10.518  10.622  66.405  1.00  0.00    -0.235 N  
ATOM     10  C4    T A   1     -10.789  10.146  67.652  1.00  0.00    -0.290 C  
ENDROOT
BRANCH   4  11
ATOM     11  C1*   T A   1     -11.838  14.082  66.413  1.00  0.00    -0.418 C  
ATOM     12  C2*   T A   1     -11.025  14.877  65.394  1.00  0.00    -0.371 C  
ATOM     13  C3*   T A   1     -10.027  15.598  66.264  1.00  0.00    -0.295 C  
ATOM     14  C4*   T A   1     -10.899  15.981  67.452  1.00  0.00    -0.277 C  
ATOM     15  O3*   T A   1      -9.451  16.727  65.625  1.00  0.00    -0.523 OA 
ATOM     16  H3*   T A   1      -8.822  17.181  66.173  1.00  0.00     0.000 HD 
ATOM     17  O4*   T A   1     -11.910  14.953  67.574  1.00  0.00    -0.350 OA 
BRANCH  14  18
ATOM     18  C5*   T A   1     -10.117  16.113  68.759  1.00  0.00    -0.237 C  
ATOM     19  O5*   T A   1      -9.250  14.999  68.964  1.00  0.00    -0.201 OA 
ATOM     20  H5*   T A   1      -8.764  15.081  69.777  1.00  0.00     0.000 HD 
ENDBRANCH  14  18
ENDBRANCH   4  11
TORSDOF 2
ENDMDL
MODEL       53
REMARK 921   NORMALIZED FREE ENERGY PREDICTED BY IDOCK:   -4.72 KCAL/MOL
REMARK 922        TOTAL FREE ENERGY PREDICTED BY IDOCK:   -5.60 KCAL/MOL
REMARK 923 INTER-LIGAND FREE ENERGY PREDICTED BY IDOCK:   -5.35 KCAL/MOL
REMARK 924 INTRA-LIGAND FREE ENERGY PREDICTED BY IDOCK:   -0.25 KCAL/MOL
REMARK 927      BINDING AFFINITY PREDICTED BY RF-SCORE:    0.00 PKD
ROOT
ATOM      1  C5M   T A   1     -12.606  11.972  63.345  1.00  0.00    -0.592 C  
ATOM      2  C5    T A   1     -11.966  12.661  64.505  1.00  0.00    -0.464 C  
ATOM      3  C6    T A   1     -11.326  12.041  65.503  1.00  0.00    -0.328 C  
ATOM      4  N1    T A   1     -10.778  12.712  66.592  1.00  0.00    -0.251 N  
ATOM      5  O4    T A   1     -12.756  14.770  63.768  1.00  0.00    -0.767 OA 
ATOM      6  C2    T A   1     -10.985  14.080  66.728  1.00  0.00    -0.297 C  
ATOM      7  O2    T A   1     -10.822  14.719  67.764  1.00  0.00    -0.266 OA 
ATOM      8  H3    T A   1     -11.284  15.736  65.557  1.00  0.00     0.000 HD 
ATOM      9  N3    T A   1     -11.440  14.729  65.613  1.00  0.00    -0.346 N  
ATOM     10  C4    T A   1     -12.084  14.134  64.572  1.00  0.00    -0.468 C  
ENDROOT
BRANCH   4  11
ATOM     11  C1*   T A   1     -10.292  11.921  67.737  1.00  0.00    -0.198 C  
ATOM     12  C2*   T A   1      -8.849  12.110  68.202  1.00  0.00    -0.187 C  
ATOM     13  C3*   T A   1      -8.090  11.176  67.296  1.00  0.00    -0.137 C  
ATOM     14  C4*   T A   1      -9.038   9.985  67.244  1.00  0.00    -0.138 C  
ATOM     15  O3*   T A   1      -6.810  10.831  67.804  1.00  0.00    -0.071 OA 
ATOM     16  H3*   T A   1      -6.332  10.242  67.233  1.00  0.00     0.000 HD 
ATOM     17  O4*   T A   1     -10.377  10.513  67.391  1.00  0.00    -0.199 OA 
BRANCH  14  18
ATOM     18  C5*   T A   1      -8.926   9.177  65.951  1.00  0.00    -0.189 C  
ATOM     19  O5*   T A   1      -9.894   8.129  65.905  1.00  0.00    -0.451 OA 
ATOM     20  H5*   T A   1      -9.824   7.627  65.101  1.00  0.00     0.000 HD 
ENDBRANCH  14  18
ENDBRANCH   4  11
TORSDOF 2
ENDMDL
MODEL       54
REMARK 921   NORMALIZED FREE ENERGY PREDICTED BY IDOCK:   -4.71 KCAL/MOL
REMARK 922        TOTAL FREE ENERGY PREDICTED BY IDOCK:   -5.58 KCAL/MOL
REMARK 923 INTER-LIGAND FREE ENERGY PREDICTED BY IDOCK:   -5.66 KCAL/MOL
REMARK 924 INTRA-LIGAND FREE ENERGY PREDICTED BY IDOCK:    0.08 KCAL/MOL
REMARK 927      BINDING AFFINITY PREDICTED BY RF-SCORE:    0.00 PKD
ROOT
ATOM      1  C5M   T A   1     -10.399  11.701  63.239  1.00  0.00    -0.444 C  
ATOM      2  C5    T A   1     -10.855  12.492  64.421  1.00  0.00    -0.375 C  
ATOM      3  C6    T A   1     -10.048  12.968  65.376  1.00  0.00    -0.252 C  
ATOM      4  N1    T A   1     -10.511  13.664  66.488  1.00  0.00    -0.278 N  
ATOM      5  O4    T A   1     -13.126  12.227  63.801  1.00  0.00    -0.780 OA 
ATOM      6  C2    T A   1     -11.881  13.791  66.696  1.00  0.00    -0.412 C  
ATOM      7  O2    T A   1     -12.408  14.106  67.759  1.00  0.00    -0.256 OA 
ATOM      8  H3    T A   1     -13.618  13.893  65.613  1.00  0.00     0.000 HD 
ATOM      9  N3    T A   1     -12.677  13.501  65.621  1.00  0.00    -0.467 N  
ATOM     10  C4    T A   1     -12.307  12.729  64.562  1.00  0.00    -0.445 C  
ENDROOT
BRANCH   4  11
ATOM     11  C1*   T A   1      -9.570  13.950  67.586  1.00  0.00    -0.215 C  
ATOM     12  C2*   T A   1      -9.958  14.990  68.635  1.00  0.00    -0.220 C  
ATOM     13  C3*   T A   1      -9.525  16.282  67.990  1.00  0.00    -0.223 C  
ATOM     14  C4*   T A   1      -8.208  15.862  67.353  1.00  0.00    -0.168 C  
ATOM     15  O3*   T A   1      -9.367  17.340  68.923  1.00  0.00    -0.257 OA 
ATOM     16  H3*   T A   1      -9.094  18.153  68.516  1.00  0.00     0.000 HD 
ATOM     17  O4*   T A   1      -8.338  14.462  67.011  1.00  0.00    -0.198 OA 
BRANCH  14  18
ATOM     18  C5*   T A   1      -7.847  16.679  66.112  1.00  0.00    -0.162 C  
ATOM     19  O5*   T A   1      -8.865  17.628  65.797  1.00  0.00    -0.508 OA 
ATOM     20  H5*   T A   1      -8.641  18.135  65.025  1.00  0.00     0.000 HD 
ENDBRANCH  14  18
ENDBRANCH   4  11
TORSDOF 2
ENDMDL
MODEL       55
REMARK 921   NORMALIZED FREE ENERGY PREDICTED BY IDOCK:   -4.70 KCAL/MOL
REMARK 922        TOTAL FREE ENERGY PREDICTED BY IDOCK:   -5.57 KCAL/MOL
REMARK 923 INTER-LIGAND FREE ENERGY PREDICTED BY IDOCK:   -5.47 KCAL/MOL
REMARK 924 INTRA-LIGAND FREE ENERGY PREDICTED BY IDOCK:   -0.10 KCAL/MOL
REMARK 927      BINDING AFFINITY PREDICTED BY RF-SCORE:    0.00 PKD
ROOT
ATOM      1  C5M   T A   1      -6.813  14.098  68.237  1.00  0.00    -0.107 C  
ATOM      2  C5    T A   1      -7.865  14.891  67.533  1.00  0.00    -0.206 C  
ATOM      3  C6    T A   1      -9.159  14.558  67.473  1.00  0.00    -0.193 C  
ATOM      4  N1    T A   1     -10.105  15.298  66.771  1.00  0.00    -0.252 N  
ATOM      5  O4    T A   1      -6.252  16.424  66.719  1.00  0.00    -0.301 OA 
ATOM      6  C2    T A   1      -9.694  16.379  65.997  1.00  0.00    -0.326 C  
ATOM      7  O2    T A   1     -10.363  16.911  65.116  1.00  0.00    -0.631 OA 
ATOM      8  H3    T A   1      -8.212  17.795  65.961  1.00  0.00     0.000 HD 
ATOM      9  N3    T A   1      -8.427  16.837  66.238  1.00  0.00    -0.303 N  
ATOM     10  C4    T A   1      -7.432  16.112  66.819  1.00  0.00    -0.211 C  
ENDROOT
BRANCH   4  11
ATOM     11  C1*   T A   1     -11.452  14.729  66.585  1.00  0.00    -0.335 C  
ATOM     12  C2*   T A   1     -11.934  13.650  67.553  1.00  0.00    -0.393 C  
ATOM     13  C3*   T A   1     -11.369  12.392  66.947  1.00  0.00    -0.333 C  
ATOM     14  C4*   T A   1     -11.590  12.658  65.464  1.00  0.00    -0.370 C  
ATOM     15  O3*   T A   1     -12.031  11.218  67.394  1.00  0.00    -0.581 OA 
ATOM     16  H3*   T A   1     -11.675  10.425  67.011  1.00  0.00     0.000 HD 
ATOM     17  O4*   T A   1     -11.503  14.090  65.281  1.00  0.00    -0.307 OA 
BRANCH  14  18
ATOM     18  C5*   T A   1     -10.579  11.946  64.564  1.00  0.00    -0.311 C  
ATOM     19  O5*   T A   1     -10.335  10.612  65.005  1.00  0.00    -0.310 OA 
ATOM     20  H5*   T A   1      -9.707  10.170  64.446  1.00  0.00     0.000 HD 
ENDBRANCH  14  18
ENDBRANCH   4  11
TORSDOF 2
ENDMDL
MODEL       56
REMARK 921   NORMALIZED FREE ENERGY PREDICTED BY IDOCK:   -4.68 KCAL/MOL
REMARK 922        TOTAL FREE ENERGY PREDICTED BY IDOCK:   -5.55 KCAL/MOL
REMARK 923 INTER-LIGAND FREE ENERGY PREDICTED BY IDOCK:   -5.44 KCAL/MOL
REMARK 924 INTRA-LIGAND FREE ENERGY PREDICTED BY IDOCK:   -0.11 KCAL/MOL
REMARK 927      BINDING AFFINITY PREDICTED BY RF-SCORE:    0.00 PKD
ROOT
ATOM      1  C5M   T A   1      -9.403  10.474  68.446  1.00  0.00    -0.158 C  
ATOM      2  C5    T A   1      -9.275  11.895  68.005  1.00  0.00    -0.190 C  
ATOM      3  C6    T A   1     -10.157  12.536  67.230  1.00  0.00    -0.213 C  
ATOM      4  N1    T A   1      -9.985  13.849  66.802  1.00  0.00    -0.263 N  
ATOM      5  O4    T A   1      -7.149  12.087  69.032  1.00  0.00    -0.108 OA 
ATOM      6  C2    T A   1      -8.797  14.513  67.089  1.00  0.00    -0.229 C  
ATOM      7  O2    T A   1      -8.405  15.532  66.528  1.00  0.00    -0.269 OA 
ATOM      8  H3    T A   1      -7.334  14.539  68.525  1.00  0.00     0.000 HD 
ATOM      9  N3    T A   1      -8.011  13.940  68.052  1.00  0.00    -0.140 N  
ATOM     10  C4    T A   1      -8.064  12.632  68.426  1.00  0.00    -0.137 C  
ENDROOT
BRANCH   4  11
ATOM     11  C1*   T A   1     -10.899  14.384  65.777  1.00  0.00    -0.307 C  
ATOM     12  C2*   T A   1     -12.324  13.839  65.707  1.00  0.00    -0.523 C  
ATOM     13  C3*   T A   1     -12.162  12.609  64.852  1.00  0.00    -0.471 C  
ATOM     14  C4*   T A   1     -11.167  13.105  63.813  1.00  0.00    -0.273 C  
ATOM     15  O3*   T A   1     -13.382  12.173  64.273  1.00  0.00    -0.761 OA 
ATOM     16  H3*   T A   1     -13.279  11.397  63.734  1.00  0.00     0.000 HD 
ATOM     17  O4*   T A   1     -10.339  14.095  64.468  1.00  0.00    -0.390 OA 
BRANCH  14  18
ATOM     18  C5*   T A   1     -10.298  11.993  63.226  1.00  0.00    -0.359 C  
ATOM     19  O5*   T A   1     -11.086  10.880  62.805  1.00  0.00    -0.644 OA 
ATOM     20  H5*   T A   1     -10.546  10.189  62.441  1.00  0.00     0.000 HD 
ENDBRANCH  14  18
ENDBRANCH   4  11
TORSDOF 2
ENDMDL
MODEL       57
REMARK 921   NORMALIZED FREE ENERGY PREDICTED BY IDOCK:   -4.66 KCAL/MOL
REMARK 922        TOTAL FREE ENERGY PREDICTED BY IDOCK:   -5.53 KCAL/MOL
REMARK 923 INTER-LIGAND FREE ENERGY PREDICTED BY IDOCK:   -5.13 KCAL/MOL
REMARK 924 INTRA-LIGAND FREE ENERGY PREDICTED BY IDOCK:   -0.40 KCAL/MOL
REMARK 927      BINDING AFFINITY PREDICTED BY RF-SCORE:    0.00 PKD
ROOT
ATOM      1  C5M   T A   1     -10.541  15.660  65.562  1.00  0.00    -0.422 C  
ATOM      2  C5    T A   1     -10.850  15.159  66.934  1.00  0.00    -0.317 C  
ATOM      3  C6    T A   1     -11.165  13.893  67.231  1.00  0.00    -0.312 C  
ATOM      4  N1    T A   1     -11.490  13.469  68.516  1.00  0.00    -0.286 N  
ATOM      5  O4    T A   1     -10.687  17.344  67.836  1.00  0.00    -0.383 OA 
ATOM      6  C2    T A   1     -11.606  14.406  69.538  1.00  0.00    -0.304 C  
ATOM      7  O2    T A   1     -12.166  14.212  70.613  1.00  0.00    -0.316 OA 
ATOM      8  H3    T A   1     -10.833  16.226  70.078  1.00  0.00     0.000 HD 
ATOM      9  N3    T A   1     -11.075  15.640  69.279  1.00  0.00    -0.270 N  
ATOM     10  C4    T A   1     -10.844  16.145  68.036  1.00  0.00    -0.333 C  
ENDROOT
BRANCH   4  11
ATOM     11  C1*   T A   1     -12.033  12.111  68.696  1.00  0.00    -0.237 C  
ATOM     12  C2*   T A   1     -11.481  11.242  69.824  1.00  0.00    -0.386 C  
ATOM     13  C3*   T A   1     -10.264  10.620  69.192  1.00  0.00    -0.220 C  
ATOM     14  C4*   T A   1     -10.780  10.330  67.789  1.00  0.00    -0.275 C  
ATOM     15  O3*   T A   1      -9.829   9.448  69.865  1.00  0.00    -0.184 OA 
ATOM     16  H3*   T A   1      -9.061   9.056  69.465  1.00  0.00     0.000 HD 
ATOM     17  O4*   T A   1     -11.765  11.347  67.490  1.00  0.00    -0.568 OA 
BRANCH  14  18
ATOM     18  C5*   T A   1      -9.680  10.330  66.727  1.00  0.00    -0.185 C  
ATOM     19  O5*   T A   1      -8.488   9.712  67.209  1.00  0.00    -0.129 OA 
ATOM     20  H5*   T A   1      -7.804   9.712  66.549  1.00  0.00     0.000 HD 
ENDBRANCH  14  18
ENDBRANCH   4  11
TORSDOF 2
ENDMDL
MODEL       58
REMARK 921   NORMALIZED FREE ENERGY PREDICTED BY IDOCK:   -4.66 KCAL/MOL
REMARK 922        TOTAL FREE ENERGY PREDICTED BY IDOCK:   -5.53 KCAL/MOL
REMARK 923 INTER-LIGAND FREE ENERGY PREDICTED BY IDOCK:   -5.55 KCAL/MOL
REMARK 924 INTRA-LIGAND FREE ENERGY PREDICTED BY IDOCK:    0.02 KCAL/MOL
REMARK 927      BINDING AFFINITY PREDICTED BY RF-SCORE:    0.00 PKD
ROOT
ATOM      1  C5M   T A   1     -10.596   9.186  68.266  1.00  0.00    -0.223 C  
ATOM      2  C5    T A   1     -11.202  10.515  68.577  1.00  0.00    -0.332 C  
ATOM      3  C6    T A   1     -11.503  11.448  67.666  1.00  0.00    -0.273 C  
ATOM      4  N1    T A   1     -12.027  12.694  67.996  1.00  0.00    -0.317 N  
ATOM      5  O4    T A   1     -11.090  10.091  70.905  1.00  0.00    -0.328 OA 
ATOM      6  C2    T A   1     -12.151  13.053  69.334  1.00  0.00    -0.212 C  
ATOM      7  O2    T A   1     -12.307  14.200  69.745  1.00  0.00    -0.336 OA 
ATOM      8  H3    T A   1     -12.462  12.177  71.160  1.00  0.00     0.000 HD 
ATOM      9  N3    T A   1     -12.052  12.031  70.238  1.00  0.00    -0.340 N  
ATOM     10  C4    T A   1     -11.448  10.834  69.999  1.00  0.00    -0.331 C  
ENDROOT
BRANCH   4  11
ATOM     11  C1*   T A   1     -12.116  13.724  66.945  1.00  0.00    -0.413 C  
ATOM     12  C2*   T A   1     -11.940  13.303  65.487  1.00  0.00    -0.445 C  
ATOM     13  C3*   T A   1     -10.443  13.326  65.318  1.00  0.00    -0.313 C  
ATOM     14  C4*   T A   1     -10.080  14.575  66.109  1.00  0.00    -0.305 C  
ATOM     15  O3*   T A   1     -10.042  13.407  63.959  1.00  0.00    -0.764 OA 
ATOM     16  H3*   T A   1      -9.098  13.421  63.853  1.00  0.00     0.000 HD 
ATOM     17  O4*   T A   1     -11.060  14.697  67.167  1.00  0.00    -0.307 OA 
BRANCH  14  18
ATOM     18  C5*   T A   1      -8.669  14.530  66.697  1.00  0.00    -0.129 C  
ATOM     19  O5*   T A   1      -8.423  13.297  67.372  1.00  0.00    -0.184 OA 
ATOM     20  H5*   T A   1      -7.546  13.270  67.738  1.00  0.00     0.000 HD 
ENDBRANCH  14  18
ENDBRANCH   4  11
TORSDOF 2
ENDMDL
MODEL       59
REMARK 921   NORMALIZED FREE ENERGY PREDICTED BY IDOCK:   -4.66 KCAL/MOL
REMARK 922        TOTAL FREE ENERGY PREDICTED BY IDOCK:   -5.53 KCAL/MOL
REMARK 923 INTER-LIGAND FREE ENERGY PREDICTED BY IDOCK:   -5.82 KCAL/MOL
REMARK 924 INTRA-LIGAND FREE ENERGY PREDICTED BY IDOCK:    0.30 KCAL/MOL
REMARK 927      BINDING AFFINITY PREDICTED BY RF-SCORE:    0.00 PKD
ROOT
ATOM      1  C5M   T A   1     -12.654  10.528  70.495  1.00  0.00    -0.423 C  
ATOM      2  C5    T A   1     -11.473  10.956  69.688  1.00  0.00    -0.377 C  
ATOM      3  C6    T A   1     -11.467  11.981  68.829  1.00  0.00    -0.300 C  
ATOM      4  N1    T A   1     -10.360  12.326  68.060  1.00  0.00    -0.208 N  
ATOM      5  O4    T A   1     -10.186   9.135  70.491  1.00  0.00    -0.202 OA 
ATOM      6  C2    T A   1      -9.229  11.517  68.086  1.00  0.00    -0.181 C  
ATOM      7  O2    T A   1      -8.328  11.537  67.252  1.00  0.00    -0.141 OA 
ATOM      8  H3    T A   1      -8.242  10.258  69.368  1.00  0.00     0.000 HD 
ATOM      9  N3    T A   1      -9.163  10.616  69.113  1.00  0.00    -0.178 N  
ATOM     10  C4    T A   1     -10.233  10.161  69.822  1.00  0.00    -0.247 C  
ENDROOT
BRANCH   4  11
ATOM     11  C1*   T A   1     -10.526  13.327  66.990  1.00  0.00    -0.249 C  
ATOM     12  C2*   T A   1     -11.927  13.589  66.441  1.00  0.00    -0.459 C  
ATOM     13  C3*   T A   1     -12.075  12.515  65.395  1.00  0.00    -0.435 C  
ATOM     14  C4*   T A   1     -10.681  12.513  64.782  1.00  0.00    -0.302 C  
ATOM     15  O3*   T A   1     -13.088  12.805  64.444  1.00  0.00    -0.724 OA 
ATOM     16  H3*   T A   1     -13.180  12.128  63.784  1.00  0.00     0.000 HD 
ATOM     17  O4*   T A   1      -9.763  12.892  65.834  1.00  0.00    -0.252 OA 
BRANCH  14  18
ATOM     18  C5*   T A   1     -10.281  11.160  64.191  1.00  0.00    -0.347 C  
ATOM     19  O5*   T A   1     -10.790  10.997  62.868  1.00  0.00    -0.797 OA 
ATOM     20  H5*   T A   1     -10.541  10.156  62.501  1.00  0.00     0.000 HD 
ENDBRANCH  14  18
ENDBRANCH   4  11
TORSDOF 2
ENDMDL
MODEL       60
REMARK 921   NORMALIZED FREE ENERGY PREDICTED BY IDOCK:   -4.64 KCAL/MOL
REMARK 922        TOTAL FREE ENERGY PREDICTED BY IDOCK:   -5.50 KCAL/MOL
REMARK 923 INTER-LIGAND FREE ENERGY PREDICTED BY IDOCK:   -5.05 KCAL/MOL
REMARK 924 INTRA-LIGAND FREE ENERGY PREDICTED BY IDOCK:   -0.46 KCAL/MOL
REMARK 927      BINDING AFFINITY PREDICTED BY RF-SCORE:    0.00 PKD
ROOT
ATOM      1  C5M   T A   1     -10.340   6.079  70.283  1.00  0.00    -0.282 C  
ATOM      2  C5    T A   1     -11.145   7.297  70.597  1.00  0.00    -0.287 C  
ATOM      3  C6    T A   1     -10.909   8.516  70.098  1.00  0.00    -0.233 C  
ATOM      4  N1    T A   1     -11.652   9.640  70.447  1.00  0.00    -0.255 N  
ATOM      5  O4    T A   1     -12.465   6.100  72.158  1.00  0.00    -0.262 OA 
ATOM      6  C2    T A   1     -12.621   9.540  71.441  1.00  0.00    -0.359 C  
ATOM      7  O2    T A   1     -13.119  10.489  72.038  1.00  0.00    -0.467 OA 
ATOM      8  H3    T A   1     -13.908   8.152  72.228  1.00  0.00     0.000 HD 
ATOM      9  N3    T A   1     -12.999   8.269  71.779  1.00  0.00    -0.336 N  
ATOM     10  C4    T A   1     -12.256   7.149  71.561  1.00  0.00    -0.360 C  
ENDROOT
BRANCH   4  11
ATOM     11  C1*   T A   1     -11.174  10.966  70.015  1.00  0.00    -0.263 C  
ATOM     12  C2*   T A   1     -12.034  11.777  69.047  1.00  0.00    -0.341 C  
ATOM     13  C3*   T A   1     -11.612  11.239  67.705  1.00  0.00    -0.210 C  
ATOM     14  C4*   T A   1     -10.111  11.084  67.912  1.00  0.00    -0.178 C  
ATOM     15  O3*   T A   1     -11.926  12.116  66.634  1.00  0.00    -0.616 OA 
ATOM     16  H3*   T A   1     -11.659  11.776  65.788  1.00  0.00     0.000 HD 
ATOM     17  O4*   T A   1      -9.913  10.792  69.315  1.00  0.00    -0.214 OA 
BRANCH  14  18
ATOM     18  C5*   T A   1      -9.491   9.984  67.050  1.00  0.00    -0.164 C  
ATOM     19  O5*   T A   1     -10.411   9.509  66.067  1.00  0.00    -0.220 OA 
ATOM     20  H5*   T A   1     -10.025   8.825  65.531  1.00  0.00     0.000 HD 
ENDBRANCH  14  18
ENDBRANCH   4  11
TORSDOF 2
ENDMDL
MODEL       61
REMARK 921   NORMALIZED FREE ENERGY PREDICTED BY IDOCK:   -4.62 KCAL/MOL
REMARK 922        TOTAL FREE ENERGY PREDICTED BY IDOCK:   -5.48 KCAL/MOL
REMARK 923 INTER-LIGAND FREE ENERGY PREDICTED BY IDOCK:   -5.73 KCAL/MOL
REMARK 924 INTRA-LIGAND FREE ENERGY PREDICTED BY IDOCK:    0.24 KCAL/MOL
REMARK 927      BINDING AFFINITY PREDICTED BY RF-SCORE:    0.00 PKD
ROOT
ATOM      1  C5M   T A   1     -10.226  10.338  66.095  1.00  0.00    -0.285 C  
ATOM      2  C5    T A   1     -10.663  10.740  67.465  1.00  0.00    -0.312 C  
ATOM      3  C6    T A   1     -10.299  10.121  68.594  1.00  0.00    -0.188 C  
ATOM      4  N1    T A   1     -10.761  10.494  69.852  1.00  0.00    -0.266 N  
ATOM      5  O4    T A   1     -12.079  12.424  66.588  1.00  0.00    -0.592 OA 
ATOM      6  C2    T A   1     -11.732  11.484  69.960  1.00  0.00    -0.332 C  
ATOM      7  O2    T A   1     -12.424  11.689  70.953  1.00  0.00    -0.376 OA 
ATOM      8  H3    T A   1     -12.358  13.166  68.970  1.00  0.00     0.000 HD 
ATOM      9  N3    T A   1     -11.930  12.249  68.843  1.00  0.00    -0.291 N  
ATOM     10  C4    T A   1     -11.599  11.879  67.575  1.00  0.00    -0.304 C  
ENDROOT
BRANCH   4  11
ATOM     11  C1*   T A   1     -10.475   9.614  71.000  1.00  0.00    -0.257 C  
ATOM     12  C2*   T A   1     -10.247   8.126  70.746  1.00  0.00    -0.215 C  
ATOM     13  C3*   T A   1     -11.650   7.578  70.736  1.00  0.00    -0.277 C  
ATOM     14  C4*   T A   1     -12.282   8.373  71.870  1.00  0.00    -0.343 C  
ATOM     15  O3*   T A   1     -11.698   6.177  70.960  1.00  0.00    -0.281 OA 
ATOM     16  H3*   T A   1     -12.583   5.832  70.954  1.00  0.00     0.000 HD 
ATOM     17  O4*   T A   1     -11.612   9.655  71.903  1.00  0.00    -0.339 OA 
BRANCH  14  18
ATOM     18  C5*   T A   1     -13.790   8.567  71.707  1.00  0.00    -0.413 C  
ATOM     19  O5*   T A   1     -14.387   7.468  71.020  1.00  0.00    -0.655 OA 
ATOM     20  H5*   T A   1     -15.324   7.589  70.919  1.00  0.00     0.000 HD 
ENDBRANCH  14  18
ENDBRANCH   4  11
TORSDOF 2
ENDMDL
MODEL       62
REMARK 921   NORMALIZED FREE ENERGY PREDICTED BY IDOCK:   -4.62 KCAL/MOL
REMARK 922        TOTAL FREE ENERGY PREDICTED BY IDOCK:   -5.48 KCAL/MOL
REMARK 923 INTER-LIGAND FREE ENERGY PREDICTED BY IDOCK:   -5.13 KCAL/MOL
REMARK 924 INTRA-LIGAND FREE ENERGY PREDICTED BY IDOCK:   -0.35 KCAL/MOL
REMARK 927      BINDING AFFINITY PREDICTED BY RF-SCORE:    0.00 PKD
ROOT
ATOM      1  C5M   T A   1     -12.198  12.450  63.416  1.00  0.00    -0.623 C  
ATOM      2  C5    T A   1     -11.952  12.472  64.889  1.00  0.00    -0.468 C  
ATOM      3  C6    T A   1     -11.286  11.529  65.565  1.00  0.00    -0.138 C  
ATOM      4  N1    T A   1     -11.113  11.558  66.945  1.00  0.00    -0.296 N  
ATOM      5  O4    T A   1     -13.249  14.439  65.140  1.00  0.00    -0.602 OA 
ATOM      6  C2    T A   1     -11.745  12.545  67.694  1.00  0.00    -0.361 C  
ATOM      7  O2    T A   1     -11.918  12.507  68.909  1.00  0.00    -0.299 OA 
ATOM      8  H3    T A   1     -12.383  14.483  67.495  1.00  0.00     0.000 HD 
ATOM      9  N3    T A   1     -12.230  13.612  66.988  1.00  0.00    -0.370 N  
ATOM     10  C4    T A   1     -12.523  13.598  65.658  1.00  0.00    -0.496 C  
ENDROOT
BRANCH   4  11
ATOM     11  C1*   T A   1     -10.559  10.366  67.613  1.00  0.00    -0.257 C  
ATOM     12  C2*   T A   1      -9.276  10.511  68.429  1.00  0.00    -0.154 C  
ATOM     13  C3*   T A   1      -8.204  10.364  67.381  1.00  0.00    -0.117 C  
ATOM     14  C4*   T A   1      -8.790   9.254  66.519  1.00  0.00    -0.133 C  
ATOM     15  O3*   T A   1      -6.940  10.019  67.928  1.00  0.00    -0.081 OA 
ATOM     16  H3*   T A   1      -6.264   9.926  67.267  1.00  0.00     0.000 HD 
ATOM     17  O4*   T A   1     -10.229   9.383  66.596  1.00  0.00    -0.252 OA 
BRANCH  14  18
ATOM     18  C5*   T A   1      -8.330   9.312  65.062  1.00  0.00    -0.154 C  
ATOM     19  O5*   T A   1      -8.007  10.645  64.669  1.00  0.00    -0.330 OA 
ATOM     20  H5*   T A   1      -7.722  10.681  63.763  1.00  0.00     0.000 HD 
ENDBRANCH  14  18
ENDBRANCH   4  11
TORSDOF 2
ENDMDL
MODEL       63
REMARK 921   NORMALIZED FREE ENERGY PREDICTED BY IDOCK:   -4.62 KCAL/MOL
REMARK 922        TOTAL FREE ENERGY PREDICTED BY IDOCK:   -5.48 KCAL/MOL
REMARK 923 INTER-LIGAND FREE ENERGY PREDICTED BY IDOCK:   -5.26 KCAL/MOL
REMARK 924 INTRA-LIGAND FREE ENERGY PREDICTED BY IDOCK:   -0.22 KCAL/MOL
REMARK 927      BINDING AFFINITY PREDICTED BY RF-SCORE:    0.00 PKD
ROOT
ATOM      1  C5M   T A   1      -8.660  10.320  65.850  1.00  0.00    -0.160 C  
ATOM      2  C5    T A   1      -9.542  11.321  65.179  1.00  0.00    -0.269 C  
ATOM      3  C6    T A   1     -10.032  12.419  65.764  1.00  0.00    -0.254 C  
ATOM      4  N1    T A   1     -10.888  13.309  65.122  1.00  0.00    -0.299 N  
ATOM      5  O4    T A   1      -9.629  10.013  63.205  1.00  0.00    -0.270 OA 
ATOM      6  C2    T A   1     -11.358  13.009  63.848  1.00  0.00    -0.410 C  
ATOM      7  O2    T A   1     -12.325  13.540  63.309  1.00  0.00    -0.709 OA 
ATOM      8  H3    T A   1     -10.765  11.996  62.167  1.00  0.00     0.000 HD 
ATOM      9  N3    T A   1     -10.690  12.016  63.184  1.00  0.00    -0.315 N  
ATOM     10  C4    T A   1      -9.931  11.053  63.778  1.00  0.00    -0.350 C  
ENDROOT
BRANCH   4  11
ATOM     11  C1*   T A   1     -11.543  14.361  65.920  1.00  0.00    -0.361 C  
ATOM     12  C2*   T A   1     -11.153  15.818  65.677  1.00  0.00    -0.155 C  
ATOM     13  C3*   T A   1      -9.935  15.980  66.550  1.00  0.00    -0.279 C  
ATOM     14  C4*   T A   1     -10.351  15.187  67.781  1.00  0.00    -0.243 C  
ATOM     15  O3*   T A   1      -9.646  17.337  66.848  1.00  0.00    -0.251 OA 
ATOM     16  H3*   T A   1      -8.878  17.439  67.398  1.00  0.00     0.000 HD 
ATOM     17  O4*   T A   1     -11.230  14.134  67.321  1.00  0.00    -0.296 OA 
BRANCH  14  18
ATOM     18  C5*   T A   1      -9.169  14.593  68.547  1.00  0.00    -0.193 C  
ATOM     19  O5*   T A   1      -9.094  15.110  69.875  1.00  0.00    -0.450 OA 
ATOM     20  H5*   T A   1      -8.359  14.740  70.351  1.00  0.00     0.000 HD 
ENDBRANCH  14  18
ENDBRANCH   4  11
TORSDOF 2
ENDMDL
MODEL       64
REMARK 921   NORMALIZED FREE ENERGY PREDICTED BY IDOCK:   -4.62 KCAL/MOL
REMARK 922        TOTAL FREE ENERGY PREDICTED BY IDOCK:   -5.48 KCAL/MOL
REMARK 923 INTER-LIGAND FREE ENERGY PREDICTED BY IDOCK:   -5.56 KCAL/MOL
REMARK 924 INTRA-LIGAND FREE ENERGY PREDICTED BY IDOCK:    0.08 KCAL/MOL
REMARK 927      BINDING AFFINITY PREDICTED BY RF-SCORE:    0.00 PKD
ROOT
ATOM      1  C5M   T A   1     -11.058  16.303  70.290  1.00  0.00    -0.340 C  
ATOM      2  C5    T A   1     -10.952  16.299  68.801  1.00  0.00    -0.343 C  
ATOM      3  C6    T A   1     -11.219  15.245  68.020  1.00  0.00    -0.326 C  
ATOM      4  N1    T A   1     -11.067  15.263  66.637  1.00  0.00    -0.309 N  
ATOM      5  O4    T A   1     -10.097  18.508  68.793  1.00  0.00    -0.379 OA 
ATOM      6  C2    T A   1     -10.511  16.380  66.023  1.00  0.00    -0.323 C  
ATOM      7  O2    T A   1     -10.055  16.405  64.883  1.00  0.00    -0.392 OA 
ATOM      8  H3    T A   1     -10.377  18.406  66.300  1.00  0.00     0.000 HD 
ATOM      9  N3    T A   1     -10.450  17.513  66.787  1.00  0.00    -0.303 N  
ATOM     10  C4    T A   1     -10.480  17.539  68.149  1.00  0.00    -0.386 C  
ENDROOT
BRANCH   4  11
ATOM     11  C1*   T A   1     -11.174  13.992  65.898  1.00  0.00    -0.308 C  
ATOM     12  C2*   T A   1     -12.152  12.930  66.399  1.00  0.00    -0.400 C  
ATOM     13  C3*   T A   1     -11.340  12.203  67.439  1.00  0.00    -0.326 C  
ATOM     14  C4*   T A   1      -9.978  12.151  66.762  1.00  0.00    -0.203 C  
ATOM     15  O3*   T A   1     -11.851  10.912  67.736  1.00  0.00    -0.655 OA 
ATOM     16  H3*   T A   1     -11.338  10.454  68.392  1.00  0.00     0.000 HD 
ATOM     17  O4*   T A   1      -9.880  13.332  65.932  1.00  0.00    -0.277 OA 
BRANCH  14  18
ATOM     18  C5*   T A   1      -8.811  12.099  67.749  1.00  0.00    -0.172 C  
ATOM     19  O5*   T A   1      -8.373  10.760  67.970  1.00  0.00    -0.115 OA 
ATOM     20  H5*   T A   1      -7.649  10.727  68.585  1.00  0.00     0.000 HD 
ENDBRANCH  14  18
ENDBRANCH   4  11
TORSDOF 2
ENDMDL
MODEL       65
REMARK 921   NORMALIZED FREE ENERGY PREDICTED BY IDOCK:   -4.59 KCAL/MOL
REMARK 922        TOTAL FREE ENERGY PREDICTED BY IDOCK:   -5.45 KCAL/MOL
REMARK 923 INTER-LIGAND FREE ENERGY PREDICTED BY IDOCK:   -5.40 KCAL/MOL
REMARK 924 INTRA-LIGAND FREE ENERGY PREDICTED BY IDOCK:   -0.05 KCAL/MOL
REMARK 927      BINDING AFFINITY PREDICTED BY RF-SCORE:    0.00 PKD
ROOT
ATOM      1  C5M   T A   1      -9.436  10.118  63.216  1.00  0.00    -0.302 C  
ATOM      2  C5    T A   1      -9.116  10.654  64.573  1.00  0.00    -0.243 C  
ATOM      3  C6    T A   1      -9.962  11.355  65.336  1.00  0.00    -0.245 C  
ATOM      4  N1    T A   1      -9.616  11.877  66.578  1.00  0.00    -0.208 N  
ATOM      5  O4    T A   1      -6.875   9.900  64.409  1.00  0.00    -0.115 OA 
ATOM      6  C2    T A   1      -8.301  11.773  67.023  1.00  0.00    -0.172 C  
ATOM      7  O2    T A   1      -7.810  12.435  67.932  1.00  0.00    -0.122 OA 
ATOM      8  H3    T A   1      -6.686  10.525  66.833  1.00  0.00     0.000 HD 
ATOM      9  N3    T A   1      -7.513  10.879  66.351  1.00  0.00    -0.144 N  
ATOM     10  C4    T A   1      -7.749  10.424  65.089  1.00  0.00    -0.110 C  
ENDROOT
BRANCH   4  11
ATOM     11  C1*   T A   1     -10.544  12.816  67.234  1.00  0.00    -0.233 C  
ATOM     12  C2*   T A   1     -12.005  12.835  66.791  1.00  0.00    -0.389 C  
ATOM     13  C3*   T A   1     -11.975  13.766  65.606  1.00  0.00    -0.388 C  
ATOM     14  C4*   T A   1     -11.004  14.831  66.098  1.00  0.00    -0.332 C  
ATOM     15  O3*   T A   1     -13.252  14.298  65.289  1.00  0.00    -0.704 OA 
ATOM     16  H3*   T A   1     -13.232  14.885  64.542  1.00  0.00     0.000 HD 
ATOM     17  O4*   T A   1     -10.076  14.169  66.988  1.00  0.00    -0.255 OA 
BRANCH  14  18
ATOM     18  C5*   T A   1     -10.248  15.529  64.967  1.00  0.00    -0.216 C  
ATOM     19  O5*   T A   1     -11.110  16.370  64.203  1.00  0.00    -1.226 OA 
ATOM     20  H5*   T A   1     -10.640  16.804  63.500  1.00  0.00     0.000 HD 
ENDBRANCH  14  18
ENDBRANCH   4  11
TORSDOF 2
ENDMDL
MODEL       66
REMARK 921   NORMALIZED FREE ENERGY PREDICTED BY IDOCK:   -4.58 KCAL/MOL
REMARK 922        TOTAL FREE ENERGY PREDICTED BY IDOCK:   -5.44 KCAL/MOL
REMARK 923 INTER-LIGAND FREE ENERGY PREDICTED BY IDOCK:   -5.46 KCAL/MOL
REMARK 924 INTRA-LIGAND FREE ENERGY PREDICTED BY IDOCK:    0.02 KCAL/MOL
REMARK 927      BINDING AFFINITY PREDICTED BY RF-SCORE:    0.00 PKD
ROOT
ATOM      1  C5M   T A   1      -9.741  10.418  68.594  1.00  0.00    -0.178 C  
ATOM      2  C5    T A   1     -10.724  10.205  69.698  1.00  0.00    -0.295 C  
ATOM      3  C6    T A   1     -10.564   9.340  70.705  1.00  0.00    -0.285 C  
ATOM      4  N1    T A   1     -11.520   9.135  71.695  1.00  0.00    -0.358 N  
ATOM      5  O4    T A   1     -12.265  11.702  68.699  1.00  0.00    -0.455 OA 
ATOM      6  C2    T A   1     -12.756   9.766  71.594  1.00  0.00    -0.422 C  
ATOM      7  O2    T A   1     -13.765   9.445  72.215  1.00  0.00    -0.451 OA 
ATOM      8  H3    T A   1     -13.569  11.487  70.833  1.00  0.00     0.000 HD 
ATOM      9  N3    T A   1     -12.827  10.800  70.700  1.00  0.00    -0.324 N  
ATOM     10  C4    T A   1     -11.982  10.980  69.648  1.00  0.00    -0.353 C  
ENDROOT
BRANCH   4  11
ATOM     11  C1*   T A   1     -11.342   8.007  72.627  1.00  0.00    -0.405 C  
ATOM     12  C2*   T A   1      -9.930   7.649  73.086  1.00  0.00    -0.363 C  
ATOM     13  C3*   T A   1      -9.446   6.748  71.979  1.00  0.00    -0.141 C  
ATOM     14  C4*   T A   1     -10.702   5.938  71.692  1.00  0.00    -0.252 C  
ATOM     15  O3*   T A   1      -8.350   5.934  72.368  1.00  0.00    -0.117 OA 
ATOM     16  H3*   T A   1      -8.045   5.367  71.670  1.00  0.00     0.000 HD 
ATOM     17  O4*   T A   1     -11.828   6.799  71.983  1.00  0.00    -0.292 OA 
BRANCH  14  18
ATOM     18  C5*   T A   1     -10.781   5.433  70.251  1.00  0.00    -0.216 C  
ATOM     19  O5*   T A   1     -11.605   6.275  69.446  1.00  0.00    -0.557 OA 
ATOM     20  H5*   T A   1     -11.654   5.961  68.550  1.00  0.00     0.000 HD 
ENDBRANCH  14  18
ENDBRANCH   4  11
TORSDOF 2
ENDMDL
MODEL       67
REMARK 921   NORMALIZED FREE ENERGY PREDICTED BY IDOCK:   -4.56 KCAL/MOL
REMARK 922        TOTAL FREE ENERGY PREDICTED BY IDOCK:   -5.42 KCAL/MOL
REMARK 923 INTER-LIGAND FREE ENERGY PREDICTED BY IDOCK:   -5.51 KCAL/MOL
REMARK 924 INTRA-LIGAND FREE ENERGY PREDICTED BY IDOCK:    0.09 KCAL/MOL
REMARK 927      BINDING AFFINITY PREDICTED BY RF-SCORE:    0.00 PKD
ROOT
ATOM      1  C5M   T A   1      -9.701  12.695  68.243  1.00  0.00    -0.216 C  
ATOM      2  C5    T A   1      -9.897  13.791  67.247  1.00  0.00    -0.241 C  
ATOM      3  C6    T A   1      -8.996  14.739  66.969  1.00  0.00    -0.238 C  
ATOM      4  N1    T A   1      -9.228  15.772  66.066  1.00  0.00    -0.349 N  
ATOM      5  O4    T A   1     -12.125  13.099  66.831  1.00  0.00    -0.379 OA 
ATOM      6  C2    T A   1     -10.489  15.911  65.494  1.00  0.00    -0.404 C  
ATOM      7  O2    T A   1     -10.903  16.923  64.936  1.00  0.00    -0.715 OA 
ATOM      8  H3    T A   1     -12.086  14.751  64.942  1.00  0.00     0.000 HD 
ATOM      9  N3    T A   1     -11.319  14.830  65.610  1.00  0.00    -0.345 N  
ATOM     10  C4    T A   1     -11.200  13.851  66.550  1.00  0.00    -0.321 C  
ENDROOT
BRANCH   4  11
ATOM     11  C1*   T A   1      -8.261  16.883  65.998  1.00  0.00    -0.143 C  
ATOM     12  C2*   T A   1      -7.217  17.017  67.104  1.00  0.00    -0.206 C  
ATOM     13  C3*   T A   1      -7.960  17.791  68.162  1.00  0.00    -0.263 C  
ATOM     14  C4*   T A   1      -8.730  18.788  67.307  1.00  0.00    -0.274 C  
ATOM     15  O3*   T A   1      -7.095  18.425  69.093  1.00  0.00    -0.271 OA 
ATOM     16  H3*   T A   1      -7.564  18.912  69.760  1.00  0.00     0.000 HD 
ATOM     17  O4*   T A   1      -8.998  18.134  66.045  1.00  0.00    -0.503 OA 
BRANCH  14  18
ATOM     18  C5*   T A   1     -10.036  19.255  67.950  1.00  0.00    -0.395 C  
ATOM     19  O5*   T A   1     -11.104  18.348  67.682  1.00  0.00    -0.243 OA 
ATOM     20  H5*   T A   1     -11.916  18.639  68.080  1.00  0.00     0.000 HD 
ENDBRANCH  14  18
ENDBRANCH   4  11
TORSDOF 2
ENDMDL
MODEL       68
REMARK 921   NORMALIZED FREE ENERGY PREDICTED BY IDOCK:   -4.52 KCAL/MOL
REMARK 922        TOTAL FREE ENERGY PREDICTED BY IDOCK:   -5.38 KCAL/MOL
REMARK 923 INTER-LIGAND FREE ENERGY PREDICTED BY IDOCK:   -5.21 KCAL/MOL
REMARK 924 INTRA-LIGAND FREE ENERGY PREDICTED BY IDOCK:   -0.16 KCAL/MOL
REMARK 927      BINDING AFFINITY PREDICTED BY RF-SCORE:    0.00 PKD
ROOT
ATOM      1  C5M   T A   1      -7.306  17.450  66.028  1.00  0.00    -0.265 C  
ATOM      2  C5    T A   1      -8.490  16.928  66.775  1.00  0.00    -0.266 C  
ATOM      3  C6    T A   1      -9.323  15.985  66.320  1.00  0.00    -0.322 C  
ATOM      4  N1    T A   1     -10.443  15.553  67.024  1.00  0.00    -0.298 N  
ATOM      5  O4    T A   1      -8.146  18.481  68.531  1.00  0.00    -0.316 OA 
ATOM      6  C2    T A   1     -10.797  16.192  68.208  1.00  0.00    -0.326 C  
ATOM      7  O2    T A   1     -11.896  16.114  68.750  1.00  0.00    -0.339 OA 
ATOM      8  H3    T A   1      -9.913  17.193  69.763  1.00  0.00     0.000 HD 
ATOM      9  N3    T A   1      -9.835  16.989  68.767  1.00  0.00    -0.266 N  
ATOM     10  C4    T A   1      -8.782  17.529  68.093  1.00  0.00    -0.262 C  
ENDROOT
BRANCH   4  11
ATOM     11  C1*   T A   1     -11.411  14.675  66.342  1.00  0.00    -0.348 C  
ATOM     12  C2*   T A   1     -12.261  13.725  67.183  1.00  0.00    -0.352 C  
ATOM     13  C3*   T A   1     -11.358  12.529  67.339  1.00  0.00    -0.313 C  
ATOM     14  C4*   T A   1     -10.741  12.448  65.949  1.00  0.00    -0.266 C  
ATOM     15  O3*   T A   1     -12.061  11.348  67.692  1.00  0.00    -0.630 OA 
ATOM     16  H3*   T A   1     -11.491  10.595  67.790  1.00  0.00     0.000 HD 
ATOM     17  O4*   T A   1     -10.680  13.801  65.441  1.00  0.00    -0.293 OA 
BRANCH  14  18
ATOM     18  C5*   T A   1      -9.348  11.816  65.941  1.00  0.00    -0.202 C  
ATOM     19  O5*   T A   1      -9.183  10.902  67.024  1.00  0.00    -0.151 OA 
ATOM     20  H5*   T A   1      -8.317  10.509  67.019  1.00  0.00     0.000 HD 
ENDBRANCH  14  18
ENDBRANCH   4  11
TORSDOF 2
ENDMDL
MODEL       69
REMARK 921   NORMALIZED FREE ENERGY PREDICTED BY IDOCK:   -4.52 KCAL/MOL
REMARK 922        TOTAL FREE ENERGY PREDICTED BY IDOCK:   -5.38 KCAL/MOL
REMARK 923 INTER-LIGAND FREE ENERGY PREDICTED BY IDOCK:   -5.32 KCAL/MOL
REMARK 924 INTRA-LIGAND FREE ENERGY PREDICTED BY IDOCK:   -0.06 KCAL/MOL
REMARK 927      BINDING AFFINITY PREDICTED BY RF-SCORE:    0.00 PKD
ROOT
ATOM      1  C5M   T A   1     -12.077  13.271  63.715  1.00  0.00    -0.546 C  
ATOM      2  C5    T A   1     -11.399  12.375  64.699  1.00  0.00    -0.364 C  
ATOM      3  C6    T A   1     -11.444  12.529  66.027  1.00  0.00    -0.377 C  
ATOM      4  N1    T A   1     -10.764  11.701  66.915  1.00  0.00    -0.244 N  
ATOM      5  O4    T A   1     -10.392  11.121  62.960  1.00  0.00    -0.299 OA 
ATOM      6  C2    T A   1      -9.903  10.727  66.420  1.00  0.00    -0.209 C  
ATOM      7  O2    T A   1      -9.039  10.151  67.075  1.00  0.00    -0.138 OA 
ATOM      8  H3    T A   1      -9.686   9.531  64.769  1.00  0.00     0.000 HD 
ATOM      9  N3    T A   1     -10.032  10.436  65.090  1.00  0.00    -0.306 N  
ATOM     10  C4    T A   1     -10.588  11.262  64.161  1.00  0.00    -0.373 C  
ENDROOT
BRANCH   4  11
ATOM     11  C1*   T A   1     -10.701  12.088  68.336  1.00  0.00    -0.229 C  
ATOM     12  C2*   T A   1     -11.975  12.582  69.020  1.00  0.00    -0.280 C  
ATOM     13  C3*   T A   1     -11.986  14.047  68.670  1.00  0.00    -0.354 C  
ATOM     14  C4*   T A   1     -10.510  14.392  68.808  1.00  0.00    -0.244 C  
ATOM     15  O3*   T A   1     -12.808  14.815  69.536  1.00  0.00    -0.564 OA 
ATOM     16  H3*   T A   1     -12.815  15.739  69.315  1.00  0.00     0.000 HD 
ATOM     17  O4*   T A   1      -9.770  13.195  68.468  1.00  0.00    -0.211 OA 
BRANCH  14  18
ATOM     18  C5*   T A   1     -10.074  15.555  67.917  1.00  0.00    -0.224 C  
ATOM     19  O5*   T A   1     -10.797  16.746  68.221  1.00  0.00    -0.353 OA 
ATOM     20  H5*   T A   1     -10.526  17.469  67.667  1.00  0.00     0.000 HD 
ENDBRANCH  14  18
ENDBRANCH   4  11
TORSDOF 2
ENDMDL
MODEL       70
REMARK 921   NORMALIZED FREE ENERGY PREDICTED BY IDOCK:   -4.52 KCAL/MOL
REMARK 922        TOTAL FREE ENERGY PREDICTED BY IDOCK:   -5.37 KCAL/MOL
REMARK 923 INTER-LIGAND FREE ENERGY PREDICTED BY IDOCK:   -5.30 KCAL/MOL
REMARK 924 INTRA-LIGAND FREE ENERGY PREDICTED BY IDOCK:   -0.07 KCAL/MOL
REMARK 927      BINDING AFFINITY PREDICTED BY RF-SCORE:    0.00 PKD
ROOT
ATOM      1  C5M   T A   1     -11.214  15.997  70.696  1.00  0.00    -0.395 C  
ATOM      2  C5    T A   1     -10.687  15.580  69.363  1.00  0.00    -0.251 C  
ATOM      3  C6    T A   1      -9.627  16.126  68.756  1.00  0.00    -0.235 C  
ATOM      4  N1    T A   1      -9.190  15.743  67.492  1.00  0.00    -0.203 N  
ATOM      5  O4    T A   1     -12.466  14.043  69.072  1.00  0.00    -0.214 OA 
ATOM      6  C2    T A   1      -9.936  14.826  66.758  1.00  0.00    -0.251 C  
ATOM      7  O2    T A   1      -9.830  14.638  65.549  1.00  0.00    -0.340 OA 
ATOM      8  H3    T A   1     -11.191  13.235  67.066  1.00  0.00     0.000 HD 
ATOM      9  N3    T A   1     -10.874  14.121  67.460  1.00  0.00    -0.272 N  
ATOM     10  C4    T A   1     -11.417  14.512  68.647  1.00  0.00    -0.293 C  
ENDROOT
BRANCH   4  11
ATOM     11  C1*   T A   1      -8.155  16.554  66.826  1.00  0.00    -0.251 C  
ATOM     12  C2*   T A   1      -7.225  17.408  67.684  1.00  0.00    -0.176 C  
ATOM     13  C3*   T A   1      -8.024  18.670  67.877  1.00  0.00    -0.259 C  
ATOM     14  C4*   T A   1      -8.640  18.839  66.495  1.00  0.00    -0.305 C  
ATOM     15  O3*   T A   1      -7.224  19.780  68.255  1.00  0.00    -0.290 OA 
ATOM     16  H3*   T A   1      -7.728  20.575  68.377  1.00  0.00     0.000 HD 
ATOM     17  O4*   T A   1      -8.815  17.509  65.952  1.00  0.00    -0.525 OA 
BRANCH  14  18
ATOM     18  C5*   T A   1      -9.975  19.584  66.513  1.00  0.00    -0.420 C  
ATOM     19  O5*   T A   1      -9.805  20.953  66.875  1.00  0.00    -0.620 OA 
ATOM     20  H5*   T A   1     -10.635  21.416  66.887  1.00  0.00     0.000 HD 
ENDBRANCH  14  18
ENDBRANCH   4  11
TORSDOF 2
ENDMDL
MODEL       71
REMARK 921   NORMALIZED FREE ENERGY PREDICTED BY IDOCK:   -4.51 KCAL/MOL
REMARK 922        TOTAL FREE ENERGY PREDICTED BY IDOCK:   -5.36 KCAL/MOL
REMARK 923 INTER-LIGAND FREE ENERGY PREDICTED BY IDOCK:   -5.59 KCAL/MOL
REMARK 924 INTRA-LIGAND FREE ENERGY PREDICTED BY IDOCK:    0.22 KCAL/MOL
REMARK 927      BINDING AFFINITY PREDICTED BY RF-SCORE:    0.00 PKD
ROOT
ATOM      1  C5M   T A   1     -12.734  12.171  63.863  1.00  0.00    -0.487 C  
ATOM      2  C5    T A   1     -11.996  13.083  64.786  1.00  0.00    -0.443 C  
ATOM      3  C6    T A   1     -11.316  12.687  65.868  1.00  0.00    -0.334 C  
ATOM      4  N1    T A   1     -10.676  13.570  66.732  1.00  0.00    -0.277 N  
ATOM      5  O4    T A   1     -12.753  14.992  63.605  1.00  0.00    -0.627 OA 
ATOM      6  C2    T A   1     -10.824  14.941  66.545  1.00  0.00    -0.322 C  
ATOM      7  O2    T A   1     -10.571  15.799  67.386  1.00  0.00    -0.301 OA 
ATOM      8  H3    T A   1     -11.136  16.281  65.027  1.00  0.00     0.000 HD 
ATOM      9  N3    T A   1     -11.325  15.327  65.332  1.00  0.00    -0.296 N  
ATOM     10  C4    T A   1     -12.056  14.533  64.501  1.00  0.00    -0.484 C  
ENDROOT
BRANCH   4  11
ATOM     11  C1*   T A   1     -10.147  13.053  68.007  1.00  0.00    -0.235 C  
ATOM     12  C2*   T A   1     -10.641  11.698  68.512  1.00  0.00    -0.241 C  
ATOM     13  C3*   T A   1     -11.909  12.063  69.240  1.00  0.00    -0.318 C  
ATOM     14  C4*   T A   1     -11.491  13.358  69.922  1.00  0.00    -0.111 C  
ATOM     15  O3*   T A   1     -12.321  11.068  70.165  1.00  0.00    -0.310 OA 
ATOM     16  H3*   T A   1     -13.120  11.299  70.623  1.00  0.00     0.000 HD 
ATOM     17  O4*   T A   1     -10.508  13.983  69.063  1.00  0.00    -0.227 OA 
BRANCH  14  18
ATOM     18  C5*   T A   1     -12.657  14.314  70.175  1.00  0.00    -0.282 C  
ATOM     19  O5*   T A   1     -13.414  13.924  71.320  1.00  0.00    -0.292 OA 
ATOM     20  H5*   T A   1     -14.139  14.517  71.477  1.00  0.00     0.000 HD 
ENDBRANCH  14  18
ENDBRANCH   4  11
TORSDOF 2
ENDMDL
MODEL       72
REMARK 921   NORMALIZED FREE ENERGY PREDICTED BY IDOCK:   -4.49 KCAL/MOL
REMARK 922        TOTAL FREE ENERGY PREDICTED BY IDOCK:   -5.34 KCAL/MOL
REMARK 923 INTER-LIGAND FREE ENERGY PREDICTED BY IDOCK:   -5.38 KCAL/MOL
REMARK 924 INTRA-LIGAND FREE ENERGY PREDICTED BY IDOCK:    0.04 KCAL/MOL
REMARK 927      BINDING AFFINITY PREDICTED BY RF-SCORE:    0.00 PKD
ROOT
ATOM      1  C5M   T A   1     -12.352  15.414  64.095  1.00  0.00    -0.015 C  
ATOM      2  C5    T A   1     -11.217  15.450  65.066  1.00  0.00    -0.393 C  
ATOM      3  C6    T A   1     -10.729  14.383  65.708  1.00  0.00    -0.307 C  
ATOM      4  N1    T A   1      -9.699  14.458  66.640  1.00  0.00    -0.267 N  
ATOM      5  O4    T A   1     -11.083  17.811  64.918  1.00  0.00    -0.821 OA 
ATOM      6  C2    T A   1      -9.210  15.704  67.021  1.00  0.00    -0.222 C  
ATOM      7  O2    T A   1      -8.536  15.920  68.024  1.00  0.00    -0.159 OA 
ATOM      8  H3    T A   1      -8.965  17.585  66.246  1.00  0.00     0.000 HD 
ATOM      9  N3    T A   1      -9.553  16.753  66.212  1.00  0.00    -0.281 N  
ATOM     10  C4    T A   1     -10.620  16.769  65.366  1.00  0.00    -0.203 C  
ENDROOT
BRANCH   4  11
ATOM     11  C1*   T A   1      -9.388  13.265  67.448  1.00  0.00    -0.217 C  
ATOM     12  C2*   T A   1     -10.041  11.935  67.077  1.00  0.00    -0.226 C  
ATOM     13  C3*   T A   1     -11.367  12.013  67.788  1.00  0.00    -0.303 C  
ATOM     14  C4*   T A   1     -10.955  12.658  69.104  1.00  0.00    -0.142 C  
ATOM     15  O3*   T A   1     -11.971  10.741  67.970  1.00  0.00    -0.780 OA 
ATOM     16  H3*   T A   1     -12.807  10.791  68.418  1.00  0.00     0.000 HD 
ATOM     17  O4*   T A   1      -9.822  13.510  68.813  1.00  0.00    -0.165 OA 
BRANCH  14  18
ATOM     18  C5*   T A   1     -12.074  13.470  69.757  1.00  0.00    -0.318 C  
ATOM     19  O5*   T A   1     -12.541  14.505  68.894  1.00  0.00    -0.560 OA 
ATOM     20  H5*   T A   1     -13.236  15.010  69.300  1.00  0.00     0.000 HD 
ENDBRANCH  14  18
ENDBRANCH   4  11
TORSDOF 2
ENDMDL
MODEL       73
REMARK 921   NORMALIZED FREE ENERGY PREDICTED BY IDOCK:   -4.47 KCAL/MOL
REMARK 922        TOTAL FREE ENERGY PREDICTED BY IDOCK:   -5.31 KCAL/MOL
REMARK 923 INTER-LIGAND FREE ENERGY PREDICTED BY IDOCK:   -4.86 KCAL/MOL
REMARK 924 INTRA-LIGAND FREE ENERGY PREDICTED BY IDOCK:   -0.45 KCAL/MOL
REMARK 927      BINDING AFFINITY PREDICTED BY RF-SCORE:    0.00 PKD
ROOT
ATOM      1  C5M   T A   1     -12.370  15.797  71.676  1.00  0.00    -0.521 C  
ATOM      2  C5    T A   1     -11.951  14.904  70.555  1.00  0.00    -0.365 C  
ATOM      3  C6    T A   1     -11.248  15.299  69.487  1.00  0.00    -0.281 C  
ATOM      4  N1    T A   1     -10.911  14.449  68.438  1.00  0.00    -0.241 N  
ATOM      5  O4    T A   1     -13.126  13.072  71.492  1.00  0.00    -0.373 OA 
ATOM      6  C2    T A   1     -11.408  13.149  68.423  1.00  0.00    -0.289 C  
ATOM      7  O2    T A   1     -11.437  12.417  67.438  1.00  0.00    -0.307 OA 
ATOM      8  H3    T A   1     -11.985  11.686  69.737  1.00  0.00     0.000 HD 
ATOM      9  N3    T A   1     -11.930  12.696  69.604  1.00  0.00    -0.309 N  
ATOM     10  C4    T A   1     -12.379  13.490  70.615  1.00  0.00    -0.358 C  
ENDROOT
BRANCH   4  11
ATOM     11  C1*   T A   1     -10.332  15.031  67.214  1.00  0.00    -0.249 C  
ATOM     12  C2*   T A   1      -8.998  14.490  66.703  1.00  0.00    -0.247 C  
ATOM     13  C3*   T A   1      -7.996  15.285  67.499  1.00  0.00    -0.176 C  
ATOM     14  C4*   T A   1      -8.649  16.660  67.500  1.00  0.00    -0.189 C  
ATOM     15  O3*   T A   1      -6.705  15.295  66.910  1.00  0.00    -0.260 OA 
ATOM     16  H3*   T A   1      -6.074  15.797  67.412  1.00  0.00     0.000 HD 
ATOM     17  O4*   T A   1     -10.079  16.441  67.454  1.00  0.00    -0.251 OA 
BRANCH  14  18
ATOM     18  C5*   T A   1      -8.282  17.505  68.720  1.00  0.00    -0.222 C  
ATOM     19  O5*   T A   1      -6.869  17.569  68.904  1.00  0.00    -0.225 OA 
ATOM     20  H5*   T A   1      -6.640  18.094  69.663  1.00  0.00     0.000 HD 
ENDBRANCH  14  18
ENDBRANCH   4  11
TORSDOF 2
ENDMDL
MODEL       74
REMARK 921   NORMALIZED FREE ENERGY PREDICTED BY IDOCK:   -4.46 KCAL/MOL
REMARK 922        TOTAL FREE ENERGY PREDICTED BY IDOCK:   -5.30 KCAL/MOL
REMARK 923 INTER-LIGAND FREE ENERGY PREDICTED BY IDOCK:   -4.95 KCAL/MOL
REMARK 924 INTRA-LIGAND FREE ENERGY PREDICTED BY IDOCK:   -0.35 KCAL/MOL
REMARK 927      BINDING AFFINITY PREDICTED BY RF-SCORE:    0.00 PKD
ROOT
ATOM      1  C5M   T A   1     -11.486   7.618  72.338  1.00  0.00    -0.392 C  
ATOM      2  C5    T A   1     -11.625   8.820  71.463  1.00  0.00    -0.374 C  
ATOM      3  C6    T A   1     -10.764   9.165  70.499  1.00  0.00    -0.238 C  
ATOM      4  N1    T A   1     -10.901  10.317  69.731  1.00  0.00    -0.267 N  
ATOM      5  O4    T A   1     -13.546   9.538  72.649  1.00  0.00    -0.381 OA 
ATOM      6  C2    T A   1     -11.911  11.225  70.031  1.00  0.00    -0.368 C  
ATOM      7  O2    T A   1     -11.954  12.389  69.640  1.00  0.00    -0.304 OA 
ATOM      8  H3    T A   1     -13.799  11.248  70.829  1.00  0.00     0.000 HD 
ATOM      9  N3    T A   1     -12.901  10.765  70.856  1.00  0.00    -0.360 N  
ATOM     10  C4    T A   1     -12.779   9.711  71.710  1.00  0.00    -0.420 C  
ENDROOT
BRANCH   4  11
ATOM     11  C1*   T A   1      -9.787  10.718  68.853  1.00  0.00    -0.199 C  
ATOM     12  C2*   T A   1     -10.105  11.241  67.454  1.00  0.00    -0.214 C  
ATOM     13  C3*   T A   1     -10.220   9.973  66.649  1.00  0.00    -0.223 C  
ATOM     14  C4*   T A   1      -9.083   9.150  67.237  1.00  0.00    -0.126 C  
ATOM     15  O3*   T A   1     -10.072  10.188  65.254  1.00  0.00    -0.319 OA 
ATOM     16  H3*   T A   1     -10.145   9.387  64.747  1.00  0.00     0.000 HD 
ATOM     17  O4*   T A   1      -8.947   9.556  68.620  1.00  0.00    -0.130 OA 
BRANCH  14  18
ATOM     18  C5*   T A   1      -9.317   7.641  67.149  1.00  0.00    -0.146 C  
ATOM     19  O5*   T A   1     -10.531   7.341  66.462  1.00  0.00    -0.493 OA 
ATOM     20  H5*   T A   1     -10.677   6.403  66.408  1.00  0.00     0.000 HD 
ENDBRANCH  14  18
ENDBRANCH   4  11
TORSDOF 2
ENDMDL
MODEL       75
REMARK 921   NORMALIZED FREE ENERGY PREDICTED BY IDOCK:   -4.45 KCAL/MOL
REMARK 922        TOTAL FREE ENERGY PREDICTED BY IDOCK:   -5.30 KCAL/MOL
REMARK 923 INTER-LIGAND FREE ENERGY PREDICTED BY IDOCK:   -5.44 KCAL/MOL
REMARK 924 INTRA-LIGAND FREE ENERGY PREDICTED BY IDOCK:    0.14 KCAL/MOL
REMARK 927      BINDING AFFINITY PREDICTED BY RF-SCORE:    0.00 PKD
ROOT
ATOM      1  C5M   T A   1      -6.813  14.117  68.056  1.00  0.00    -0.149 C  
ATOM      2  C5    T A   1      -8.251  14.312  68.406  1.00  0.00    -0.144 C  
ATOM      3  C6    T A   1      -9.249  13.518  68.002  1.00  0.00    -0.209 C  
ATOM      4  N1    T A   1     -10.585  13.755  68.310  1.00  0.00    -0.248 N  
ATOM      5  O4    T A   1      -7.766  16.337  69.536  1.00  0.00    -0.179 OA 
ATOM      6  C2    T A   1     -10.938  14.924  68.978  1.00  0.00    -0.245 C  
ATOM      7  O2    T A   1     -12.074  15.385  69.040  1.00  0.00    -0.312 OA 
ATOM      8  H3    T A   1     -10.145  16.246  70.329  1.00  0.00     0.000 HD 
ATOM      9  N3    T A   1      -9.910  15.605  69.571  1.00  0.00    -0.277 N  
ATOM     10  C4    T A   1      -8.597  15.493  69.226  1.00  0.00    -0.263 C  
ENDROOT
BRANCH   4  11
ATOM     11  C1*   T A   1     -11.620  12.950  67.636  1.00  0.00    -0.355 C  
ATOM     12  C2*   T A   1     -11.204  11.663  66.927  1.00  0.00    -0.376 C  
ATOM     13  C3*   T A   1     -10.774  12.161  65.571  1.00  0.00    -0.283 C  
ATOM     14  C4*   T A   1     -11.831  13.223  65.302  1.00  0.00    -0.357 C  
ATOM     15  O3*   T A   1     -10.764  11.141  64.585  1.00  0.00    -0.325 OA 
ATOM     16  H3*   T A   1     -10.493  11.455  63.730  1.00  0.00     0.000 HD 
ATOM     17  O4*   T A   1     -12.219  13.760  66.588  1.00  0.00    -0.426 OA 
BRANCH  14  18
ATOM     18  C5*   T A   1     -11.343  14.345  64.385  1.00  0.00    -0.251 C  
ATOM     19  O5*   T A   1     -12.435  15.032  63.774  1.00  0.00    -1.037 OA 
ATOM     20  H5*   T A   1     -12.131  15.729  63.203  1.00  0.00     0.000 HD 
ENDBRANCH  14  18
ENDBRANCH   4  11
TORSDOF 2
ENDMDL
MODEL       76
REMARK 921   NORMALIZED FREE ENERGY PREDICTED BY IDOCK:   -4.44 KCAL/MOL
REMARK 922        TOTAL FREE ENERGY PREDICTED BY IDOCK:   -5.28 KCAL/MOL
REMARK 923 INTER-LIGAND FREE ENERGY PREDICTED BY IDOCK:   -5.06 KCAL/MOL
REMARK 924 INTRA-LIGAND FREE ENERGY PREDICTED BY IDOCK:   -0.22 KCAL/MOL
REMARK 927      BINDING AFFINITY PREDICTED BY RF-SCORE:    0.00 PKD
ROOT
ATOM      1  C5M   T A   1     -11.808  11.079  70.083  1.00  0.00    -0.441 C  
ATOM      2  C5    T A   1     -12.091  12.485  70.500  1.00  0.00    -0.361 C  
ATOM      3  C6    T A   1     -11.442  13.561  70.041  1.00  0.00    -0.070 C  
ATOM      4  N1    T A   1     -11.702  14.855  70.484  1.00  0.00    -0.275 N  
ATOM      5  O4    T A   1     -13.695  11.759  72.085  1.00  0.00    -0.251 OA 
ATOM      6  C2    T A   1     -12.597  15.054  71.530  1.00  0.00    -0.340 C  
ATOM      7  O2    T A   1     -12.684  16.080  72.198  1.00  0.00    -0.449 OA 
ATOM      8  H3    T A   1     -14.272  14.189  72.333  1.00  0.00     0.000 HD 
ATOM      9  N3    T A   1     -13.404  13.992  71.835  1.00  0.00    -0.375 N  
ATOM     10  C4    T A   1     -13.137  12.694  71.523  1.00  0.00    -0.278 C  
ENDROOT
BRANCH   4  11
ATOM     11  C1*   T A   1     -10.786  15.937  70.081  1.00  0.00    -0.353 C  
ATOM     12  C2*   T A   1     -11.129  16.769  68.847  1.00  0.00    -0.194 C  
ATOM     13  C3*   T A   1     -10.564  15.937  67.725  1.00  0.00    -0.302 C  
ATOM     14  C4*   T A   1      -9.261  15.455  68.347  1.00  0.00    -0.192 C  
ATOM     15  O3*   T A   1     -10.357  16.682  66.534  1.00  0.00    -0.298 OA 
ATOM     16  H3*   T A   1     -10.001  16.157  65.827  1.00  0.00     0.000 HD 
ATOM     17  O4*   T A   1      -9.493  15.352  69.771  1.00  0.00    -0.260 OA 
BRANCH  14  18
ATOM     18  C5*   T A   1      -8.783  14.115  67.789  1.00  0.00    -0.182 C  
ATOM     19  O5*   T A   1      -9.073  13.994  66.397  1.00  0.00    -0.438 OA 
ATOM     20  H5*   T A   1      -8.776  13.161  66.051  1.00  0.00     0.000 HD 
ENDBRANCH  14  18
ENDBRANCH   4  11
TORSDOF 2
ENDMDL
MODEL       77
REMARK 921   NORMALIZED FREE ENERGY PREDICTED BY IDOCK:   -4.43 KCAL/MOL
REMARK 922        TOTAL FREE ENERGY PREDICTED BY IDOCK:   -5.27 KCAL/MOL
REMARK 923 INTER-LIGAND FREE ENERGY PREDICTED BY IDOCK:   -5.14 KCAL/MOL
REMARK 924 INTRA-LIGAND FREE ENERGY PREDICTED BY IDOCK:   -0.13 KCAL/MOL
REMARK 927      BINDING AFFINITY PREDICTED BY RF-SCORE:    0.00 PKD
ROOT
ATOM      1  C5M   T A   1     -11.711   9.241  71.794  1.00  0.00    -0.456 C  
ATOM      2  C5    T A   1     -11.210   9.204  70.388  1.00  0.00    -0.279 C  
ATOM      3  C6    T A   1     -11.270  10.229  69.530  1.00  0.00    -0.261 C  
ATOM      4  N1    T A   1     -10.833  10.147  68.211  1.00  0.00    -0.242 N  
ATOM      5  O4    T A   1     -10.660   6.907  70.577  1.00  0.00    -0.212 OA 
ATOM      6  C2    T A   1     -10.409   8.922  67.705  1.00  0.00    -0.251 C  
ATOM      7  O2    T A   1     -10.291   8.655  66.512  1.00  0.00    -0.282 OA 
ATOM      8  H3    T A   1      -9.530   7.188  68.353  1.00  0.00     0.000 HD 
ATOM      9  N3    T A   1     -10.146   7.952  68.632  1.00  0.00    -0.192 N  
ATOM     10  C4    T A   1     -10.642   7.929  69.900  1.00  0.00    -0.242 C  
ENDROOT
BRANCH   4  11
ATOM     11  C1*   T A   1     -11.146  11.256  67.292  1.00  0.00    -0.305 C  
ATOM     12  C2*   T A   1     -10.033  12.229  66.909  1.00  0.00    -0.223 C  
ATOM     13  C3*   T A   1     -10.062  13.222  68.042  1.00  0.00    -0.235 C  
ATOM     14  C4*   T A   1     -11.561  13.364  68.266  1.00  0.00    -0.344 C  
ATOM     15  O3*   T A   1      -9.441  14.455  67.712  1.00  0.00    -0.204 OA 
ATOM     16  H3*   T A   1      -9.460  15.080  68.427  1.00  0.00     0.000 HD 
ATOM     17  O4*   T A   1     -12.157  12.094  67.914  1.00  0.00    -0.502 OA 
BRANCH  14  18
ATOM     18  C5*   T A   1     -11.926  13.740  69.702  1.00  0.00    -0.342 C  
ATOM     19  O5*   T A   1     -12.911  14.772  69.738  1.00  0.00    -0.573 OA 
ATOM     20  H5*   T A   1     -13.138  15.006  70.631  1.00  0.00     0.000 HD 
ENDBRANCH  14  18
ENDBRANCH   4  11
TORSDOF 2
ENDMDL
MODEL       78
REMARK 921   NORMALIZED FREE ENERGY PREDICTED BY IDOCK:   -4.42 KCAL/MOL
REMARK 922        TOTAL FREE ENERGY PREDICTED BY IDOCK:   -5.26 KCAL/MOL
REMARK 923 INTER-LIGAND FREE ENERGY PREDICTED BY IDOCK:   -4.90 KCAL/MOL
REMARK 924 INTRA-LIGAND FREE ENERGY PREDICTED BY IDOCK:   -0.36 KCAL/MOL
REMARK 927      BINDING AFFINITY PREDICTED BY RF-SCORE:    0.00 PKD
ROOT
ATOM      1  C5M   T A   1     -10.412  11.799  67.533  1.00  0.00    -0.228 C  
ATOM      2  C5    T A   1     -11.109  11.591  68.837  1.00  0.00    -0.288 C  
ATOM      3  C6    T A   1     -11.263  10.406  69.439  1.00  0.00    -0.259 C  
ATOM      4  N1    T A   1     -11.957  10.242  70.634  1.00  0.00    -0.315 N  
ATOM      5  O4    T A   1     -11.718  13.878  68.948  1.00  0.00    -0.291 OA 
ATOM      6  C2    T A   1     -12.624  11.327  71.194  1.00  0.00    -0.397 C  
ATOM      7  O2    T A   1     -13.497  11.251  72.054  1.00  0.00    -0.389 OA 
ATOM      8  H3    T A   1     -12.475  13.369  71.287  1.00  0.00     0.000 HD 
ATOM      9  N3    T A   1     -12.283  12.556  70.701  1.00  0.00    -0.351 N  
ATOM     10  C4    T A   1     -11.705  12.778  69.487  1.00  0.00    -0.318 C  
ENDROOT
BRANCH   4  11
ATOM     11  C1*   T A   1     -12.256   8.874  71.095  1.00  0.00    -0.255 C  
ATOM     12  C2*   T A   1     -12.066   8.539  72.573  1.00  0.00    -0.395 C  
ATOM     13  C3*   T A   1     -10.602   8.191  72.643  1.00  0.00    -0.344 C  
ATOM     14  C4*   T A   1     -10.426   7.408  71.349  1.00  0.00    -0.202 C  
ATOM     15  O3*   T A   1     -10.270   7.426  73.792  1.00  0.00    -0.342 OA 
ATOM     16  H3*   T A   1      -9.347   7.207  73.836  1.00  0.00     0.000 HD 
ATOM     17  O4*   T A   1     -11.373   7.953  70.401  1.00  0.00    -0.264 OA 
BRANCH  14  18
ATOM     18  C5*   T A   1      -9.008   7.483  70.784  1.00  0.00    -0.149 C  
ATOM     19  O5*   T A   1      -8.157   8.276  71.610  1.00  0.00    -0.111 OA 
ATOM     20  H5*   T A   1      -7.275   8.323  71.259  1.00  0.00     0.000 HD 
ENDBRANCH  14  18
ENDBRANCH   4  11
TORSDOF 2
ENDMDL
MODEL       79
REMARK 921   NORMALIZED FREE ENERGY PREDICTED BY IDOCK:   -4.41 KCAL/MOL
REMARK 922        TOTAL FREE ENERGY PREDICTED BY IDOCK:   -5.25 KCAL/MOL
REMARK 923 INTER-LIGAND FREE ENERGY PREDICTED BY IDOCK:   -5.24 KCAL/MOL
REMARK 924 INTRA-LIGAND FREE ENERGY PREDICTED BY IDOCK:   -0.02 KCAL/MOL
REMARK 927      BINDING AFFINITY PREDICTED BY RF-SCORE:    0.00 PKD
ROOT
ATOM      1  C5M   T A   1      -7.131  19.656  69.348  1.00  0.00    -0.326 C  
ATOM      2  C5    T A   1      -8.289  19.471  68.425  1.00  0.00    -0.384 C  
ATOM      3  C6    T A   1      -9.231  18.531  68.561  1.00  0.00    -0.335 C  
ATOM      4  N1    T A   1     -10.274  18.358  67.656  1.00  0.00    -0.360 N  
ATOM      5  O4    T A   1      -7.494  21.176  66.985  1.00  0.00    -0.323 OA 
ATOM      6  C2    T A   1     -10.301  19.115  66.490  1.00  0.00    -0.442 C  
ATOM      7  O2    T A   1     -10.975  18.856  65.496  1.00  0.00    -0.407 OA 
ATOM      8  H3    T A   1      -9.702  20.954  65.811  1.00  0.00     0.000 HD 
ATOM      9  N3    T A   1      -9.476  20.206  66.467  1.00  0.00    -0.383 N  
ATOM     10  C4    T A   1      -8.376  20.370  67.254  1.00  0.00    -0.335 C  
ENDROOT
BRANCH   4  11
ATOM     11  C1*   T A   1     -11.124  17.160  67.778  1.00  0.00    -0.065 C  
ATOM     12  C2*   T A   1     -10.906  16.221  68.963  1.00  0.00    -0.315 C  
ATOM     13  C3*   T A   1      -9.798  15.327  68.470  1.00  0.00    -0.210 C  
ATOM     14  C4*   T A   1     -10.212  15.121  67.020  1.00  0.00    -0.262 C  
ATOM     15  O3*   T A   1      -9.711  14.106  69.190  1.00  0.00    -0.415 OA 
ATOM     16  H3*   T A   1      -9.013  13.543  68.879  1.00  0.00     0.000 HD 
ATOM     17  O4*   T A   1     -10.906  16.323  66.611  1.00  0.00    -0.247 OA 
BRANCH  14  18
ATOM     18  C5*   T A   1      -9.032  14.847  66.086  1.00  0.00    -0.071 C  
ATOM     19  O5*   T A   1      -7.916  14.315  66.797  1.00  0.00    -0.357 OA 
ATOM     20  H5*   T A   1      -7.182  14.146  66.216  1.00  0.00     0.000 HD 
ENDBRANCH  14  18
ENDBRANCH   4  11
TORSDOF 2
ENDMDL
MODEL       80
REMARK 921   NORMALIZED FREE ENERGY PREDICTED BY IDOCK:   -4.41 KCAL/MOL
REMARK 922        TOTAL FREE ENERGY PREDICTED BY IDOCK:   -5.25 KCAL/MOL
REMARK 923 INTER-LIGAND FREE ENERGY PREDICTED BY IDOCK:   -5.36 KCAL/MOL
REMARK 924 INTRA-LIGAND FREE ENERGY PREDICTED BY IDOCK:    0.12 KCAL/MOL
REMARK 927      BINDING AFFINITY PREDICTED BY RF-SCORE:    0.00 PKD
ROOT
ATOM      1  C5M   T A   1      -7.712  16.079  67.217  1.00  0.00    -0.215 C  
ATOM      2  C5    T A   1      -9.022  15.363  67.196  1.00  0.00    -0.236 C  
ATOM      3  C6    T A   1      -9.191  14.093  66.810  1.00  0.00    -0.266 C  
ATOM      4  N1    T A   1     -10.434  13.469  66.760  1.00  0.00    -0.271 N  
ATOM      5  O4    T A   1     -10.178  17.328  67.840  1.00  0.00    -0.300 OA 
ATOM      6  C2    T A   1     -11.583  14.211  67.014  1.00  0.00    -0.382 C  
ATOM      7  O2    T A   1     -12.724  13.870  66.714  1.00  0.00    -0.193 OA 
ATOM      8  H3    T A   1     -12.178  15.837  68.112  1.00  0.00     0.000 HD 
ATOM      9  N3    T A   1     -11.390  15.426  67.612  1.00  0.00    -0.321 N  
ATOM     10  C4    T A   1     -10.223  16.129  67.591  1.00  0.00    -0.265 C  
ENDROOT
BRANCH   4  11
ATOM     11  C1*   T A   1     -10.537  12.148  66.115  1.00  0.00    -0.255 C  
ATOM     12  C2*   T A   1      -9.415  11.697  65.182  1.00  0.00    -0.152 C  
ATOM     13  C3*   T A   1      -9.814  12.317  63.868  1.00  0.00    -0.179 C  
ATOM     14  C4*   T A   1     -11.321  12.104  63.891  1.00  0.00    -0.426 C  
ATOM     15  O3*   T A   1      -9.193  11.697  62.752  1.00  0.00    -0.525 OA 
ATOM     16  H3*   T A   1      -9.445  12.088  61.924  1.00  0.00     0.000 HD 
ATOM     17  O4*   T A   1     -11.725  12.138  65.280  1.00  0.00    -0.350 OA 
BRANCH  14  18
ATOM     18  C5*   T A   1     -12.094  13.152  63.089  1.00  0.00    -0.207 C  
ATOM     19  O5*   T A   1     -12.042  14.433  63.717  1.00  0.00    -0.818 OA 
ATOM     20  H5*   T A   1     -12.523  15.084  63.219  1.00  0.00     0.000 HD 
ENDBRANCH  14  18
ENDBRANCH   4  11
TORSDOF 2
ENDMDL
MODEL       81
REMARK 921   NORMALIZED FREE ENERGY PREDICTED BY IDOCK:   -4.41 KCAL/MOL
REMARK 922        TOTAL FREE ENERGY PREDICTED BY IDOCK:   -5.24 KCAL/MOL
REMARK 923 INTER-LIGAND FREE ENERGY PREDICTED BY IDOCK:   -5.39 KCAL/MOL
REMARK 924 INTRA-LIGAND FREE ENERGY PREDICTED BY IDOCK:    0.14 KCAL/MOL
REMARK 927      BINDING AFFINITY PREDICTED BY RF-SCORE:    0.00 PKD
ROOT
ATOM      1  C5M   T A   1     -10.777   8.799  69.490  1.00  0.00    -0.196 C  
ATOM      2  C5    T A   1     -10.376   9.572  68.277  1.00  0.00    -0.244 C  
ATOM      3  C6    T A   1     -10.050  10.870  68.274  1.00  0.00    -0.174 C  
ATOM      4  N1    T A   1      -9.723  11.572  67.118  1.00  0.00    -0.183 N  
ATOM      5  O4    T A   1     -10.782   7.706  66.875  1.00  0.00    -0.351 OA 
ATOM      6  C2    T A   1      -9.838  10.946  65.881  1.00  0.00    -0.236 C  
ATOM      7  O2    T A   1      -9.874  11.524  64.798  1.00  0.00    -0.242 OA 
ATOM      8  H3    T A   1      -9.704   9.070  65.065  1.00  0.00     0.000 HD 
ATOM      9  N3    T A   1      -9.955   9.583  65.910  1.00  0.00    -0.294 N  
ATOM     10  C4    T A   1     -10.380   8.859  66.982  1.00  0.00    -0.269 C  
ENDROOT
BRANCH   4  11
ATOM     11  C1*   T A   1      -9.596  13.038  67.193  1.00  0.00    -0.230 C  
ATOM     12  C2*   T A   1     -10.274  13.777  68.345  1.00  0.00    -0.248 C  
ATOM     13  C3*   T A   1     -11.676  13.971  67.829  1.00  0.00    -0.368 C  
ATOM     14  C4*   T A   1     -11.405  14.310  66.369  1.00  0.00    -0.343 C  
ATOM     15  O3*   T A   1     -12.376  15.004  68.506  1.00  0.00    -0.586 OA 
ATOM     16  H3*   T A   1     -13.260  15.126  68.180  1.00  0.00     0.000 HD 
ATOM     17  O4*   T A   1     -10.193  13.611  65.999  1.00  0.00    -0.292 OA 
BRANCH  14  18
ATOM     18  C5*   T A   1     -12.549  13.919  65.434  1.00  0.00    -0.507 C  
ATOM     19  O5*   T A   1     -12.690  12.502  65.344  1.00  0.00    -0.624 OA 
ATOM     20  H5*   T A   1     -13.401  12.259  64.762  1.00  0.00     0.000 HD 
ENDBRANCH  14  18
ENDBRANCH   4  11
TORSDOF 2
ENDMDL
MODEL       82
REMARK 921   NORMALIZED FREE ENERGY PREDICTED BY IDOCK:   -4.40 KCAL/MOL
REMARK 922        TOTAL FREE ENERGY PREDICTED BY IDOCK:   -5.23 KCAL/MOL
REMARK 923 INTER-LIGAND FREE ENERGY PREDICTED BY IDOCK:   -5.15 KCAL/MOL
REMARK 924 INTRA-LIGAND FREE ENERGY PREDICTED BY IDOCK:   -0.09 KCAL/MOL
REMARK 927      BINDING AFFINITY PREDICTED BY RF-SCORE:    0.00 PKD
ROOT
ATOM      1  C5M   T A   1     -12.750  13.751  66.054  1.00  0.00    -0.407 C  
ATOM      2  C5    T A   1     -11.809  12.961  65.205  1.00  0.00    -0.429 C  
ATOM      3  C6    T A   1     -10.862  12.141  65.675  1.00  0.00    -0.284 C  
ATOM      4  N1    T A   1      -9.973  11.454  64.856  1.00  0.00    -0.252 N  
ATOM      5  O4    T A   1     -12.662  13.952  63.229  1.00  0.00    -0.775 OA 
ATOM      6  C2    T A   1      -9.976  11.696  63.486  1.00  0.00    -0.405 C  
ATOM      7  O2    T A   1      -9.070  11.395  62.714  1.00  0.00    -0.324 OA 
ATOM      8  H3    T A   1     -11.279  12.253  62.005  1.00  0.00     0.000 HD 
ATOM      9  N3    T A   1     -11.072  12.354  62.999  1.00  0.00    -0.080 N  
ATOM     10  C4    T A   1     -11.909  13.132  63.740  1.00  0.00    -0.486 C  
ENDROOT
BRANCH   4  11
ATOM     11  C1*   T A   1      -8.834  10.754  65.478  1.00  0.00    -0.190 C  
ATOM     12  C2*   T A   1      -8.170   9.609  64.717  1.00  0.00    -0.142 C  
ATOM     13  C3*   T A   1      -9.034   8.430  65.084  1.00  0.00     0.048 C  
ATOM     14  C4*   T A   1      -9.298   8.708  66.557  1.00  0.00    -0.200 C  
ATOM     15  O3*   T A   1      -8.387   7.184  64.872  1.00  0.00    -0.269 OA 
ATOM     16  H3*   T A   1      -8.932   6.441  65.103  1.00  0.00     0.000 HD 
ATOM     17  O4*   T A   1      -9.292  10.146  66.716  1.00  0.00    -0.155 OA 
BRANCH  14  18
ATOM     18  C5*   T A   1     -10.621   8.126  67.056  1.00  0.00    -0.275 C  
ATOM     19  O5*   T A   1     -10.818   6.795  66.581  1.00  0.00    -0.520 OA 
ATOM     20  H5*   T A   1     -11.640   6.433  66.891  1.00  0.00     0.000 HD 
ENDBRANCH  14  18
ENDBRANCH   4  11
TORSDOF 2
ENDMDL
MODEL       83
REMARK 921   NORMALIZED FREE ENERGY PREDICTED BY IDOCK:   -4.39 KCAL/MOL
REMARK 922        TOTAL FREE ENERGY PREDICTED BY IDOCK:   -5.22 KCAL/MOL
REMARK 923 INTER-LIGAND FREE ENERGY PREDICTED BY IDOCK:   -4.76 KCAL/MOL
REMARK 924 INTRA-LIGAND FREE ENERGY PREDICTED BY IDOCK:   -0.46 KCAL/MOL
REMARK 927      BINDING AFFINITY PREDICTED BY RF-SCORE:    0.00 PKD
ROOT
ATOM      1  C5M   T A   1     -11.140   3.951  73.777  1.00  0.00    -0.291 C  
ATOM      2  C5    T A   1     -10.483   5.121  73.122  1.00  0.00    -0.255 C  
ATOM      3  C6    T A   1     -11.110   6.013  72.346  1.00  0.00    -0.277 C  
ATOM      4  N1    T A   1     -10.458   7.067  71.714  1.00  0.00    -0.202 N  
ATOM      5  O4    T A   1      -8.352   4.443  73.906  1.00  0.00    -0.099 OA 
ATOM      6  C2    T A   1      -9.072   7.158  71.788  1.00  0.00    -0.139 C  
ATOM      7  O2    T A   1      -8.369   7.842  71.049  1.00  0.00    -0.110 OA 
ATOM      8  H3    T A   1      -7.543   6.665  73.062  1.00  0.00     0.000 HD 
ATOM      9  N3    T A   1      -8.473   6.388  72.747  1.00  0.00    -0.122 N  
ATOM     10  C4    T A   1      -9.025   5.279  73.314  1.00  0.00    -0.120 C  
ENDROOT
BRANCH   4  11
ATOM     11  C1*   T A   1     -11.196   7.856  70.711  1.00  0.00    -0.266 C  
ATOM     12  C2*   T A   1     -11.271   9.372  70.879  1.00  0.00    -0.393 C  
ATOM     13  C3*   T A   1     -12.446   9.541  71.807  1.00  0.00    -0.401 C  
ATOM     14  C4*   T A   1     -13.401   8.488  71.262  1.00  0.00    -0.136 C  
ATOM     15  O3*   T A   1     -12.997  10.848  71.769  1.00  0.00    -0.452 OA 
ATOM     16  H3*   T A   1     -13.738  10.954  72.355  1.00  0.00     0.000 HD 
ATOM     17  O4*   T A   1     -12.584   7.424  70.721  1.00  0.00    -0.194 OA 
BRANCH  14  18
ATOM     18  C5*   T A   1     -14.359   7.934  72.318  1.00  0.00    -0.209 C  
ATOM     19  O5*   T A   1     -14.377   8.751  73.487  1.00  0.00    -1.095 OA 
ATOM     20  H5*   T A   1     -14.971   8.407  74.144  1.00  0.00     0.000 HD 
ENDBRANCH  14  18
ENDBRANCH   4  11
TORSDOF 2
ENDMDL
MODEL       84
REMARK 921   NORMALIZED FREE ENERGY PREDICTED BY IDOCK:   -4.38 KCAL/MOL
REMARK 922        TOTAL FREE ENERGY PREDICTED BY IDOCK:   -5.22 KCAL/MOL
REMARK 923 INTER-LIGAND FREE ENERGY PREDICTED BY IDOCK:   -5.01 KCAL/MOL
REMARK 924 INTRA-LIGAND FREE ENERGY PREDICTED BY IDOCK:   -0.21 KCAL/MOL
REMARK 927      BINDING AFFINITY PREDICTED BY RF-SCORE:    0.00 PKD
ROOT
ATOM      1  C5M   T A   1     -10.117  20.293  67.433  1.00  0.00    -0.534 C  
ATOM      2  C5    T A   1      -8.897  19.434  67.502  1.00  0.00    -0.352 C  
ATOM      3  C6    T A   1      -8.903  18.120  67.753  1.00  0.00    -0.256 C  
ATOM      4  N1    T A   1      -7.743  17.357  67.854  1.00  0.00    -0.195 N  
ATOM      5  O4    T A   1      -7.482  21.311  67.207  1.00  0.00    -0.449 OA 
ATOM      6  C2    T A   1      -6.503  17.986  67.803  1.00  0.00    -0.183 C  
ATOM      7  O2    T A   1      -5.444  17.487  68.173  1.00  0.00    -0.138 OA 
ATOM      8  H3    T A   1      -5.627  19.638  66.965  1.00  0.00     0.000 HD 
ATOM      9  N3    T A   1      -6.504  19.271  67.333  1.00  0.00    -0.189 N  
ATOM     10  C4    T A   1      -7.588  20.096  67.319  1.00  0.00    -0.298 C  
ENDROOT
BRANCH   4  11
ATOM     11  C1*   T A   1      -7.849  15.973  68.349  1.00  0.00    -0.149 C  
ATOM     12  C2*   T A   1      -7.620  14.823  67.370  1.00  0.00    -0.228 C  
ATOM     13  C3*   T A   1      -8.980  14.652  66.744  1.00  0.00    -0.257 C  
ATOM     14  C4*   T A   1      -9.884  14.849  67.952  1.00  0.00    -0.214 C  
ATOM     15  O3*   T A   1      -9.153  13.382  66.135  1.00  0.00    -0.468 OA 
ATOM     16  H3*   T A   1     -10.010  13.275  65.741  1.00  0.00     0.000 HD 
ATOM     17  O4*   T A   1      -9.200  15.764  68.840  1.00  0.00    -0.197 OA 
BRANCH  14  18
ATOM     18  C5*   T A   1     -11.267  15.395  67.593  1.00  0.00    -0.311 C  
ATOM     19  O5*   T A   1     -12.238  14.352  67.521  1.00  0.00    -0.593 OA 
ATOM     20  H5*   T A   1     -13.097  14.691  67.297  1.00  0.00     0.000 HD 
ENDBRANCH  14  18
ENDBRANCH   4  11
TORSDOF 2
ENDMDL
MODEL       85
REMARK 921   NORMALIZED FREE ENERGY PREDICTED BY IDOCK:   -4.36 KCAL/MOL
REMARK 922        TOTAL FREE ENERGY PREDICTED BY IDOCK:   -5.19 KCAL/MOL
REMARK 923 INTER-LIGAND FREE ENERGY PREDICTED BY IDOCK:   -5.07 KCAL/MOL
REMARK 924 INTRA-LIGAND FREE ENERGY PREDICTED BY IDOCK:   -0.12 KCAL/MOL
REMARK 927      BINDING AFFINITY PREDICTED BY RF-SCORE:    0.00 PKD
ROOT
ATOM      1  C5M   T A   1     -12.463  11.508  71.445  1.00  0.00    -0.338 C  
ATOM      2  C5    T A   1     -12.367  12.725  70.584  1.00  0.00    -0.381 C  
ATOM      3  C6    T A   1     -12.036  12.718  69.288  1.00  0.00    -0.246 C  
ATOM      4  N1    T A   1     -11.912  13.875  68.525  1.00  0.00    -0.365 N  
ATOM      5  O4    T A   1     -12.805  14.143  72.431  1.00  0.00    -0.356 OA 
ATOM      6  C2    T A   1     -12.026  15.117  69.142  1.00  0.00    -0.274 C  
ATOM      7  O2    T A   1     -11.649  16.181  68.660  1.00  0.00    -0.376 OA 
ATOM      8  H3    T A   1     -12.982  15.984  70.735  1.00  0.00     0.000 HD 
ATOM      9  N3    T A   1     -12.574  15.113  70.396  1.00  0.00    -0.364 N  
ATOM     10  C4    T A   1     -12.617  14.033  71.225  1.00  0.00    -0.367 C  
ENDROOT
BRANCH   4  11
ATOM     11  C1*   T A   1     -11.331  13.773  67.175  1.00  0.00    -0.324 C  
ATOM     12  C2*   T A   1     -11.641  12.537  66.332  1.00  0.00    -0.449 C  
ATOM     13  C3*   T A   1     -10.602  11.553  66.802  1.00  0.00    -0.250 C  
ATOM     14  C4*   T A   1      -9.387  12.458  66.945  1.00  0.00    -0.213 C  
ATOM     15  O3*   T A   1     -10.388  10.494  65.882  1.00  0.00    -0.249 OA 
ATOM     16  H3*   T A   1      -9.733   9.873  66.178  1.00  0.00     0.000 HD 
ATOM     17  O4*   T A   1      -9.884  13.770  67.298  1.00  0.00    -0.233 OA 
BRANCH  14  18
ATOM     18  C5*   T A   1      -8.388  11.970  67.995  1.00  0.00    -0.162 C  
ATOM     19  O5*   T A   1      -8.781  10.714  68.547  1.00  0.00    -0.127 OA 
ATOM     20  H5*   T A   1      -8.161  10.411  69.200  1.00  0.00     0.000 HD 
ENDBRANCH  14  18
ENDBRANCH   4  11
TORSDOF 2
ENDMDL
MODEL       86
REMARK 921   NORMALIZED FREE ENERGY PREDICTED BY IDOCK:   -4.35 KCAL/MOL
REMARK 922        TOTAL FREE ENERGY PREDICTED BY IDOCK:   -5.18 KCAL/MOL
REMARK 923 INTER-LIGAND FREE ENERGY PREDICTED BY IDOCK:   -5.37 KCAL/MOL
REMARK 924 INTRA-LIGAND FREE ENERGY PREDICTED BY IDOCK:    0.19 KCAL/MOL
REMARK 927      BINDING AFFINITY PREDICTED BY RF-SCORE:    0.00 PKD
ROOT
ATOM      1  C5M   T A   1      -9.994   4.587  68.830  1.00  0.00    -0.120 C  
ATOM      2  C5    T A   1     -10.114   6.076  68.811  1.00  0.00    -0.210 C  
ATOM      3  C6    T A   1      -9.876   6.873  69.858  1.00  0.00    -0.165 C  
ATOM      4  N1    T A   1     -10.040   8.254  69.819  1.00  0.00    -0.193 N  
ATOM      5  O4    T A   1     -10.924   6.045  66.585  1.00  0.00    -0.293 OA 
ATOM      6  C2    T A   1     -10.580   8.848  68.682  1.00  0.00    -0.147 C  
ATOM      7  O2    T A   1     -11.046   9.983  68.632  1.00  0.00    -0.228 OA 
ATOM      8  H3    T A   1     -10.669   8.541  66.657  1.00  0.00     0.000 HD 
ATOM      9  N3    T A   1     -10.610   8.067  67.559  1.00  0.00    -0.254 N  
ATOM     10  C4    T A   1     -10.567   6.706  67.553  1.00  0.00    -0.281 C  
ENDROOT
BRANCH   4  11
ATOM     11  C1*   T A   1      -9.966   9.012  71.081  1.00  0.00    -0.295 C  
ATOM     12  C2*   T A   1      -9.638   8.261  72.370  1.00  0.00    -0.364 C  
ATOM     13  C3*   T A   1     -10.989   7.757  72.807  1.00  0.00    -0.388 C  
ATOM     14  C4*   T A   1     -11.868   8.954  72.475  1.00  0.00    -0.106 C  
ATOM     15  O3*   T A   1     -11.032   7.415  74.184  1.00  0.00    -0.417 OA 
ATOM     16  H3*   T A   1     -11.884   7.097  74.459  1.00  0.00     0.000 HD 
ATOM     17  O4*   T A   1     -11.266   9.609  71.334  1.00  0.00    -0.365 OA 
BRANCH  14  18
ATOM     18  C5*   T A   1     -13.316   8.574  72.163  1.00  0.00    -0.351 C  
ATOM     19  O5*   T A   1     -14.189   8.919  73.238  1.00  0.00    -1.197 OA 
ATOM     20  H5*   T A   1     -15.089   8.682  73.044  1.00  0.00     0.000 HD 
ENDBRANCH  14  18
ENDBRANCH   4  11
TORSDOF 2
ENDMDL
MODEL       87
REMARK 921   NORMALIZED FREE ENERGY PREDICTED BY IDOCK:   -4.34 KCAL/MOL
REMARK 922        TOTAL FREE ENERGY PREDICTED BY IDOCK:   -5.17 KCAL/MOL
REMARK 923 INTER-LIGAND FREE ENERGY PREDICTED BY IDOCK:   -4.71 KCAL/MOL
REMARK 924 INTRA-LIGAND FREE ENERGY PREDICTED BY IDOCK:   -0.46 KCAL/MOL
REMARK 927      BINDING AFFINITY PREDICTED BY RF-SCORE:    0.00 PKD
ROOT
ATOM      1  C5M   T A   1      -6.554  12.936  67.593  1.00  0.00    -0.155 C  
ATOM      2  C5    T A   1      -7.329  14.213  67.595  1.00  0.00    -0.191 C  
ATOM      3  C6    T A   1      -8.665  14.293  67.584  1.00  0.00    -0.191 C  
ATOM      4  N1    T A   1      -9.356  15.500  67.541  1.00  0.00    -0.205 N  
ATOM      5  O4    T A   1      -5.342  15.494  67.452  1.00  0.00    -0.323 OA 
ATOM      6  C2    T A   1      -8.649  16.690  67.393  1.00  0.00    -0.189 C  
ATOM      7  O2    T A   1      -9.137  17.762  67.046  1.00  0.00    -0.241 OA 
ATOM      8  H3    T A   1      -6.818  17.482  67.860  1.00  0.00     0.000 HD 
ATOM      9  N3    T A   1      -7.303  16.617  67.625  1.00  0.00    -0.138 N  
ATOM     10  C4    T A   1      -6.561  15.476  67.566  1.00  0.00    -0.176 C  
ENDROOT
BRANCH   4  11
ATOM     11  C1*   T A   1     -10.811  15.474  67.309  1.00  0.00    -0.313 C  
ATOM     12  C2*   T A   1     -11.738  16.019  68.394  1.00  0.00    -0.196 C  
ATOM     13  C3*   T A   1     -11.909  14.832  69.305  1.00  0.00    -0.318 C  
ATOM     14  C4*   T A   1     -12.017  13.700  68.292  1.00  0.00    -0.350 C  
ATOM     15  O3*   T A   1     -13.057  14.932  70.134  1.00  0.00    -0.606 OA 
ATOM     16  H3*   T A   1     -13.164  14.183  70.708  1.00  0.00     0.000 HD 
ATOM     17  O4*   T A   1     -11.224  14.090  67.147  1.00  0.00    -0.295 OA 
BRANCH  14  18
ATOM     18  C5*   T A   1     -11.537  12.354  68.834  1.00  0.00    -0.316 C  
ATOM     19  O5*   T A   1     -11.753  12.250  70.241  1.00  0.00    -0.509 OA 
ATOM     20  H5*   T A   1     -11.454  11.413  70.578  1.00  0.00     0.000 HD 
ENDBRANCH  14  18
ENDBRANCH   4  11
TORSDOF 2
ENDMDL
MODEL       88
REMARK 921   NORMALIZED FREE ENERGY PREDICTED BY IDOCK:   -4.33 KCAL/MOL
REMARK 922        TOTAL FREE ENERGY PREDICTED BY IDOCK:   -5.16 KCAL/MOL
REMARK 923 INTER-LIGAND FREE ENERGY PREDICTED BY IDOCK:   -5.31 KCAL/MOL
REMARK 924 INTRA-LIGAND FREE ENERGY PREDICTED BY IDOCK:    0.15 KCAL/MOL
REMARK 927      BINDING AFFINITY PREDICTED BY RF-SCORE:    0.00 PKD
ROOT
ATOM      1  C5M   T A   1     -10.535   9.276  68.897  1.00  0.00    -0.235 C  
ATOM      2  C5    T A   1     -11.239  10.566  69.160  1.00  0.00    -0.314 C  
ATOM      3  C6    T A   1     -11.389  11.549  68.264  1.00  0.00    -0.286 C  
ATOM      4  N1    T A   1     -12.013  12.758  68.556  1.00  0.00    -0.284 N  
ATOM      5  O4    T A   1     -11.571   9.994  71.434  1.00  0.00    -0.368 OA 
ATOM      6  C2    T A   1     -12.411  13.026  69.862  1.00  0.00    -0.110 C  
ATOM      7  O2    T A   1     -12.687  14.139  70.301  1.00  0.00    -0.333 OA 
ATOM      8  H3    T A   1     -13.043  12.025  71.535  1.00  0.00     0.000 HD 
ATOM      9  N3    T A   1     -12.454  11.950  70.706  1.00  0.00    -0.335 N  
ATOM     10  C4    T A   1     -11.771  10.786  70.521  1.00  0.00    -0.351 C  
ENDROOT
BRANCH   4  11
ATOM     11  C1*   T A   1     -11.931  13.852  67.571  1.00  0.00    -0.386 C  
ATOM     12  C2*   T A   1     -10.867  13.778  66.478  1.00  0.00    -0.287 C  
ATOM     13  C3*   T A   1      -9.657  14.363  67.159  1.00  0.00    -0.250 C  
ATOM     14  C4*   T A   1     -10.289  15.504  67.945  1.00  0.00    -0.250 C  
ATOM     15  O3*   T A   1      -8.671  14.814  66.243  1.00  0.00    -0.464 OA 
ATOM     16  H3*   T A   1      -7.908  15.183  66.672  1.00  0.00     0.000 HD 
ATOM     17  O4*   T A   1     -11.632  15.085  68.280  1.00  0.00    -0.317 OA 
BRANCH  14  18
ATOM     18  C5*   T A   1      -9.516  15.867  69.213  1.00  0.00    -0.260 C  
ATOM     19  O5*   T A   1     -10.132  15.316  70.376  1.00  0.00    -0.481 OA 
ATOM     20  H5*   T A   1      -9.651  15.542  71.164  1.00  0.00     0.000 HD 
ENDBRANCH  14  18
ENDBRANCH   4  11
TORSDOF 2
ENDMDL
MODEL       89
REMARK 921   NORMALIZED FREE ENERGY PREDICTED BY IDOCK:   -4.32 KCAL/MOL
REMARK 922        TOTAL FREE ENERGY PREDICTED BY IDOCK:   -5.15 KCAL/MOL
REMARK 923 INTER-LIGAND FREE ENERGY PREDICTED BY IDOCK:   -4.86 KCAL/MOL
REMARK 924 INTRA-LIGAND FREE ENERGY PREDICTED BY IDOCK:   -0.29 KCAL/MOL
REMARK 927      BINDING AFFINITY PREDICTED BY RF-SCORE:    0.00 PKD
ROOT
ATOM      1  C5M   T A   1     -10.659  11.449  63.357  1.00  0.00    -0.435 C  
ATOM      2  C5    T A   1     -10.925  12.438  64.445  1.00  0.00    -0.377 C  
ATOM      3  C6    T A   1     -10.359  12.409  65.657  1.00  0.00    -0.258 C  
ATOM      4  N1    T A   1     -10.662  13.321  66.663  1.00  0.00    -0.279 N  
ATOM      5  O4    T A   1     -12.572  13.528  63.137  1.00  0.00    -0.762 OA 
ATOM      6  C2    T A   1     -11.679  14.249  66.462  1.00  0.00    -0.394 C  
ATOM      7  O2    T A   1     -12.235  14.889  67.349  1.00  0.00    -0.150 OA 
ATOM      8  H3    T A   1     -12.562  15.285  64.929  1.00  0.00     0.000 HD 
ATOM      9  N3    T A   1     -12.090  14.413  65.167  1.00  0.00    -0.394 N  
ATOM     10  C4    T A   1     -11.917  13.499  64.172  1.00  0.00    -0.448 C  
ENDROOT
BRANCH   4  11
ATOM     11  C1*   T A   1     -10.152  13.070  68.023  1.00  0.00    -0.235 C  
ATOM     12  C2*   T A   1      -9.708  14.259  68.872  1.00  0.00    -0.118 C  
ATOM     13  C3*   T A   1      -8.283  14.465  68.426  1.00  0.00    -0.145 C  
ATOM     14  C4*   T A   1      -7.808  13.025  68.292  1.00  0.00    -0.143 C  
ATOM     15  O3*   T A   1      -7.514  15.207  69.360  1.00  0.00    -0.177 OA 
ATOM     16  H3*   T A   1      -6.616  15.337  69.078  1.00  0.00     0.000 HD 
ATOM     17  O4*   T A   1      -8.965  12.239  67.919  1.00  0.00    -0.170 OA 
BRANCH  14  18
ATOM     18  C5*   T A   1      -6.694  12.848  67.261  1.00  0.00    -0.047 C  
ATOM     19  O5*   T A   1      -5.566  13.668  67.565  1.00  0.00    -0.330 OA 
ATOM     20  H5*   T A   1      -4.873  13.559  66.923  1.00  0.00     0.000 HD 
ENDBRANCH  14  18
ENDBRANCH   4  11
TORSDOF 2
ENDMDL
MODEL       90
REMARK 921   NORMALIZED FREE ENERGY PREDICTED BY IDOCK:   -4.31 KCAL/MOL
REMARK 922        TOTAL FREE ENERGY PREDICTED BY IDOCK:   -5.14 KCAL/MOL
REMARK 923 INTER-LIGAND FREE ENERGY PREDICTED BY IDOCK:   -4.68 KCAL/MOL
REMARK 924 INTRA-LIGAND FREE ENERGY PREDICTED BY IDOCK:   -0.46 KCAL/MOL
REMARK 927      BINDING AFFINITY PREDICTED BY RF-SCORE:    0.00 PKD
ROOT
ATOM      1  C5M   T A   1     -10.348  19.650  67.987  1.00  0.00    -0.579 C  
ATOM      2  C5    T A   1      -9.228  18.686  68.205  1.00  0.00    -0.340 C  
ATOM      3  C6    T A   1      -9.375  17.364  68.341  1.00  0.00    -0.285 C  
ATOM      4  N1    T A   1      -8.313  16.499  68.587  1.00  0.00    -0.224 N  
ATOM      5  O4    T A   1      -7.651  20.451  68.327  1.00  0.00    -0.174 OA 
ATOM      6  C2    T A   1      -7.043  17.021  68.815  1.00  0.00    -0.219 C  
ATOM      7  O2    T A   1      -6.111  16.409  69.328  1.00  0.00    -0.148 OA 
ATOM      8  H3    T A   1      -5.909  18.645  68.288  1.00  0.00     0.000 HD 
ATOM      9  N3    T A   1      -6.863  18.330  68.460  1.00  0.00    -0.240 N  
ATOM     10  C4    T A   1      -7.863  19.244  68.317  1.00  0.00    -0.319 C  
ENDROOT
BRANCH   4  11
ATOM     11  C1*   T A   1      -8.608  15.098  68.939  1.00  0.00    -0.200 C  
ATOM     12  C2*   T A   1      -8.107  13.988  68.018  1.00  0.00    -0.152 C  
ATOM     13  C3*   T A   1      -9.197  13.908  66.980  1.00  0.00    -0.250 C  
ATOM     14  C4*   T A   1     -10.437  14.086  67.846  1.00  0.00    -0.241 C  
ATOM     15  O3*   T A   1      -9.199  12.677  66.274  1.00  0.00    -0.359 OA 
ATOM     16  H3*   T A   1      -9.886  12.627  65.620  1.00  0.00     0.000 HD 
ATOM     17  O4*   T A   1     -10.051  14.926  68.959  1.00  0.00    -0.227 OA 
BRANCH  14  18
ATOM     18  C5*   T A   1     -11.615  14.709  67.096  1.00  0.00    -0.378 C  
ATOM     19  O5*   T A   1     -11.329  14.859  65.706  1.00  0.00    -0.341 OA 
ATOM     20  H5*   T A   1     -12.062  15.247  65.241  1.00  0.00     0.000 HD 
ENDBRANCH  14  18
ENDBRANCH   4  11
TORSDOF 2
ENDMDL
MODEL       91
REMARK 921   NORMALIZED FREE ENERGY PREDICTED BY IDOCK:   -4.31 KCAL/MOL
REMARK 922        TOTAL FREE ENERGY PREDICTED BY IDOCK:   -5.13 KCAL/MOL
REMARK 923 INTER-LIGAND FREE ENERGY PREDICTED BY IDOCK:   -4.70 KCAL/MOL
REMARK 924 INTRA-LIGAND FREE ENERGY PREDICTED BY IDOCK:   -0.44 KCAL/MOL
REMARK 927      BINDING AFFINITY PREDICTED BY RF-SCORE:    0.00 PKD
ROOT
ATOM      1  C5M   T A   1      -8.937   6.716  67.282  1.00  0.00    -0.115 C  
ATOM      2  C5    T A   1      -9.486   6.348  68.622  1.00  0.00    -0.122 C  
ATOM      3  C6    T A   1      -9.788   7.222  69.588  1.00  0.00    -0.163 C  
ATOM      4  N1    T A   1     -10.256   6.841  70.842  1.00  0.00    -0.195 N  
ATOM      5  O4    T A   1      -9.303   4.037  68.131  1.00  0.00    -0.142 OA 
ATOM      6  C2    T A   1     -10.319   5.490  71.169  1.00  0.00    -0.234 C  
ATOM      7  O2    T A   1     -10.421   5.044  72.308  1.00  0.00    -0.206 OA 
ATOM      8  H3    T A   1     -10.593   3.677  70.253  1.00  0.00     0.000 HD 
ATOM      9  N3    T A   1     -10.222   4.617  70.120  1.00  0.00    -0.209 N  
ATOM     10  C4    T A   1      -9.668   4.909  68.910  1.00  0.00    -0.173 C  
ENDROOT
BRANCH   4  11
ATOM     11  C1*   T A   1     -10.348   7.861  71.902  1.00  0.00    -0.215 C  
ATOM     12  C2*   T A   1     -11.649   7.985  72.693  1.00  0.00    -0.448 C  
ATOM     13  C3*   T A   1     -12.478   8.889  71.817  1.00  0.00    -0.362 C  
ATOM     14  C4*   T A   1     -11.426   9.884  71.347  1.00  0.00    -0.321 C  
ATOM     15  O3*   T A   1     -13.543   9.512  72.518  1.00  0.00    -0.644 OA 
ATOM     16  H3*   T A   1     -14.066  10.082  71.966  1.00  0.00     0.000 HD 
ATOM     17  O4*   T A   1     -10.170   9.169  71.296  1.00  0.00    -0.284 OA 
BRANCH  14  18
ATOM     18  C5*   T A   1     -11.741  10.501  69.984  1.00  0.00    -0.312 C  
ATOM     19  O5*   T A   1     -13.139  10.458  69.702  1.00  0.00    -0.550 OA 
ATOM     20  H5*   T A   1     -13.335  10.840  68.854  1.00  0.00     0.000 HD 
ENDBRANCH  14  18
ENDBRANCH   4  11
TORSDOF 2
ENDMDL
MODEL       92
REMARK 921   NORMALIZED FREE ENERGY PREDICTED BY IDOCK:   -4.30 KCAL/MOL
REMARK 922        TOTAL FREE ENERGY PREDICTED BY IDOCK:   -5.13 KCAL/MOL
REMARK 923 INTER-LIGAND FREE ENERGY PREDICTED BY IDOCK:   -5.27 KCAL/MOL
REMARK 924 INTRA-LIGAND FREE ENERGY PREDICTED BY IDOCK:    0.14 KCAL/MOL
REMARK 927      BINDING AFFINITY PREDICTED BY RF-SCORE:    0.00 PKD
ROOT
ATOM      1  C5M   T A   1     -13.148  11.195  71.735  1.00  0.00    -0.536 C  
ATOM      2  C5    T A   1     -12.579   9.851  71.420  1.00  0.00    -0.497 C  
ATOM      3  C6    T A   1     -11.520   9.637  70.631  1.00  0.00    -0.306 C  
ATOM      4  N1    T A   1     -11.041   8.367  70.323  1.00  0.00    -0.240 N  
ATOM      5  O4    T A   1     -14.307   8.767  72.624  1.00  0.00    -0.585 OA 
ATOM      6  C2    T A   1     -11.744   7.247  70.755  1.00  0.00    -0.299 C  
ATOM      7  O2    T A   1     -11.605   6.112  70.309  1.00  0.00    -0.362 OA 
ATOM      8  H3    T A   1     -12.963   6.672  72.299  1.00  0.00     0.000 HD 
ATOM      9  N3    T A   1     -12.680   7.468  71.728  1.00  0.00    -0.332 N  
ATOM     10  C4    T A   1     -13.262   8.671  71.992  1.00  0.00    -0.386 C  
ENDROOT
BRANCH   4  11
ATOM     11  C1*   T A   1     -10.014   8.234  69.274  1.00  0.00    -0.192 C  
ATOM     12  C2*   T A   1      -8.603   8.746  69.558  1.00  0.00    -0.130 C  
ATOM     13  C3*   T A   1      -8.708  10.206  69.204  1.00  0.00    -0.170 C  
ATOM     14  C4*   T A   1      -9.579  10.142  67.957  1.00  0.00    -0.145 C  
ATOM     15  O3*   T A   1      -7.446  10.807  68.956  1.00  0.00    -0.098 OA 
ATOM     16  H3*   T A   1      -7.513  11.728  68.733  1.00  0.00     0.000 HD 
ATOM     17  O4*   T A   1     -10.444   8.993  68.112  1.00  0.00    -0.215 OA 
BRANCH  14  18
ATOM     18  C5*   T A   1     -10.411  11.405  67.733  1.00  0.00    -0.185 C  
ATOM     19  O5*   T A   1     -11.793  11.096  67.561  1.00  0.00    -0.591 OA 
ATOM     20  H5*   T A   1     -12.311  11.881  67.421  1.00  0.00     0.000 HD 
ENDBRANCH  14  18
ENDBRANCH   4  11
TORSDOF 2
ENDMDL
MODEL       93
REMARK 921   NORMALIZED FREE ENERGY PREDICTED BY IDOCK:   -4.29 KCAL/MOL
REMARK 922        TOTAL FREE ENERGY PREDICTED BY IDOCK:   -5.11 KCAL/MOL
REMARK 923 INTER-LIGAND FREE ENERGY PREDICTED BY IDOCK:   -4.91 KCAL/MOL
REMARK 924 INTRA-LIGAND FREE ENERGY PREDICTED BY IDOCK:   -0.20 KCAL/MOL
REMARK 927      BINDING AFFINITY PREDICTED BY RF-SCORE:    0.00 PKD
ROOT
ATOM      1  C5M   T A   1      -6.464  14.578  67.869  1.00  0.00    -0.175 C  
ATOM      2  C5    T A   1      -7.875  15.048  68.010  1.00  0.00    -0.129 C  
ATOM      3  C6    T A   1      -8.249  16.331  68.077  1.00  0.00    -0.156 C  
ATOM      4  N1    T A   1      -9.570  16.732  68.252  1.00  0.00    -0.237 N  
ATOM      5  O4    T A   1      -8.664  12.821  68.195  1.00  0.00    -0.183 OA 
ATOM      6  C2    T A   1     -10.553  15.775  68.480  1.00  0.00    -0.253 C  
ATOM      7  O2    T A   1     -11.668  16.004  68.939  1.00  0.00    -0.381 OA 
ATOM      8  H3    T A   1     -10.960  13.819  68.019  1.00  0.00     0.000 HD 
ATOM      9  N3    T A   1     -10.205  14.483  68.194  1.00  0.00    -0.226 N  
ATOM     10  C4    T A   1      -8.928  14.016  68.123  1.00  0.00    -0.183 C  
ENDROOT
BRANCH   4  11
ATOM     11  C1*   T A   1      -9.845  18.153  68.533  1.00  0.00    -0.382 C  
ATOM     12  C2*   T A   1     -10.539  18.993  67.463  1.00  0.00    -0.546 C  
ATOM     13  C3*   T A   1      -9.388  19.436  66.597  1.00  0.00    -0.349 C  
ATOM     14  C4*   T A   1      -8.328  19.729  67.650  1.00  0.00    -0.317 C  
ATOM     15  O3*   T A   1      -9.698  20.572  65.804  1.00  0.00    -0.640 OA 
ATOM     16  H3*   T A   1      -8.972  20.850  65.259  1.00  0.00     0.000 HD 
ATOM     17  O4*   T A   1      -8.579  18.829  68.755  1.00  0.00    -0.336 OA 
BRANCH  14  18
ATOM     18  C5*   T A   1      -6.899  19.553  67.137  1.00  0.00    -0.200 C  
ATOM     19  O5*   T A   1      -5.942  19.777  68.171  1.00  0.00    -0.221 OA 
ATOM     20  H5*   T A   1      -5.053  19.667  67.852  1.00  0.00     0.000 HD 
ENDBRANCH  14  18
ENDBRANCH   4  11
TORSDOF 2
ENDMDL
MODEL       94
REMARK 921   NORMALIZED FREE ENERGY PREDICTED BY IDOCK:   -4.28 KCAL/MOL
REMARK 922        TOTAL FREE ENERGY PREDICTED BY IDOCK:   -5.10 KCAL/MOL
REMARK 923 INTER-LIGAND FREE ENERGY PREDICTED BY IDOCK:   -5.21 KCAL/MOL
REMARK 924 INTRA-LIGAND FREE ENERGY PREDICTED BY IDOCK:    0.11 KCAL/MOL
REMARK 927      BINDING AFFINITY PREDICTED BY RF-SCORE:    0.00 PKD
ROOT
ATOM      1  C5M   T A   1     -10.969   6.424  67.046  1.00  0.00    -0.463 C  
ATOM      2  C5    T A   1     -10.363   7.132  68.213  1.00  0.00    -0.227 C  
ATOM      3  C6    T A   1     -10.725   6.948  69.488  1.00  0.00    -0.246 C  
ATOM      4  N1    T A   1     -10.170   7.657  70.549  1.00  0.00    -0.200 N  
ATOM      5  O4    T A   1      -9.008   8.454  66.789  1.00  0.00    -0.134 OA 
ATOM      6  C2    T A   1      -9.271   8.686  70.289  1.00  0.00    -0.166 C  
ATOM      7  O2    T A   1      -8.950   9.562  71.088  1.00  0.00    -0.249 OA 
ATOM      8  H3    T A   1      -7.867   9.213  68.892  1.00  0.00     0.000 HD 
ATOM      9  N3    T A   1      -8.748   8.717  69.025  1.00  0.00    -0.132 N  
ATOM     10  C4    T A   1      -9.314   8.135  67.932  1.00  0.00    -0.134 C  
ENDROOT
BRANCH   4  11
ATOM     11  C1*   T A   1     -10.791   7.539  71.880  1.00  0.00    -0.227 C  
ATOM     12  C2*   T A   1     -12.008   6.631  72.046  1.00  0.00    -0.361 C  
ATOM     13  C3*   T A   1     -13.146   7.534  71.646  1.00  0.00    -0.358 C  
ATOM     14  C4*   T A   1     -12.713   8.848  72.281  1.00  0.00    -0.397 C  
ATOM     15  O3*   T A   1     -14.403   7.084  72.128  1.00  0.00    -0.613 OA 
ATOM     16  H3*   T A   1     -15.120   7.654  71.876  1.00  0.00     0.000 HD 
ATOM     17  O4*   T A   1     -11.266   8.852  72.281  1.00  0.00    -0.340 OA 
BRANCH  14  18
ATOM     18  C5*   T A   1     -13.246  10.079  71.549  1.00  0.00    -0.401 C  
ATOM     19  O5*   T A   1     -13.026   9.987  70.142  1.00  0.00    -0.564 OA 
ATOM     20  H5*   T A   1     -13.357  10.753  69.687  1.00  0.00     0.000 HD 
ENDBRANCH  14  18
ENDBRANCH   4  11
TORSDOF 2
ENDMDL
MODEL       95
REMARK 921   NORMALIZED FREE ENERGY PREDICTED BY IDOCK:   -4.26 KCAL/MOL
REMARK 922        TOTAL FREE ENERGY PREDICTED BY IDOCK:   -5.09 KCAL/MOL
REMARK 923 INTER-LIGAND FREE ENERGY PREDICTED BY IDOCK:   -5.04 KCAL/MOL
REMARK 924 INTRA-LIGAND FREE ENERGY PREDICTED BY IDOCK:   -0.05 KCAL/MOL
REMARK 927      BINDING AFFINITY PREDICTED BY RF-SCORE:    0.00 PKD
ROOT
ATOM      1  C5M   T A   1      -7.472  15.680  67.570  1.00  0.00    -0.205 C  
ATOM      2  C5    T A   1      -8.794  15.334  66.965  1.00  0.00    -0.261 C  
ATOM      3  C6    T A   1      -9.482  14.217  67.225  1.00  0.00    -0.220 C  
ATOM      4  N1    T A   1     -10.691  13.905  66.611  1.00  0.00    -0.280 N  
ATOM      5  O4    T A   1      -8.740  17.263  65.590  1.00  0.00    -0.473 OA 
ATOM      6  C2    T A   1     -11.174  14.724  65.594  1.00  0.00    -0.343 C  
ATOM      7  O2    T A   1     -12.044  14.408  64.788  1.00  0.00    -0.412 OA 
ATOM      8  H3    T A   1     -11.115  16.690  65.016  1.00  0.00     0.000 HD 
ATOM      9  N3    T A   1     -10.589  15.957  65.492  1.00  0.00    -0.385 N  
ATOM     10  C4    T A   1      -9.358  16.279  65.978  1.00  0.00    -0.326 C  
ENDROOT
BRANCH   4  11
ATOM     11  C1*   T A   1     -11.254  12.557  66.801  1.00  0.00    -0.296 C  
ATOM     12  C2*   T A   1     -11.796  12.174  68.176  1.00  0.00    -0.362 C  
ATOM     13  C3*   T A   1     -10.558  11.707  68.897  1.00  0.00    -0.193 C  
ATOM     14  C4*   T A   1      -9.847  10.942  67.790  1.00  0.00    -0.175 C  
ATOM     15  O3*   T A   1     -10.847  10.893  70.023  1.00  0.00    -0.435 OA 
ATOM     16  H3*   T A   1     -10.066  10.599  70.477  1.00  0.00     0.000 HD 
ATOM     17  O4*   T A   1     -10.207  11.583  66.543  1.00  0.00    -0.207 OA 
BRANCH  14  18
ATOM     18  C5*   T A   1      -8.327  10.915  67.951  1.00  0.00    -0.119 C  
ATOM     19  O5*   T A   1      -7.912  11.628  69.116  1.00  0.00    -0.343 OA 
ATOM     20  H5*   T A   1      -6.967  11.611  69.216  1.00  0.00     0.000 HD 
ENDBRANCH  14  18
ENDBRANCH   4  11
TORSDOF 2
ENDMDL
MODEL       96
REMARK 921   NORMALIZED FREE ENERGY PREDICTED BY IDOCK:   -4.25 KCAL/MOL
REMARK 922        TOTAL FREE ENERGY PREDICTED BY IDOCK:   -5.07 KCAL/MOL
REMARK 923 INTER-LIGAND FREE ENERGY PREDICTED BY IDOCK:   -4.96 KCAL/MOL
REMARK 924 INTRA-LIGAND FREE ENERGY PREDICTED BY IDOCK:   -0.11 KCAL/MOL
REMARK 927      BINDING AFFINITY PREDICTED BY RF-SCORE:    0.00 PKD
ROOT
ATOM      1  C5M   T A   1      -8.541  10.589  67.886  1.00  0.00    -0.123 C  
ATOM      2  C5    T A   1      -9.406  11.273  66.879  1.00  0.00    -0.190 C  
ATOM      3  C6    T A   1      -9.705  12.576  66.890  1.00  0.00    -0.232 C  
ATOM      4  N1    T A   1     -10.551  13.173  65.960  1.00  0.00    -0.277 N  
ATOM      5  O4    T A   1      -9.883   9.217  65.801  1.00  0.00    -0.296 OA 
ATOM      6  C2    T A   1     -11.215  12.380  65.030  1.00  0.00    -0.312 C  
ATOM      7  O2    T A   1     -12.191  12.731  64.372  1.00  0.00    -0.386 OA 
ATOM      8  H3    T A   1     -10.954  10.619  64.015  1.00  0.00     0.000 HD 
ATOM      9  N3    T A   1     -10.740  11.105  64.886  1.00  0.00    -0.283 N  
ATOM     10  C4    T A   1     -10.004  10.436  65.816  1.00  0.00    -0.270 C  
ENDROOT
BRANCH   4  11
ATOM     11  C1*   T A   1     -10.989  14.562  66.191  1.00  0.00    -0.322 C  
ATOM     12  C2*   T A   1      -9.987  15.562  66.764  1.00  0.00    -0.257 C  
ATOM     13  C3*   T A   1     -10.103  15.328  68.248  1.00  0.00    -0.225 C  
ATOM     14  C4*   T A   1     -11.606  15.134  68.395  1.00  0.00    -0.337 C  
ATOM     15  O3*   T A   1      -9.617  16.416  69.019  1.00  0.00    -0.249 OA 
ATOM     16  H3*   T A   1      -9.690  16.268  69.954  1.00  0.00     0.000 HD 
ATOM     17  O4*   T A   1     -12.072  14.545  67.159  1.00  0.00    -0.397 OA 
BRANCH  14  18
ATOM     18  C5*   T A   1     -11.989  14.248  69.581  1.00  0.00    -0.336 C  
ATOM     19  O5*   T A   1     -10.963  14.230  70.572  1.00  0.00    -0.465 OA 
ATOM     20  H5*   T A   1     -11.201  13.679  71.309  1.00  0.00     0.000 HD 
ENDBRANCH  14  18
ENDBRANCH   4  11
TORSDOF 2
ENDMDL
MODEL       97
REMARK 921   NORMALIZED FREE ENERGY PREDICTED BY IDOCK:   -4.23 KCAL/MOL
REMARK 922        TOTAL FREE ENERGY PREDICTED BY IDOCK:   -5.05 KCAL/MOL
REMARK 923 INTER-LIGAND FREE ENERGY PREDICTED BY IDOCK:   -5.11 KCAL/MOL
REMARK 924 INTRA-LIGAND FREE ENERGY PREDICTED BY IDOCK:    0.06 KCAL/MOL
REMARK 927      BINDING AFFINITY PREDICTED BY RF-SCORE:    0.00 PKD
ROOT
ATOM      1  C5M   T A   1     -10.412  13.879  64.718  1.00  0.00    -0.451 C  
ATOM      2  C5    T A   1     -10.808  13.787  66.155  1.00  0.00    -0.279 C  
ATOM      3  C6    T A   1     -10.429  14.646  67.107  1.00  0.00    -0.268 C  
ATOM      4  N1    T A   1     -10.781  14.506  68.446  1.00  0.00    -0.237 N  
ATOM      5  O4    T A   1     -11.940  11.740  65.776  1.00  0.00    -0.376 OA 
ATOM      6  C2    T A   1     -11.469  13.369  68.858  1.00  0.00    -0.304 C  
ATOM      7  O2    T A   1     -11.570  12.988  70.021  1.00  0.00    -0.235 OA 
ATOM      8  H3    T A   1     -12.805  12.002  68.117  1.00  0.00     0.000 HD 
ATOM      9  N3    T A   1     -12.035  12.620  67.862  1.00  0.00    -0.324 N  
ATOM     10  C4    T A   1     -11.649  12.638  66.556  1.00  0.00    -0.381 C  
ENDROOT
BRANCH   4  11
ATOM     11  C1*   T A   1     -10.133  15.377  69.443  1.00  0.00    -0.269 C  
ATOM     12  C2*   T A   1     -10.803  16.699  69.810  1.00  0.00    -0.238 C  
ATOM     13  C3*   T A   1     -10.297  17.630  68.737  1.00  0.00    -0.348 C  
ATOM     14  C4*   T A   1      -8.849  17.175  68.616  1.00  0.00    -0.266 C  
ATOM     15  O3*   T A   1     -10.410  18.999  69.095  1.00  0.00    -0.524 OA 
ATOM     16  H3*   T A   1     -10.091  19.585  68.419  1.00  0.00     0.000 HD 
ATOM     17  O4*   T A   1      -8.829  15.763  68.933  1.00  0.00    -0.188 OA 
BRANCH  14  18
ATOM     18  C5*   T A   1      -8.254  17.414  67.228  1.00  0.00    -0.205 C  
ATOM     19  O5*   T A   1      -7.624  16.239  66.720  1.00  0.00    -0.219 OA 
ATOM     20  H5*   T A   1      -7.253  16.388  65.857  1.00  0.00     0.000 HD 
ENDBRANCH  14  18
ENDBRANCH   4  11
TORSDOF 2
ENDMDL
MODEL       98
REMARK 921   NORMALIZED FREE ENERGY PREDICTED BY IDOCK:   -4.23 KCAL/MOL
REMARK 922        TOTAL FREE ENERGY PREDICTED BY IDOCK:   -5.05 KCAL/MOL
REMARK 923 INTER-LIGAND FREE ENERGY PREDICTED BY IDOCK:   -4.68 KCAL/MOL
REMARK 924 INTRA-LIGAND FREE ENERGY PREDICTED BY IDOCK:   -0.37 KCAL/MOL
REMARK 927      BINDING AFFINITY PREDICTED BY RF-SCORE:    0.00 PKD
ROOT
ATOM      1  C5M   T A   1     -10.771   5.732  67.041  1.00  0.00    -0.369 C  
ATOM      2  C5    T A   1     -10.796   6.832  68.050  1.00  0.00    -0.306 C  
ATOM      3  C6    T A   1     -11.207   6.696  69.316  1.00  0.00    -0.266 C  
ATOM      4  N1    T A   1     -11.258   7.753  70.220  1.00  0.00    -0.243 N  
ATOM      5  O4    T A   1     -10.099   8.417  66.433  1.00  0.00    -0.265 OA 
ATOM      6  C2    T A   1     -10.978   9.044  69.781  1.00  0.00    -0.166 C  
ATOM      7  O2    T A   1     -11.274  10.073  70.382  1.00  0.00    -0.275 OA 
ATOM      8  H3    T A   1      -9.840   9.996  68.367  1.00  0.00     0.000 HD 
ATOM      9  N3    T A   1     -10.356   9.139  68.566  1.00  0.00    -0.203 N  
ATOM     10  C4    T A   1     -10.372   8.176  67.603  1.00  0.00    -0.247 C  
ENDROOT
BRANCH   4  11
ATOM     11  C1*   T A   1     -11.931   7.545  71.515  1.00  0.00    -0.307 C  
ATOM     12  C2*   T A   1     -11.281   8.104  72.779  1.00  0.00    -0.407 C  
ATOM     13  C3*   T A   1     -10.313   7.013  73.159  1.00  0.00    -0.281 C  
ATOM     14  C4*   T A   1     -11.140   5.771  72.855  1.00  0.00    -0.281 C  
ATOM     15  O3*   T A   1      -9.911   7.081  74.518  1.00  0.00    -0.469 OA 
ATOM     16  H3*   T A   1      -9.301   6.393  74.757  1.00  0.00     0.000 HD 
ATOM     17  O4*   T A   1     -12.020   6.115  71.759  1.00  0.00    -0.289 OA 
BRANCH  14  18
ATOM     18  C5*   T A   1     -10.291   4.553  72.490  1.00  0.00    -0.195 C  
ATOM     19  O5*   T A   1      -9.152   4.436  73.341  1.00  0.00    -0.110 OA 
ATOM     20  H5*   T A   1      -8.625   3.679  73.115  1.00  0.00     0.000 HD 
ENDBRANCH  14  18
ENDBRANCH   4  11
TORSDOF 2
ENDMDL
MODEL       99
REMARK 921   NORMALIZED FREE ENERGY PREDICTED BY IDOCK:   -4.23 KCAL/MOL
REMARK 922        TOTAL FREE ENERGY PREDICTED BY IDOCK:   -5.04 KCAL/MOL
REMARK 923 INTER-LIGAND FREE ENERGY PREDICTED BY IDOCK:   -4.64 KCAL/MOL
REMARK 924 INTRA-LIGAND FREE ENERGY PREDICTED BY IDOCK:   -0.40 KCAL/MOL
REMARK 927      BINDING AFFINITY PREDICTED BY RF-SCORE:    0.00 PKD
ROOT
ATOM      1  C5M   T A   1     -10.910  11.427  65.769  1.00  0.00    -0.290 C  
ATOM      2  C5    T A   1     -11.200  11.473  67.233  1.00  0.00    -0.365 C  
ATOM      3  C6    T A   1     -11.007  10.456  68.081  1.00  0.00    -0.281 C  
ATOM      4  N1    T A   1     -11.330  10.518  69.434  1.00  0.00    -0.254 N  
ATOM      5  O4    T A   1     -12.104  13.655  67.050  1.00  0.00    -0.398 OA 
ATOM      6  C2    T A   1     -11.986  11.640  69.930  1.00  0.00    -0.340 C  
ATOM      7  O2    T A   1     -12.580  11.692  71.003  1.00  0.00    -0.378 OA 
ATOM      8  H3    T A   1     -12.133  13.651  69.560  1.00  0.00     0.000 HD 
ATOM      9  N3    T A   1     -11.979  12.743  69.121  1.00  0.00    -0.277 N  
ATOM     10  C4    T A   1     -11.781  12.721  67.774  1.00  0.00    -0.359 C  
ENDROOT
BRANCH   4  11
ATOM     11  C1*   T A   1     -11.284   9.278  70.229  1.00  0.00    -0.231 C  
ATOM     12  C2*   T A   1     -10.601   9.306  71.595  1.00  0.00    -0.360 C  
ATOM     13  C3*   T A   1      -9.154   9.077  71.242  1.00  0.00    -0.232 C  
ATOM     14  C4*   T A   1      -9.284   8.029  70.145  1.00  0.00    -0.152 C  
ATOM     15  O3*   T A   1      -8.382   8.621  72.342  1.00  0.00    -0.340 OA 
ATOM     16  H3*   T A   1      -7.470   8.477  72.119  1.00  0.00     0.000 HD 
ATOM     17  O4*   T A   1     -10.543   8.279  69.477  1.00  0.00    -0.227 OA 
BRANCH  14  18
ATOM     18  C5*   T A   1      -8.135   8.061  69.137  1.00  0.00    -0.119 C  
ATOM     19  O5*   T A   1      -6.869   8.140  69.791  1.00  0.00    -0.040 OA 
ATOM     20  H5*   T A   1      -6.155   8.161  69.165  1.00  0.00     0.000 HD 
ENDBRANCH  14  18
ENDBRANCH   4  11
TORSDOF 2
ENDMDL
MODEL      100
REMARK 921   NORMALIZED FREE ENERGY PREDICTED BY IDOCK:   -4.19 KCAL/MOL
REMARK 922        TOTAL FREE ENERGY PREDICTED BY IDOCK:   -5.00 KCAL/MOL
REMARK 923 INTER-LIGAND FREE ENERGY PREDICTED BY IDOCK:   -5.10 KCAL/MOL
REMARK 924 INTRA-LIGAND FREE ENERGY PREDICTED BY IDOCK:    0.09 KCAL/MOL
REMARK 927      BINDING AFFINITY PREDICTED BY RF-SCORE:    0.00 PKD
ROOT
ATOM      1  C5M   T A   1      -6.039  16.587  68.926  1.00  0.00    -0.147 C  
ATOM      2  C5    T A   1      -7.367  17.250  68.760  1.00  0.00    -0.250 C  
ATOM      3  C6    T A   1      -8.518  16.606  68.536  1.00  0.00    -0.233 C  
ATOM      4  N1    T A   1      -9.732  17.257  68.342  1.00  0.00    -0.280 N  
ATOM      5  O4    T A   1      -6.380  19.400  68.888  1.00  0.00    -0.239 OA 
ATOM      6  C2    T A   1      -9.760  18.646  68.266  1.00  0.00    -0.357 C  
ATOM      7  O2    T A   1     -10.686  19.310  67.809  1.00  0.00    -0.426 OA 
ATOM      8  H3    T A   1      -8.734  20.267  68.989  1.00  0.00     0.000 HD 
ATOM      9  N3    T A   1      -8.637  19.291  68.710  1.00  0.00    -0.360 N  
ATOM     10  C4    T A   1      -7.401  18.727  68.809  1.00  0.00    -0.312 C  
ENDROOT
BRANCH   4  11
ATOM     11  C1*   T A   1     -10.892  16.471  67.885  1.00  0.00    -0.326 C  
ATOM     12  C2*   T A   1     -11.744  15.745  68.924  1.00  0.00    -0.404 C  
ATOM     13  C3*   T A   1     -10.998  14.449  69.110  1.00  0.00    -0.265 C  
ATOM     14  C4*   T A   1     -10.587  14.141  67.677  1.00  0.00    -0.253 C  
ATOM     15  O3*   T A   1     -11.801  13.426  69.679  1.00  0.00    -0.299 OA 
ATOM     16  H3*   T A   1     -11.331  12.609  69.796  1.00  0.00     0.000 HD 
ATOM     17  O4*   T A   1     -10.412  15.414  67.012  1.00  0.00    -0.282 OA 
BRANCH  14  18
ATOM     18  C5*   T A   1      -9.306  13.312  67.579  1.00  0.00    -0.218 C  
ATOM     19  O5*   T A   1      -8.955  13.052  66.221  1.00  0.00    -0.444 OA 
ATOM     20  H5*   T A   1      -8.159  12.536  66.160  1.00  0.00     0.000 HD 
ENDBRANCH  14  18
ENDBRANCH   4  11
TORSDOF 2
ENDMDL
MODEL      101
REMARK 921   NORMALIZED FREE ENERGY PREDICTED BY IDOCK:   -4.18 KCAL/MOL
REMARK 922        TOTAL FREE ENERGY PREDICTED BY IDOCK:   -5.00 KCAL/MOL
REMARK 923 INTER-LIGAND FREE ENERGY PREDICTED BY IDOCK:   -4.61 KCAL/MOL
REMARK 924 INTRA-LIGAND FREE ENERGY PREDICTED BY IDOCK:   -0.39 KCAL/MOL
REMARK 927      BINDING AFFINITY PREDICTED BY RF-SCORE:    0.00 PKD
ROOT
ATOM      1  C5M   T A   1     -13.829   8.978  71.982  1.00  0.00    -0.501 C  
ATOM      2  C5    T A   1     -12.341   8.905  71.874  1.00  0.00    -0.445 C  
ATOM      3  C6    T A   1     -11.554   8.170  72.668  1.00  0.00    -0.375 C  
ATOM      4  N1    T A   1     -10.166   8.159  72.568  1.00  0.00    -0.290 N  
ATOM      5  O4    T A   1     -12.323  10.532  70.152  1.00  0.00    -0.300 OA 
ATOM      6  C2    T A   1      -9.536   9.027  71.681  1.00  0.00    -0.248 C  
ATOM      7  O2    T A   1      -8.346   9.325  71.712  1.00  0.00    -0.284 OA 
ATOM      8  H3    T A   1      -9.895   9.954  69.889  1.00  0.00     0.000 HD 
ATOM      9  N3    T A   1     -10.341   9.602  70.736  1.00  0.00    -0.300 N  
ATOM     10  C4    T A   1     -11.692   9.738  70.839  1.00  0.00    -0.347 C  
ENDROOT
BRANCH   4  11
ATOM     11  C1*   T A   1      -9.386   7.491  73.625  1.00  0.00    -0.277 C  
ATOM     12  C2*   T A   1      -8.223   6.588  73.222  1.00  0.00    -0.118 C  
ATOM     13  C3*   T A   1      -8.907   5.271  72.961  1.00  0.00    -0.116 C  
ATOM     14  C4*   T A   1      -9.925   5.242  74.092  1.00  0.00    -0.209 C  
ATOM     15  O3*   T A   1      -8.015   4.167  73.003  1.00  0.00    -0.086 OA 
ATOM     16  H3*   T A   1      -8.447   3.337  72.838  1.00  0.00     0.000 HD 
ATOM     17  O4*   T A   1     -10.278   6.618  74.369  1.00  0.00    -0.360 OA 
BRANCH  14  18
ATOM     18  C5*   T A   1     -11.178   4.432  73.759  1.00  0.00    -0.192 C  
ATOM     19  O5*   T A   1     -10.853   3.232  73.059  1.00  0.00    -0.156 OA 
ATOM     20  H5*   T A   1     -11.632   2.728  72.851  1.00  0.00     0.000 HD 
ENDBRANCH  14  18
ENDBRANCH   4  11
TORSDOF 2
ENDMDL
MODEL      102
REMARK 921   NORMALIZED FREE ENERGY PREDICTED BY IDOCK:   -4.13 KCAL/MOL
REMARK 922        TOTAL FREE ENERGY PREDICTED BY IDOCK:   -4.93 KCAL/MOL
REMARK 923 INTER-LIGAND FREE ENERGY PREDICTED BY IDOCK:   -4.86 KCAL/MOL
REMARK 924 INTRA-LIGAND FREE ENERGY PREDICTED BY IDOCK:   -0.07 KCAL/MOL
REMARK 927      BINDING AFFINITY PREDICTED BY RF-SCORE:    0.00 PKD
ROOT
ATOM      1  C5M   T A   1     -10.749   8.838  66.939  1.00  0.00    -0.151 C  
ATOM      2  C5    T A   1     -10.003  10.109  67.179  1.00  0.00    -0.243 C  
ATOM      3  C6    T A   1     -10.442  11.326  66.840  1.00  0.00    -0.245 C  
ATOM      4  N1    T A   1      -9.701  12.487  67.038  1.00  0.00    -0.208 N  
ATOM      5  O4    T A   1      -8.136   8.925  68.030  1.00  0.00    -0.105 OA 
ATOM      6  C2    T A   1      -8.395  12.394  67.510  1.00  0.00    -0.173 C  
ATOM      7  O2    T A   1      -7.556  13.287  67.443  1.00  0.00    -0.159 OA 
ATOM      8  H3    T A   1      -7.250  11.177  68.697  1.00  0.00     0.000 HD 
ATOM      9  N3    T A   1      -8.041  11.189  68.053  1.00  0.00    -0.118 N  
ATOM     10  C4    T A   1      -8.666  10.006  67.800  1.00  0.00    -0.125 C  
ENDROOT
BRANCH   4  11
ATOM     11  C1*   T A   1     -10.178  13.743  66.432  1.00  0.00    -0.292 C  
ATOM     12  C2*   T A   1     -11.619  14.181  66.686  1.00  0.00    -0.399 C  
ATOM     13  C3*   T A   1     -12.380  13.433  65.622  1.00  0.00    -0.470 C  
ATOM     14  C4*   T A   1     -11.429  13.559  64.440  1.00  0.00    -0.394 C  
ATOM     15  O3*   T A   1     -13.656  13.995  65.357  1.00  0.00    -0.593 OA 
ATOM     16  H3*   T A   1     -14.135  13.523  64.686  1.00  0.00     0.000 HD 
ATOM     17  O4*   T A   1     -10.090  13.615  64.987  1.00  0.00    -0.328 OA 
BRANCH  14  18
ATOM     18  C5*   T A   1     -11.545  12.405  63.443  1.00  0.00    -0.462 C  
ATOM     19  O5*   T A   1     -12.612  11.522  63.788  1.00  0.00    -0.391 OA 
ATOM     20  H5*   T A   1     -12.683  10.805  63.169  1.00  0.00     0.000 HD 
ENDBRANCH  14  18
ENDBRANCH   4  11
TORSDOF 2
ENDMDL
MODEL      103
REMARK 921   NORMALIZED FREE ENERGY PREDICTED BY IDOCK:   -4.09 KCAL/MOL
REMARK 922        TOTAL FREE ENERGY PREDICTED BY IDOCK:   -4.89 KCAL/MOL
REMARK 923 INTER-LIGAND FREE ENERGY PREDICTED BY IDOCK:   -5.39 KCAL/MOL
REMARK 924 INTRA-LIGAND FREE ENERGY PREDICTED BY IDOCK:    0.51 KCAL/MOL
REMARK 927      BINDING AFFINITY PREDICTED BY RF-SCORE:    0.00 PKD
ROOT
ATOM      1  C5M   T A   1     -12.702  15.969  72.830  1.00  0.00    -0.563 C  
ATOM      2  C5    T A   1     -12.379  14.867  71.875  1.00  0.00    -0.415 C  
ATOM      3  C6    T A   1     -11.394  14.907  70.970  1.00  0.00    -0.215 C  
ATOM      4  N1    T A   1     -11.149  13.879  70.064  1.00  0.00     0.036 N  
ATOM      5  O4    T A   1     -14.235  13.595  72.617  1.00  0.00    -0.735 OA 
ATOM      6  C2    T A   1     -12.021  12.797  70.003  1.00  0.00    -0.301 C  
ATOM      7  O2    T A   1     -12.090  11.998  69.073  1.00  0.00    -0.271 OA 
ATOM      8  H3    T A   1     -13.278  11.737  71.227  1.00  0.00     0.000 HD 
ATOM      9  N3    T A   1     -12.878  12.661  71.061  1.00  0.00    -0.230 N  
ATOM     10  C4    T A   1     -13.239  13.665  71.908  1.00  0.00    -0.411 C  
ENDROOT
BRANCH   4  11
ATOM     11  C1*   T A   1     -10.188  14.115  68.972  1.00  0.00    -0.121 C  
ATOM     12  C2*   T A   1     -10.080  15.518  68.378  1.00  0.00    -0.214 C  
ATOM     13  C3*   T A   1     -11.180  15.523  67.349  1.00  0.00    -0.248 C  
ATOM     14  C4*   T A   1     -11.049  14.119  66.775  1.00  0.00    -0.310 C  
ATOM     15  O3*   T A   1     -11.011  16.531  66.364  1.00  0.00    -0.109 OA 
ATOM     16  H3*   T A   1     -11.705  16.534  65.715  1.00  0.00     0.000 HD 
ATOM     17  O4*   T A   1     -10.561  13.276  67.846  1.00  0.00    -0.229 OA 
BRANCH  14  18
ATOM     18  C5*   T A   1     -12.363  13.565  66.223  1.00  0.00    -0.383 C  
ATOM     19  O5*   T A   1     -12.787  14.283  65.065  1.00  0.00    -0.674 OA 
ATOM     20  H5*   T A   1     -13.604  13.940  64.722  1.00  0.00     0.000 HD 
ENDBRANCH  14  18
ENDBRANCH   4  11
TORSDOF 2
ENDMDL
MODEL      104
REMARK 921   NORMALIZED FREE ENERGY PREDICTED BY IDOCK:   -4.06 KCAL/MOL
REMARK 922        TOTAL FREE ENERGY PREDICTED BY IDOCK:   -4.86 KCAL/MOL
REMARK 923 INTER-LIGAND FREE ENERGY PREDICTED BY IDOCK:   -4.87 KCAL/MOL
REMARK 924 INTRA-LIGAND FREE ENERGY PREDICTED BY IDOCK:    0.01 KCAL/MOL
REMARK 927      BINDING AFFINITY PREDICTED BY RF-SCORE:    0.00 PKD
ROOT
ATOM      1  C5M   T A   1      -6.552  13.350  67.672  1.00  0.00    -0.174 C  
ATOM      2  C5    T A   1      -7.967  13.140  67.243  1.00  0.00    -0.140 C  
ATOM      3  C6    T A   1      -8.868  14.116  67.084  1.00  0.00    -0.229 C  
ATOM      4  N1    T A   1     -10.192  13.881  66.725  1.00  0.00    -0.264 N  
ATOM      5  O4    T A   1      -7.689  10.788  67.258  1.00  0.00    -0.104 OA 
ATOM      6  C2    T A   1     -10.653  12.572  66.627  1.00  0.00    -0.237 C  
ATOM      7  O2    T A   1     -11.835  12.240  66.617  1.00  0.00    -0.536 OA 
ATOM      8  H3    T A   1      -9.949  10.702  66.171  1.00  0.00     0.000 HD 
ATOM      9  N3    T A   1      -9.690  11.602  66.574  1.00  0.00    -0.201 N  
ATOM     10  C4    T A   1      -8.410  11.748  67.018  1.00  0.00    -0.172 C  
ENDROOT
BRANCH   4  11
ATOM     11  C1*   T A   1     -11.151  14.998  66.792  1.00  0.00    -0.326 C  
ATOM     12  C2*   T A   1     -10.630  16.396  67.120  1.00  0.00    -0.276 C  
ATOM     13  C3*   T A   1     -10.604  16.390  68.626  1.00  0.00    -0.305 C  
ATOM     14  C4*   T A   1     -11.893  15.641  68.937  1.00  0.00    -0.352 C  
ATOM     15  O3*   T A   1     -10.585  17.695  69.184  1.00  0.00    -0.403 OA 
ATOM     16  H3*   T A   1     -10.568  17.690  70.134  1.00  0.00     0.000 HD 
ATOM     17  O4*   T A   1     -12.110  14.715  67.846  1.00  0.00    -0.304 OA 
BRANCH  14  18
ATOM     18  C5*   T A   1     -11.852  14.890  70.268  1.00  0.00    -0.307 C  
ATOM     19  O5*   T A   1     -10.593  15.049  70.919  1.00  0.00    -0.533 OA 
ATOM     20  H5*   T A   1     -10.567  14.582  71.746  1.00  0.00     0.000 HD 
ENDBRANCH  14  18
ENDBRANCH   4  11
TORSDOF 2
ENDMDL
MODEL      105
REMARK 921   NORMALIZED FREE ENERGY PREDICTED BY IDOCK:   -4.06 KCAL/MOL
REMARK 922        TOTAL FREE ENERGY PREDICTED BY IDOCK:   -4.86 KCAL/MOL
REMARK 923 INTER-LIGAND FREE ENERGY PREDICTED BY IDOCK:   -4.97 KCAL/MOL
REMARK 924 INTRA-LIGAND FREE ENERGY PREDICTED BY IDOCK:    0.11 KCAL/MOL
REMARK 927      BINDING AFFINITY PREDICTED BY RF-SCORE:    0.00 PKD
ROOT
ATOM      1  C5M   T A   1     -10.711  16.639  69.386  1.00  0.00    -0.331 C  
ATOM      2  C5    T A   1     -10.961  15.738  68.222  1.00  0.00    -0.325 C  
ATOM      3  C6    T A   1     -11.365  14.466  68.316  1.00  0.00    -0.287 C  
ATOM      4  N1    T A   1     -11.547  13.640  67.211  1.00  0.00    -0.335 N  
ATOM      5  O4    T A   1     -10.218  17.394  66.700  1.00  0.00    -0.305 OA 
ATOM      6  C2    T A   1     -11.196  14.100  65.946  1.00  0.00    -0.313 C  
ATOM      7  O2    T A   1     -11.025  13.390  64.959  1.00  0.00    -0.293 OA 
ATOM      8  H3    T A   1     -11.078  15.863  64.906  1.00  0.00     0.000 HD 
ATOM      9  N3    T A   1     -10.999  15.450  65.836  1.00  0.00    -0.318 N  
ATOM     10  C4    T A   1     -10.705  16.283  66.872  1.00  0.00    -0.217 C  
ENDROOT
BRANCH   4  11
ATOM     11  C1*   T A   1     -11.777  12.201  67.434  1.00  0.00    -0.304 C  
ATOM     12  C2*   T A   1     -11.485  11.615  68.814  1.00  0.00    -0.346 C  
ATOM     13  C3*   T A   1     -10.009  11.319  68.736  1.00  0.00    -0.193 C  
ATOM     14  C4*   T A   1      -9.893  10.787  67.315  1.00  0.00    -0.179 C  
ATOM     15  O3*   T A   1      -9.583  10.375  69.708  1.00  0.00    -0.382 OA 
ATOM     16  H3*   T A   1      -8.653  10.189  69.658  1.00  0.00     0.000 HD 
ATOM     17  O4*   T A   1     -10.913  11.454  66.536  1.00  0.00    -0.282 OA 
BRANCH  14  18
ATOM     18  C5*   T A   1      -8.516  11.018  66.692  1.00  0.00    -0.153 C  
ATOM     19  O5*   T A   1      -8.307  12.394  66.380  1.00  0.00    -0.402 OA 
ATOM     20  H5*   T A   1      -7.451  12.538  65.993  1.00  0.00     0.000 HD 
ENDBRANCH  14  18
ENDBRANCH   4  11
TORSDOF 2
ENDMDL
MODEL      106
REMARK 921   NORMALIZED FREE ENERGY PREDICTED BY IDOCK:   -4.05 KCAL/MOL
REMARK 922        TOTAL FREE ENERGY PREDICTED BY IDOCK:   -4.84 KCAL/MOL
REMARK 923 INTER-LIGAND FREE ENERGY PREDICTED BY IDOCK:   -4.60 KCAL/MOL
REMARK 924 INTRA-LIGAND FREE ENERGY PREDICTED BY IDOCK:   -0.24 KCAL/MOL
REMARK 927      BINDING AFFINITY PREDICTED BY RF-SCORE:    0.00 PKD
ROOT
ATOM      1  C5M   T A   1      -9.931   6.663  66.734  1.00  0.00    -0.238 C  
ATOM      2  C5    T A   1     -10.282   7.602  67.841  1.00  0.00    -0.250 C  
ATOM      3  C6    T A   1     -10.132   8.931  67.790  1.00  0.00    -0.210 C  
ATOM      4  N1    T A   1     -10.428   9.773  68.858  1.00  0.00    -0.207 N  
ATOM      5  O4    T A   1     -10.845   5.802  69.274  1.00  0.00    -0.311 OA 
ATOM      6  C2    T A   1     -10.794   9.225  70.083  1.00  0.00    -0.242 C  
ATOM      7  O2    T A   1     -10.786   9.823  71.154  1.00  0.00    -0.334 OA 
ATOM      8  H3    T A   1     -11.735   7.562  70.827  1.00  0.00     0.000 HD 
ATOM      9  N3    T A   1     -11.153   7.905  70.062  1.00  0.00    -0.211 N  
ATOM     10  C4    T A   1     -10.793   7.013  69.097  1.00  0.00    -0.195 C  
ENDROOT
BRANCH   4  11
ATOM     11  C1*   T A   1     -10.022  11.188  68.775  1.00  0.00    -0.198 C  
ATOM     12  C2*   T A   1     -11.097  12.268  68.873  1.00  0.00    -0.291 C  
ATOM     13  C3*   T A   1     -11.583  12.374  67.451  1.00  0.00    -0.365 C  
ATOM     14  C4*   T A   1     -10.273  12.251  66.685  1.00  0.00    -0.216 C  
ATOM     15  O3*   T A   1     -12.256  13.596  67.186  1.00  0.00    -0.372 OA 
ATOM     16  H3*   T A   1     -12.562  13.662  66.289  1.00  0.00     0.000 HD 
ATOM     17  O4*   T A   1      -9.403  11.412  67.480  1.00  0.00    -0.161 OA 
BRANCH  14  18
ATOM     18  C5*   T A   1     -10.443  11.661  65.284  1.00  0.00    -0.273 C  
ATOM     19  O5*   T A   1      -9.685  12.385  64.317  1.00  0.00    -0.524 OA 
ATOM     20  H5*   T A   1      -9.791  12.019  63.446  1.00  0.00     0.000 HD 
ENDBRANCH  14  18
ENDBRANCH   4  11
TORSDOF 2
ENDMDL
MODEL      107
REMARK 921   NORMALIZED FREE ENERGY PREDICTED BY IDOCK:   -4.04 KCAL/MOL
REMARK 922        TOTAL FREE ENERGY PREDICTED BY IDOCK:   -4.83 KCAL/MOL
REMARK 923 INTER-LIGAND FREE ENERGY PREDICTED BY IDOCK:   -4.95 KCAL/MOL
REMARK 924 INTRA-LIGAND FREE ENERGY PREDICTED BY IDOCK:    0.11 KCAL/MOL
REMARK 927      BINDING AFFINITY PREDICTED BY RF-SCORE:    0.00 PKD
ROOT
ATOM      1  C5M   T A   1      -6.089  20.031  70.619  1.00  0.00    -0.350 C  
ATOM      2  C5    T A   1      -6.086  18.965  69.574  1.00  0.00    -0.291 C  
ATOM      3  C6    T A   1      -6.537  19.121  68.324  1.00  0.00    -0.244 C  
ATOM      4  N1    T A   1      -6.560  18.092  67.387  1.00  0.00    -0.183 N  
ATOM      5  O4    T A   1      -5.269  17.365  71.118  1.00  0.00    -0.293 OA 
ATOM      6  C2    T A   1      -6.206  16.804  67.774  1.00  0.00    -0.144 C  
ATOM      7  O2    T A   1      -6.466  15.782  67.147  1.00  0.00    -0.282 OA 
ATOM      8  H3    T A   1      -4.984  15.865  69.126  1.00  0.00     0.000 HD 
ATOM      9  N3    T A   1      -5.547  16.701  68.969  1.00  0.00    -0.132 N  
ATOM     10  C4    T A   1      -5.585  17.630  69.964  1.00  0.00    -0.247 C  
ENDROOT
BRANCH   4  11
ATOM     11  C1*   T A   1      -7.277  18.309  66.117  1.00  0.00    -0.266 C  
ATOM     12  C2*   T A   1      -7.867  19.689  65.832  1.00  0.00    -0.295 C  
ATOM     13  C3*   T A   1      -9.205  19.621  66.521  1.00  0.00    -0.378 C  
ATOM     14  C4*   T A   1      -9.632  18.198  66.187  1.00  0.00    -0.170 C  
ATOM     15  O3*   T A   1     -10.123  20.591  66.042  1.00  0.00    -0.547 OA 
ATOM     16  H3*   T A   1     -10.967  20.548  66.477  1.00  0.00     0.000 HD 
ATOM     17  O4*   T A   1      -8.421  17.414  66.078  1.00  0.00    -0.503 OA 
BRANCH  14  18
ATOM     18  C5*   T A   1     -10.567  17.585  67.231  1.00  0.00    -0.287 C  
ATOM     19  O5*   T A   1     -10.478  18.271  68.479  1.00  0.00    -0.336 OA 
ATOM     20  H5*   T A   1     -11.058  17.890  69.127  1.00  0.00     0.000 HD 
ENDBRANCH  14  18
ENDBRANCH   4  11
TORSDOF 2
ENDMDL
MODEL      108
REMARK 921   NORMALIZED FREE ENERGY PREDICTED BY IDOCK:   -4.02 KCAL/MOL
REMARK 922        TOTAL FREE ENERGY PREDICTED BY IDOCK:   -4.82 KCAL/MOL
REMARK 923 INTER-LIGAND FREE ENERGY PREDICTED BY IDOCK:   -4.83 KCAL/MOL
REMARK 924 INTRA-LIGAND FREE ENERGY PREDICTED BY IDOCK:    0.02 KCAL/MOL
REMARK 927      BINDING AFFINITY PREDICTED BY RF-SCORE:    0.00 PKD
ROOT
ATOM      1  C5M   T A   1     -12.139  15.248  70.888  1.00  0.00    -0.396 C  
ATOM      2  C5    T A   1     -12.020  14.468  69.620  1.00  0.00    -0.375 C  
ATOM      3  C6    T A   1     -12.127  13.138  69.530  1.00  0.00    -0.238 C  
ATOM      4  N1    T A   1     -11.966  12.438  68.337  1.00  0.00    -0.292 N  
ATOM      5  O4    T A   1     -11.486  16.424  68.394  1.00  0.00    -0.338 OA 
ATOM      6  C2    T A   1     -11.568  13.119  67.192  1.00  0.00    -0.361 C  
ATOM      7  O2    T A   1     -11.109  12.593  66.182  1.00  0.00    -0.275 OA 
ATOM      8  H3    T A   1     -11.726  14.983  66.353  1.00  0.00     0.000 HD 
ATOM      9  N3    T A   1     -11.675  14.482  67.240  1.00  0.00    -0.396 N  
ATOM     10  C4    T A   1     -11.721  15.222  68.383  1.00  0.00    -0.321 C  
ENDROOT
BRANCH   4  11
ATOM     11  C1*   T A   1     -11.885  10.967  68.386  1.00  0.00    -0.184 C  
ATOM     12  C2*   T A   1     -11.998  10.270  69.740  1.00  0.00    -0.176 C  
ATOM     13  C3*   T A   1     -10.581  10.318  70.252  1.00  0.00    -0.204 C  
ATOM     14  C4*   T A   1      -9.801  10.032  68.976  1.00  0.00    -0.199 C  
ATOM     15  O3*   T A   1     -10.328   9.362  71.270  1.00  0.00    -0.317 OA 
ATOM     16  H3*   T A   1      -9.435   9.393  71.592  1.00  0.00     0.000 HD 
ATOM     17  O4*   T A   1     -10.584  10.564  67.881  1.00  0.00    -0.197 OA 
BRANCH  14  18
ATOM     18  C5*   T A   1      -8.401  10.645  68.972  1.00  0.00    -0.152 C  
ATOM     19  O5*   T A   1      -7.730  10.424  70.212  1.00  0.00    -0.414 OA 
ATOM     20  H5*   T A   1      -6.859  10.806  70.209  1.00  0.00     0.000 HD 
ENDBRANCH  14  18
ENDBRANCH   4  11
TORSDOF 2
ENDMDL
MODEL      109
REMARK 921   NORMALIZED FREE ENERGY PREDICTED BY IDOCK:   -4.02 KCAL/MOL
REMARK 922        TOTAL FREE ENERGY PREDICTED BY IDOCK:   -4.81 KCAL/MOL
REMARK 923 INTER-LIGAND FREE ENERGY PREDICTED BY IDOCK:   -4.76 KCAL/MOL
REMARK 924 INTRA-LIGAND FREE ENERGY PREDICTED BY IDOCK:   -0.05 KCAL/MOL
REMARK 927      BINDING AFFINITY PREDICTED BY RF-SCORE:    0.00 PKD
ROOT
ATOM      1  C5M   T A   1      -6.982  15.879  68.942  1.00  0.00    -0.143 C  
ATOM      2  C5    T A   1      -8.119  16.088  67.996  1.00  0.00    -0.148 C  
ATOM      3  C6    T A   1      -9.116  15.217  67.798  1.00  0.00    -0.182 C  
ATOM      4  N1    T A   1     -10.137  15.424  66.876  1.00  0.00    -0.253 N  
ATOM      5  O4    T A   1      -7.185  18.123  67.223  1.00  0.00    -0.195 OA 
ATOM      6  C2    T A   1     -10.085  16.529  66.032  1.00  0.00    -0.348 C  
ATOM      7  O2    T A   1     -10.740  16.661  65.001  1.00  0.00    -0.677 OA 
ATOM      8  H3    T A   1      -9.363  18.447  66.018  1.00  0.00     0.000 HD 
ATOM      9  N3    T A   1      -9.200  17.510  66.387  1.00  0.00    -0.263 N  
ATOM     10  C4    T A   1      -8.119  17.330  67.195  1.00  0.00    -0.203 C  
ENDROOT
BRANCH   4  11
ATOM     11  C1*   T A   1     -11.057  14.311  66.577  1.00  0.00    -0.323 C  
ATOM     12  C2*   T A   1     -12.023  13.844  67.665  1.00  0.00    -0.403 C  
ATOM     13  C3*   T A   1     -11.182  12.876  68.455  1.00  0.00    -0.274 C  
ATOM     14  C4*   T A   1     -10.423  12.170  67.339  1.00  0.00    -0.213 C  
ATOM     15  O3*   T A   1     -11.957  11.981  69.237  1.00  0.00    -0.302 OA 
ATOM     16  H3*   T A   1     -11.427  11.370  69.735  1.00  0.00     0.000 HD 
ATOM     17  O4*   T A   1     -10.264  13.133  66.271  1.00  0.00    -0.280 OA 
BRANCH  14  18
ATOM     18  C5*   T A   1      -9.060  11.635  67.777  1.00  0.00    -0.175 C  
ATOM     19  O5*   T A   1      -8.977  11.516  69.197  1.00  0.00    -0.380 OA 
ATOM     20  H5*   T A   1      -8.129  11.183  69.469  1.00  0.00     0.000 HD 
ENDBRANCH  14  18
ENDBRANCH   4  11
TORSDOF 2
ENDMDL
MODEL      110
REMARK 921   NORMALIZED FREE ENERGY PREDICTED BY IDOCK:   -3.99 KCAL/MOL
REMARK 922        TOTAL FREE ENERGY PREDICTED BY IDOCK:   -4.78 KCAL/MOL
REMARK 923 INTER-LIGAND FREE ENERGY PREDICTED BY IDOCK:   -4.68 KCAL/MOL
REMARK 924 INTRA-LIGAND FREE ENERGY PREDICTED BY IDOCK:   -0.10 KCAL/MOL
REMARK 927      BINDING AFFINITY PREDICTED BY RF-SCORE:    0.00 PKD
ROOT
ATOM      1  C5M   T A   1      -6.927  12.471  68.260  1.00  0.00    -0.089 C  
ATOM      2  C5    T A   1      -8.355  12.073  68.084  1.00  0.00    -0.165 C  
ATOM      3  C6    T A   1      -9.249  12.742  67.347  1.00  0.00    -0.193 C  
ATOM      4  N1    T A   1     -10.584  12.367  67.240  1.00  0.00    -0.221 N  
ATOM      5  O4    T A   1      -8.105  10.272  69.603  1.00  0.00    -0.166 OA 
ATOM      6  C2    T A   1     -11.064  11.313  68.012  1.00  0.00    -0.266 C  
ATOM      7  O2    T A   1     -12.249  11.084  68.233  1.00  0.00    -0.582 OA 
ATOM      8  H3    T A   1     -10.395   9.568  68.854  1.00  0.00     0.000 HD 
ATOM      9  N3    T A   1     -10.114  10.510  68.581  1.00  0.00    -0.171 N  
ATOM     10  C4    T A   1      -8.821  10.873  68.811  1.00  0.00    -0.161 C  
ENDROOT
BRANCH   4  11
ATOM     11  C1*   T A   1     -11.528  13.292  66.587  1.00  0.00    -0.347 C  
ATOM     12  C2*   T A   1     -11.022  14.176  65.449  1.00  0.00    -0.328 C  
ATOM     13  C3*   T A   1     -10.447  15.358  66.186  1.00  0.00    -0.316 C  
ATOM     14  C4*   T A   1     -11.478  15.542  67.291  1.00  0.00    -0.102 C  
ATOM     15  O3*   T A   1     -10.316  16.510  65.366  1.00  0.00    -0.558 OA 
ATOM     16  H3*   T A   1      -9.954  17.255  65.831  1.00  0.00     0.000 HD 
ATOM     17  O4*   T A   1     -12.013  14.230  67.583  1.00  0.00    -0.383 OA 
BRANCH  14  18
ATOM     18  C5*   T A   1     -10.902  16.174  68.558  1.00  0.00    -0.313 C  
ATOM     19  O5*   T A   1     -10.267  17.421  68.279  1.00  0.00    -0.319 OA 
ATOM     20  H5*   T A   1      -9.909  17.813  69.067  1.00  0.00     0.000 HD 
ENDBRANCH  14  18
ENDBRANCH   4  11
TORSDOF 2
ENDMDL
MODEL      111
REMARK 921   NORMALIZED FREE ENERGY PREDICTED BY IDOCK:   -3.98 KCAL/MOL
REMARK 922        TOTAL FREE ENERGY PREDICTED BY IDOCK:   -4.77 KCAL/MOL
REMARK 923 INTER-LIGAND FREE ENERGY PREDICTED BY IDOCK:   -4.66 KCAL/MOL
REMARK 924 INTRA-LIGAND FREE ENERGY PREDICTED BY IDOCK:   -0.11 KCAL/MOL
REMARK 927      BINDING AFFINITY PREDICTED BY RF-SCORE:    0.00 PKD
ROOT
ATOM      1  C5M   T A   1      -7.534   9.809  69.041  1.00  0.00    -0.080 C  
ATOM      2  C5    T A   1      -8.971  10.128  69.289  1.00  0.00    -0.193 C  
ATOM      3  C6    T A   1      -9.729  10.898  68.499  1.00  0.00    -0.183 C  
ATOM      4  N1    T A   1     -11.055  11.211  68.784  1.00  0.00    -0.214 N  
ATOM      5  O4    T A   1      -8.936   8.973  71.357  1.00  0.00    -0.227 OA 
ATOM      6  C2    T A   1     -11.610  10.806  69.993  1.00  0.00    -0.334 C  
ATOM      7  O2    T A   1     -12.638  11.262  70.485  1.00  0.00    -0.291 OA 
ATOM      8  H3    T A   1     -11.425   9.293  71.364  1.00  0.00     0.000 HD 
ATOM      9  N3    T A   1     -10.913   9.850  70.680  1.00  0.00    -0.318 N  
ATOM     10  C4    T A   1      -9.587   9.584  70.518  1.00  0.00    -0.251 C  
ENDROOT
BRANCH   4  11
ATOM     11  C1*   T A   1     -11.729  12.239  67.971  1.00  0.00    -0.356 C  
ATOM     12  C2*   T A   1     -11.469  12.273  66.466  1.00  0.00    -0.438 C  
ATOM     13  C3*   T A   1     -10.207  13.091  66.370  1.00  0.00    -0.280 C  
ATOM     14  C4*   T A   1     -10.472  14.159  67.422  1.00  0.00    -0.271 C  
ATOM     15  O3*   T A   1     -10.001  13.639  65.077  1.00  0.00    -0.549 OA 
ATOM     16  H3*   T A   1      -9.205  14.155  65.018  1.00  0.00     0.000 HD 
ATOM     17  O4*   T A   1     -11.299  13.546  68.439  1.00  0.00    -0.257 OA 
BRANCH  14  18
ATOM     18  C5*   T A   1      -9.195  14.723  68.048  1.00  0.00    -0.194 C  
ATOM     19  O5*   T A   1      -8.074  14.563  67.180  1.00  0.00    -0.225 OA 
ATOM     20  H5*   T A   1      -7.281  14.913  67.569  1.00  0.00     0.000 HD 
ENDBRANCH  14  18
ENDBRANCH   4  11
TORSDOF 2
ENDMDL
MODEL      112
REMARK 921   NORMALIZED FREE ENERGY PREDICTED BY IDOCK:   -3.98 KCAL/MOL
REMARK 922        TOTAL FREE ENERGY PREDICTED BY IDOCK:   -4.77 KCAL/MOL
REMARK 923 INTER-LIGAND FREE ENERGY PREDICTED BY IDOCK:   -4.33 KCAL/MOL
REMARK 924 INTRA-LIGAND FREE ENERGY PREDICTED BY IDOCK:   -0.44 KCAL/MOL
REMARK 927      BINDING AFFINITY PREDICTED BY RF-SCORE:    0.00 PKD
ROOT
ATOM      1  C5M   T A   1      -8.125   5.762  68.824  1.00  0.00    -0.102 C  
ATOM      2  C5    T A   1      -9.317   6.445  69.412  1.00  0.00    -0.143 C  
ATOM      3  C6    T A   1      -9.497   7.770  69.445  1.00  0.00    -0.156 C  
ATOM      4  N1    T A   1     -10.600   8.375  70.040  1.00  0.00    -0.232 N  
ATOM      5  O4    T A   1     -10.209   4.381  70.158  1.00  0.00    -0.180 OA 
ATOM      6  C2    T A   1     -11.519   7.594  70.734  1.00  0.00    -0.277 C  
ATOM      7  O2    T A   1     -12.344   8.021  71.537  1.00  0.00    -0.295 OA 
ATOM      8  H3    T A   1     -12.278   5.690  70.711  1.00  0.00     0.000 HD 
ATOM      9  N3    T A   1     -11.447   6.246  70.509  1.00  0.00    -0.365 N  
ATOM     10  C4    T A   1     -10.351   5.591  70.035  1.00  0.00    -0.288 C  
ENDROOT
BRANCH   4  11
ATOM     11  C1*   T A   1     -10.594   9.838  70.218  1.00  0.00    -0.292 C  
ATOM     12  C2*   T A   1     -11.786  10.645  69.707  1.00  0.00    -0.377 C  
ATOM     13  C3*   T A   1     -11.435  10.867  68.259  1.00  0.00    -0.305 C  
ATOM     14  C4*   T A   1      -9.940  11.136  68.359  1.00  0.00    -0.187 C  
ATOM     15  O3*   T A   1     -12.145  11.949  67.677  1.00  0.00    -0.568 OA 
ATOM     16  H3*   T A   1     -11.924  12.088  66.764  1.00  0.00     0.000 HD 
ATOM     17  O4*   T A   1      -9.456  10.382  69.496  1.00  0.00    -0.205 OA 
BRANCH  14  18
ATOM     18  C5*   T A   1      -9.168  10.747  67.099  1.00  0.00    -0.147 C  
ATOM     19  O5*   T A   1      -9.777  11.285  65.926  1.00  0.00    -0.207 OA 
ATOM     20  H5*   T A   1      -9.297  11.043  65.142  1.00  0.00     0.000 HD 
ENDBRANCH  14  18
ENDBRANCH   4  11
TORSDOF 2
ENDMDL
MODEL      113
REMARK 921   NORMALIZED FREE ENERGY PREDICTED BY IDOCK:   -3.97 KCAL/MOL
REMARK 922        TOTAL FREE ENERGY PREDICTED BY IDOCK:   -4.76 KCAL/MOL
REMARK 923 INTER-LIGAND FREE ENERGY PREDICTED BY IDOCK:   -4.56 KCAL/MOL
REMARK 924 INTRA-LIGAND FREE ENERGY PREDICTED BY IDOCK:   -0.20 KCAL/MOL
REMARK 927      BINDING AFFINITY PREDICTED BY RF-SCORE:    0.00 PKD
ROOT
ATOM      1  C5M   T A   1     -11.019   6.705  66.980  1.00  0.00    -0.463 C  
ATOM      2  C5    T A   1      -9.959   7.191  67.913  1.00  0.00    -0.186 C  
ATOM      3  C6    T A   1     -10.192   7.751  69.106  1.00  0.00    -0.208 C  
ATOM      4  N1    T A   1      -9.181   8.234  69.932  1.00  0.00    -0.154 N  
ATOM      5  O4    T A   1      -8.258   6.692  66.342  1.00  0.00    -0.109 OA 
ATOM      6  C2    T A   1      -7.868   8.244  69.474  1.00  0.00    -0.103 C  
ATOM      7  O2    T A   1      -6.954   8.900  69.965  1.00  0.00    -0.041 OA 
ATOM      8  H3    T A   1      -6.652   7.189  68.205  1.00  0.00     0.000 HD 
ATOM      9  N3    T A   1      -7.616   7.480  68.367  1.00  0.00    -0.111 N  
ATOM     10  C4    T A   1      -8.555   7.078  67.466  1.00  0.00    -0.121 C  
ENDROOT
BRANCH   4  11
ATOM     11  C1*   T A   1      -9.555   9.028  71.116  1.00  0.00    -0.286 C  
ATOM     12  C2*   T A   1      -9.339   8.425  72.503  1.00  0.00    -0.346 C  
ATOM     13  C3*   T A   1     -10.593   7.617  72.708  1.00  0.00    -0.325 C  
ATOM     14  C4*   T A   1     -11.640   8.546  72.110  1.00  0.00    -0.377 C  
ATOM     15  O3*   T A   1     -10.844   7.321  74.073  1.00  0.00    -0.556 OA 
ATOM     16  H3*   T A   1     -11.635   6.811  74.202  1.00  0.00     0.000 HD 
ATOM     17  O4*   T A   1     -10.983   9.292  71.058  1.00  0.00    -0.265 OA 
BRANCH  14  18
ATOM     18  C5*   T A   1     -12.859   7.809  71.554  1.00  0.00    -0.329 C  
ATOM     19  O5*   T A   1     -13.830   8.719  71.040  1.00  0.00    -0.582 OA 
ATOM     20  H5*   T A   1     -14.588   8.261  70.695  1.00  0.00     0.000 HD 
ENDBRANCH  14  18
ENDBRANCH   4  11
TORSDOF 2
ENDMDL
MODEL      114
REMARK 921   NORMALIZED FREE ENERGY PREDICTED BY IDOCK:   -3.96 KCAL/MOL
REMARK 922        TOTAL FREE ENERGY PREDICTED BY IDOCK:   -4.74 KCAL/MOL
REMARK 923 INTER-LIGAND FREE ENERGY PREDICTED BY IDOCK:   -5.64 KCAL/MOL
REMARK 924 INTRA-LIGAND FREE ENERGY PREDICTED BY IDOCK:    0.90 KCAL/MOL
REMARK 927      BINDING AFFINITY PREDICTED BY RF-SCORE:    0.00 PKD
ROOT
ATOM      1  C5M   T A   1     -12.195  11.661  69.903  1.00  0.00    -0.310 C  
ATOM      2  C5    T A   1     -11.768  13.077  69.703  1.00  0.00    -0.364 C  
ATOM      3  C6    T A   1     -10.962  13.499  68.722  1.00  0.00    -0.261 C  
ATOM      4  N1    T A   1     -10.548  14.821  68.591  1.00  0.00    -0.247 N  
ATOM      5  O4    T A   1     -12.878  13.758  71.682  1.00  0.00    -0.341 OA 
ATOM      6  C2    T A   1     -10.885  15.746  69.574  1.00  0.00    -0.287 C  
ATOM      7  O2    T A   1     -10.345  16.838  69.731  1.00  0.00    -0.198 OA 
ATOM      8  H3    T A   1     -12.377  16.101  70.933  1.00  0.00     0.000 HD 
ATOM      9  N3    T A   1     -11.875  15.364  70.438  1.00  0.00    -0.306 N  
ATOM     10  C4    T A   1     -12.240  14.076  70.686  1.00  0.00    -0.372 C  
ENDROOT
BRANCH   4  11
ATOM     11  C1*   T A   1      -9.490  15.137  67.613  1.00  0.00    -0.201 C  
ATOM     12  C2*   T A   1      -8.896  16.544  67.602  1.00  0.00    -0.195 C  
ATOM     13  C3*   T A   1      -9.864  17.300  66.729  1.00  0.00    -0.294 C  
ATOM     14  C4*   T A   1     -10.153  16.265  65.650  1.00  0.00    -0.312 C  
ATOM     15  O3*   T A   1      -9.313  18.497  66.201  1.00  0.00    -0.458 OA 
ATOM     16  H3*   T A   1      -9.923  18.973  65.650  1.00  0.00     0.000 HD 
ATOM     17  O4*   T A   1     -10.036  14.966  66.278  1.00  0.00    -0.255 OA 
BRANCH  14  18
ATOM     18  C5*   T A   1     -11.534  16.423  65.014  1.00  0.00     0.118 C  
ATOM     19  O5*   T A   1     -11.469  16.321  63.592  1.00  0.00    -1.361 OA 
ATOM     20  H5*   T A   1     -12.328  16.420  63.196  1.00  0.00     0.000 HD 
ENDBRANCH  14  18
ENDBRANCH   4  11
TORSDOF 2
ENDMDL
MODEL      115
REMARK 921   NORMALIZED FREE ENERGY PREDICTED BY IDOCK:   -3.95 KCAL/MOL
REMARK 922        TOTAL FREE ENERGY PREDICTED BY IDOCK:   -4.73 KCAL/MOL
REMARK 923 INTER-LIGAND FREE ENERGY PREDICTED BY IDOCK:   -4.30 KCAL/MOL
REMARK 924 INTRA-LIGAND FREE ENERGY PREDICTED BY IDOCK:   -0.44 KCAL/MOL
REMARK 927      BINDING AFFINITY PREDICTED BY RF-SCORE:    0.00 PKD
ROOT
ATOM      1  C5M   T A   1      -8.930  15.214  68.910  1.00  0.00    -0.206 C  
ATOM      2  C5    T A   1      -9.807  14.495  67.938  1.00  0.00    -0.222 C  
ATOM      3  C6    T A   1      -9.437  13.425  67.225  1.00  0.00    -0.234 C  
ATOM      4  N1    T A   1     -10.265  12.804  66.295  1.00  0.00    -0.249 N  
ATOM      5  O4    T A   1     -11.545  16.075  68.239  1.00  0.00    -0.338 OA 
ATOM      6  C2    T A   1     -11.501  13.368  65.994  1.00  0.00    -0.326 C  
ATOM      7  O2    T A   1     -12.177  13.101  65.004  1.00  0.00    -0.388 OA 
ATOM      8  H3    T A   1     -12.957  14.499  66.890  1.00  0.00     0.000 HD 
ATOM      9  N3    T A   1     -11.954  14.315  66.872  1.00  0.00    -0.433 N  
ATOM     10  C4    T A   1     -11.167  15.031  67.722  1.00  0.00    -0.321 C  
ENDROOT
BRANCH   4  11
ATOM     11  C1*   T A   1      -9.689  11.777  65.409  1.00  0.00    -0.217 C  
ATOM     12  C2*   T A   1     -10.404  10.433  65.278  1.00  0.00    -0.267 C  
ATOM     13  C3*   T A   1      -9.862   9.659  66.452  1.00  0.00    -0.244 C  
ATOM     14  C4*   T A   1      -8.400  10.086  66.432  1.00  0.00    -0.126 C  
ATOM     15  O3*   T A   1     -10.021   8.256  66.309  1.00  0.00    -0.414 OA 
ATOM     16  H3*   T A   1      -9.679   7.768  67.049  1.00  0.00     0.000 HD 
ATOM     17  O4*   T A   1      -8.367  11.433  65.906  1.00  0.00    -0.094 OA 
BRANCH  14  18
ATOM     18  C5*   T A   1      -7.737  10.039  67.809  1.00  0.00    -0.090 C  
ATOM     19  O5*   T A   1      -8.544   9.339  68.754  1.00  0.00    -0.127 OA 
ATOM     20  H5*   T A   1      -8.132   9.310  69.610  1.00  0.00     0.000 HD 
ENDBRANCH  14  18
ENDBRANCH   4  11
TORSDOF 2
ENDMDL
MODEL      116
REMARK 921   NORMALIZED FREE ENERGY PREDICTED BY IDOCK:   -3.95 KCAL/MOL
REMARK 922        TOTAL FREE ENERGY PREDICTED BY IDOCK:   -4.73 KCAL/MOL
REMARK 923 INTER-LIGAND FREE ENERGY PREDICTED BY IDOCK:   -4.27 KCAL/MOL
REMARK 924 INTRA-LIGAND FREE ENERGY PREDICTED BY IDOCK:   -0.46 KCAL/MOL
REMARK 927      BINDING AFFINITY PREDICTED BY RF-SCORE:    0.00 PKD
ROOT
ATOM      1  C5M   T A   1      -8.764   3.636  72.668  1.00  0.00    -0.102 C  
ATOM      2  C5    T A   1      -9.704   4.592  72.012  1.00  0.00    -0.229 C  
ATOM      3  C6    T A   1      -9.546   5.095  70.782  1.00  0.00    -0.179 C  
ATOM      4  N1    T A   1     -10.419   6.019  70.217  1.00  0.00    -0.222 N  
ATOM      5  O4    T A   1     -11.029   4.731  73.971  1.00  0.00    -0.293 OA 
ATOM      6  C2    T A   1     -11.453   6.543  70.986  1.00  0.00    -0.336 C  
ATOM      7  O2    T A   1     -12.089   7.558  70.716  1.00  0.00    -0.259 OA 
ATOM      8  H3    T A   1     -12.663   6.000  72.549  1.00  0.00     0.000 HD 
ATOM      9  N3    T A   1     -11.736   5.871  72.144  1.00  0.00    -0.271 N  
ATOM     10  C4    T A   1     -10.873   5.044  72.797  1.00  0.00    -0.244 C  
ENDROOT
BRANCH   4  11
ATOM     11  C1*   T A   1     -10.036   6.673  68.953  1.00  0.00    -0.152 C  
ATOM     12  C2*   T A   1     -11.003   6.613  67.772  1.00  0.00    -0.367 C  
ATOM     13  C3*   T A   1     -10.661   5.290  67.137  1.00  0.00    -0.155 C  
ATOM     14  C4*   T A   1      -9.144   5.289  67.263  1.00  0.00    -0.112 C  
ATOM     15  O3*   T A   1     -11.095   5.196  65.789  1.00  0.00    -0.779 OA 
ATOM     16  H3*   T A   1     -10.880   4.361  65.389  1.00  0.00     0.000 HD 
ATOM     17  O4*   T A   1      -8.825   6.039  68.459  1.00  0.00    -0.113 OA 
BRANCH  14  18
ATOM     18  C5*   T A   1      -8.543   3.885  67.343  1.00  0.00    -0.102 C  
ATOM     19  O5*   T A   1      -9.491   2.889  66.963  1.00  0.00    -0.355 OA 
ATOM     20  H5*   T A   1      -9.118   2.016  67.013  1.00  0.00     0.000 HD 
ENDBRANCH  14  18
ENDBRANCH   4  11
TORSDOF 2
ENDMDL
MODEL      117
REMARK 921   NORMALIZED FREE ENERGY PREDICTED BY IDOCK:   -3.92 KCAL/MOL
REMARK 922        TOTAL FREE ENERGY PREDICTED BY IDOCK:   -4.70 KCAL/MOL
REMARK 923 INTER-LIGAND FREE ENERGY PREDICTED BY IDOCK:   -4.66 KCAL/MOL
REMARK 924 INTRA-LIGAND FREE ENERGY PREDICTED BY IDOCK:   -0.04 KCAL/MOL
REMARK 927      BINDING AFFINITY PREDICTED BY RF-SCORE:    0.00 PKD
ROOT
ATOM      1  C5M   T A   1      -7.457  20.044  67.554  1.00  0.00    -0.322 C  
ATOM      2  C5    T A   1      -7.557  18.628  68.018  1.00  0.00    -0.279 C  
ATOM      3  C6    T A   1      -8.661  17.876  67.940  1.00  0.00    -0.252 C  
ATOM      4  N1    T A   1      -8.732  16.573  68.423  1.00  0.00    -0.209 N  
ATOM      5  O4    T A   1      -5.346  18.684  68.866  1.00  0.00    -0.192 OA 
ATOM      6  C2    T A   1      -7.653  16.041  69.120  1.00  0.00    -0.225 C  
ATOM      7  O2    T A   1      -7.698  15.047  69.839  1.00  0.00    -0.140 OA 
ATOM      8  H3    T A   1      -5.611  16.210  69.198  1.00  0.00     0.000 HD 
ATOM      9  N3    T A   1      -6.472  16.722  69.003  1.00  0.00    -0.182 N  
ATOM     10  C4    T A   1      -6.358  18.031  68.644  1.00  0.00    -0.211 C  
ENDROOT
BRANCH   4  11
ATOM     11  C1*   T A   1     -10.049  15.914  68.488  1.00  0.00    -0.217 C  
ATOM     12  C2*   T A   1     -10.106  14.390  68.564  1.00  0.00    -0.244 C  
ATOM     13  C3*   T A   1     -10.029  13.988  67.114  1.00  0.00    -0.252 C  
ATOM     14  C4*   T A   1     -10.912  15.049  66.471  1.00  0.00    -0.327 C  
ATOM     15  O3*   T A   1     -10.503  12.670  66.880  1.00  0.00    -0.231 OA 
ATOM     16  H3*   T A   1     -10.454  12.417  65.966  1.00  0.00     0.000 HD 
ATOM     17  O4*   T A   1     -10.786  16.242  67.279  1.00  0.00    -0.314 OA 
BRANCH  14  18
ATOM     18  C5*   T A   1     -10.536  15.350  65.020  1.00  0.00    -0.420 C  
ATOM     19  O5*   T A   1     -10.179  14.163  64.314  1.00  0.00    -0.639 OA 
ATOM     20  H5*   T A   1      -9.945  14.350  63.413  1.00  0.00     0.000 HD 
ENDBRANCH  14  18
ENDBRANCH   4  11
TORSDOF 2
ENDMDL
MODEL      118
REMARK 921   NORMALIZED FREE ENERGY PREDICTED BY IDOCK:   -3.89 KCAL/MOL
REMARK 922        TOTAL FREE ENERGY PREDICTED BY IDOCK:   -4.66 KCAL/MOL
REMARK 923 INTER-LIGAND FREE ENERGY PREDICTED BY IDOCK:   -4.21 KCAL/MOL
REMARK 924 INTRA-LIGAND FREE ENERGY PREDICTED BY IDOCK:   -0.45 KCAL/MOL
REMARK 927      BINDING AFFINITY PREDICTED BY RF-SCORE:    0.00 PKD
ROOT
ATOM      1  C5M   T A   1     -10.831  12.644  64.215  1.00  0.00    -0.411 C  
ATOM      2  C5    T A   1     -10.093  11.428  64.670  1.00  0.00    -0.330 C  
ATOM      3  C6    T A   1      -9.928  11.071  65.949  1.00  0.00    -0.240 C  
ATOM      4  N1    T A   1      -9.196   9.954  66.340  1.00  0.00    -0.153 N  
ATOM      5  O4    T A   1      -9.465  10.900  62.448  1.00  0.00    -0.247 OA 
ATOM      6  C2    T A   1      -8.504   9.218  65.384  1.00  0.00    -0.145 C  
ATOM      7  O2    T A   1      -7.604   8.418  65.624  1.00  0.00    -0.085 OA 
ATOM      8  H3    T A   1      -8.636   8.729  63.397  1.00  0.00     0.000 HD 
ATOM      9  N3    T A   1      -8.853   9.454  64.082  1.00  0.00    -0.208 N  
ATOM     10  C4    T A   1      -9.468  10.582  63.631  1.00  0.00    -0.304 C  
ENDROOT
BRANCH   4  11
ATOM     11  C1*   T A   1      -8.891   9.775  67.771  1.00  0.00    -0.129 C  
ATOM     12  C2*   T A   1      -9.326   8.482  68.460  1.00  0.00    -0.139 C  
ATOM     13  C3*   T A   1     -10.750   8.784  68.850  1.00  0.00    -0.087 C  
ATOM     14  C4*   T A   1     -10.628  10.233  69.300  1.00  0.00    -0.230 C  
ATOM     15  O3*   T A   1     -11.233   7.933  69.878  1.00  0.00    -0.419 OA 
ATOM     16  H3*   T A   1     -12.131   8.123  70.123  1.00  0.00     0.000 HD 
ATOM     17  O4*   T A   1      -9.564  10.824  68.518  1.00  0.00    -0.168 OA 
BRANCH  14  18
ATOM     18  C5*   T A   1     -11.920  11.032  69.124  1.00  0.00    -0.324 C  
ATOM     19  O5*   T A   1     -13.029  10.373  69.734  1.00  0.00    -0.592 OA 
ATOM     20  H5*   T A   1     -13.832  10.870  69.625  1.00  0.00     0.000 HD 
ENDBRANCH  14  18
ENDBRANCH   4  11
TORSDOF 2
ENDMDL
MODEL      119
REMARK 921   NORMALIZED FREE ENERGY PREDICTED BY IDOCK:   -3.88 KCAL/MOL
REMARK 922        TOTAL FREE ENERGY PREDICTED BY IDOCK:   -4.66 KCAL/MOL
REMARK 923 INTER-LIGAND FREE ENERGY PREDICTED BY IDOCK:   -4.29 KCAL/MOL
REMARK 924 INTRA-LIGAND FREE ENERGY PREDICTED BY IDOCK:   -0.38 KCAL/MOL
REMARK 927      BINDING AFFINITY PREDICTED BY RF-SCORE:    0.00 PKD
ROOT
ATOM      1  C5M   T A   1     -10.305  11.695  68.548  1.00  0.00    -0.224 C  
ATOM      2  C5    T A   1     -10.343  12.816  67.562  1.00  0.00    -0.219 C  
ATOM      3  C6    T A   1      -9.801  14.023  67.759  1.00  0.00    -0.232 C  
ATOM      4  N1    T A   1      -9.893  15.060  66.835  1.00  0.00    -0.233 N  
ATOM      5  O4    T A   1     -11.695  11.552  66.083  1.00  0.00    -0.346 OA 
ATOM      6  C2    T A   1     -10.671  14.895  65.694  1.00  0.00    -0.342 C  
ATOM      7  O2    T A   1     -11.070  15.805  64.974  1.00  0.00    -0.393 OA 
ATOM      8  H3    T A   1     -11.292  13.401  64.434  1.00  0.00     0.000 HD 
ATOM      9  N3    T A   1     -11.031  13.608  65.399  1.00  0.00    -0.291 N  
ATOM     10  C4    T A   1     -11.067  12.583  66.294  1.00  0.00    -0.295 C  
ENDROOT
BRANCH   4  11
ATOM     11  C1*   T A   1      -9.456  16.409  67.241  1.00  0.00    -0.227 C  
ATOM     12  C2*   T A   1      -8.626  17.238  66.262  1.00  0.00    -0.264 C  
ATOM     13  C3*   T A   1      -7.225  16.754  66.531  1.00  0.00    -0.243 C  
ATOM     14  C4*   T A   1      -7.249  16.619  68.047  1.00  0.00    -0.155 C  
ATOM     15  O3*   T A   1      -6.231  17.662  66.081  1.00  0.00    -0.209 OA 
ATOM     16  H3*   T A   1      -5.348  17.357  66.251  1.00  0.00     0.000 HD 
ATOM     17  O4*   T A   1      -8.608  16.282  68.413  1.00  0.00    -0.185 OA 
BRANCH  14  18
ATOM     18  C5*   T A   1      -6.280  15.561  68.577  1.00  0.00    -0.098 C  
ATOM     19  O5*   T A   1      -5.430  15.068  67.543  1.00  0.00    -0.328 OA 
ATOM     20  H5*   T A   1      -4.828  14.410  67.872  1.00  0.00     0.000 HD 
ENDBRANCH  14  18
ENDBRANCH   4  11
TORSDOF 2
ENDMDL
MODEL      120
REMARK 921   NORMALIZED FREE ENERGY PREDICTED BY IDOCK:   -3.86 KCAL/MOL
REMARK 922        TOTAL FREE ENERGY PREDICTED BY IDOCK:   -4.64 KCAL/MOL
REMARK 923 INTER-LIGAND FREE ENERGY PREDICTED BY IDOCK:   -4.48 KCAL/MOL
REMARK 924 INTRA-LIGAND FREE ENERGY PREDICTED BY IDOCK:   -0.16 KCAL/MOL
REMARK 927      BINDING AFFINITY PREDICTED BY RF-SCORE:    0.00 PKD
ROOT
ATOM      1  C5M   T A   1     -11.584  11.254  64.353  1.00  0.00     0.097 C  
ATOM      2  C5    T A   1     -10.587  11.575  65.417  1.00  0.00    -0.336 C  
ATOM      3  C6    T A   1     -10.195  12.811  65.746  1.00  0.00    -0.289 C  
ATOM      4  N1    T A   1      -9.230  13.074  66.714  1.00  0.00    -0.234 N  
ATOM      5  O4    T A   1     -10.167   9.276  65.806  1.00  0.00    -0.187 OA 
ATOM      6  C2    T A   1      -8.547  12.015  67.304  1.00  0.00    -0.177 C  
ATOM      7  O2    T A   1      -7.494  12.116  67.928  1.00  0.00    -0.099 OA 
ATOM      8  H3    T A   1      -8.845  10.048  67.795  1.00  0.00     0.000 HD 
ATOM      9  N3    T A   1      -9.098  10.776  67.127  1.00  0.00    -0.144 N  
ATOM     10  C4    T A   1      -9.960  10.440  66.127  1.00  0.00    -0.231 C  
ENDROOT
BRANCH   4  11
ATOM     11  C1*   T A   1      -8.715  14.448  66.844  1.00  0.00    -0.193 C  
ATOM     12  C2*   T A   1      -9.117  15.271  68.066  1.00  0.00    -0.176 C  
ATOM     13  C3*   T A   1     -10.440  15.857  67.644  1.00  0.00    -0.289 C  
ATOM     14  C4*   T A   1     -10.157  16.196  66.187  1.00  0.00    -0.338 C  
ATOM     15  O3*   T A   1     -10.808  16.997  68.406  1.00  0.00    -0.367 OA 
ATOM     16  H3*   T A   1     -11.642  17.366  68.140  1.00  0.00     0.000 HD 
ATOM     17  O4*   T A   1      -9.193  15.225  65.714  1.00  0.00    -0.289 OA 
BRANCH  14  18
ATOM     18  C5*   T A   1     -11.406  16.174  65.306  1.00  0.00     0.060 C  
ATOM     19  O5*   T A   1     -11.270  17.046  64.185  1.00  0.00    -1.286 OA 
ATOM     20  H5*   T A   1     -12.047  17.033  63.638  1.00  0.00     0.000 HD 
ENDBRANCH  14  18
ENDBRANCH   4  11
TORSDOF 2
ENDMDL
MODEL      121
REMARK 921   NORMALIZED FREE ENERGY PREDICTED BY IDOCK:   -3.86 KCAL/MOL
REMARK 922        TOTAL FREE ENERGY PREDICTED BY IDOCK:   -4.63 KCAL/MOL
REMARK 923 INTER-LIGAND FREE ENERGY PREDICTED BY IDOCK:   -4.45 KCAL/MOL
REMARK 924 INTRA-LIGAND FREE ENERGY PREDICTED BY IDOCK:   -0.19 KCAL/MOL
REMARK 927      BINDING AFFINITY PREDICTED BY RF-SCORE:    0.00 PKD
ROOT
ATOM      1  C5M   T A   1     -12.521  14.606  64.162  1.00  0.00    -0.180 C  
ATOM      2  C5    T A   1     -11.577  13.604  64.740  1.00  0.00    -0.374 C  
ATOM      3  C6    T A   1     -10.640  13.878  65.655  1.00  0.00    -0.301 C  
ATOM      4  N1    T A   1      -9.747  12.928  66.141  1.00  0.00    -0.266 N  
ATOM      5  O4    T A   1     -12.403  11.906  63.309  1.00  0.00    -0.545 OA 
ATOM      6  C2    T A   1      -9.735  11.652  65.586  1.00  0.00    -0.236 C  
ATOM      7  O2    T A   1      -8.823  10.839  65.707  1.00  0.00    -0.177 OA 
ATOM      8  H3    T A   1     -11.019  10.331  64.688  1.00  0.00     0.000 HD 
ATOM      9  N3    T A   1     -10.822  11.322  64.823  1.00  0.00    -0.281 N  
ATOM     10  C4    T A   1     -11.660  12.218  64.232  1.00  0.00    -0.371 C  
ENDROOT
BRANCH   4  11
ATOM     11  C1*   T A   1      -8.619  13.379  66.976  1.00  0.00    -0.158 C  
ATOM     12  C2*   T A   1      -8.810  13.459  68.489  1.00  0.00    -0.068 C  
ATOM     13  C3*   T A   1      -9.428  14.821  68.669  1.00  0.00    -0.213 C  
ATOM     14  C4*   T A   1      -8.634  15.637  67.659  1.00  0.00    -0.167 C  
ATOM     15  O3*   T A   1      -9.298  15.316  69.993  1.00  0.00    -0.435 OA 
ATOM     16  H3*   T A   1      -9.687  16.175  70.106  1.00  0.00     0.000 HD 
ATOM     17  O4*   T A   1      -8.275  14.736  66.585  1.00  0.00    -0.104 OA 
BRANCH  14  18
ATOM     18  C5*   T A   1      -9.405  16.837  67.108  1.00  0.00    -0.229 C  
ATOM     19  O5*   T A   1     -10.683  16.967  67.730  1.00  0.00    -0.339 OA 
ATOM     20  H5*   T A   1     -11.163  17.712  67.387  1.00  0.00     0.000 HD 
ENDBRANCH  14  18
ENDBRANCH   4  11
TORSDOF 2
ENDMDL
MODEL      122
REMARK 921   NORMALIZED FREE ENERGY PREDICTED BY IDOCK:   -3.86 KCAL/MOL
REMARK 922        TOTAL FREE ENERGY PREDICTED BY IDOCK:   -4.63 KCAL/MOL
REMARK 923 INTER-LIGAND FREE ENERGY PREDICTED BY IDOCK:   -4.57 KCAL/MOL
REMARK 924 INTRA-LIGAND FREE ENERGY PREDICTED BY IDOCK:   -0.06 KCAL/MOL
REMARK 927      BINDING AFFINITY PREDICTED BY RF-SCORE:    0.00 PKD
ROOT
ATOM      1  C5M   T A   1     -12.854   9.988  71.942  1.00  0.00    -0.524 C  
ATOM      2  C5    T A   1     -12.201  10.513  70.706  1.00  0.00    -0.468 C  
ATOM      3  C6    T A   1     -11.421   9.794  69.891  1.00  0.00    -0.140 C  
ATOM      4  N1    T A   1     -10.791  10.327  68.770  1.00  0.00    -0.218 N  
ATOM      5  O4    T A   1     -12.999  12.702  71.138  1.00  0.00    -0.270 OA 
ATOM      6  C2    T A   1     -10.873  11.693  68.523  1.00  0.00    -0.219 C  
ATOM      7  O2    T A   1     -10.137  12.319  67.766  1.00  0.00    -0.194 OA 
ATOM      8  H3    T A   1     -12.157  13.260  68.841  1.00  0.00     0.000 HD 
ATOM      9  N3    T A   1     -11.837  12.369  69.221  1.00  0.00    -0.313 N  
ATOM     10  C4    T A   1     -12.402  11.942  70.384  1.00  0.00    -0.251 C  
ENDROOT
BRANCH   4  11
ATOM     11  C1*   T A   1      -9.783   9.510  68.071  1.00  0.00    -0.147 C  
ATOM     12  C2*   T A   1     -10.203   8.731  66.826  1.00  0.00    -0.354 C  
ATOM     13  C3*   T A   1     -10.760   7.458  67.411  1.00  0.00    -0.278 C  
ATOM     14  C4*   T A   1      -9.770   7.198  68.538  1.00  0.00    -0.143 C  
ATOM     15  O3*   T A   1     -10.808   6.394  66.472  1.00  0.00    -0.524 OA 
ATOM     16  H3*   T A   1     -11.159   5.592  66.841  1.00  0.00     0.000 HD 
ATOM     17  O4*   T A   1      -9.303   8.491  68.988  1.00  0.00    -0.146 OA 
BRANCH  14  18
ATOM     18  C5*   T A   1     -10.374   6.417  69.706  1.00  0.00    -0.200 C  
ATOM     19  O5*   T A   1      -9.962   6.955  70.962  1.00  0.00    -0.188 OA 
ATOM     20  H5*   T A   1     -10.337   6.469  71.688  1.00  0.00     0.000 HD 
ENDBRANCH  14  18
ENDBRANCH   4  11
TORSDOF 2
ENDMDL
MODEL      123
REMARK 921   NORMALIZED FREE ENERGY PREDICTED BY IDOCK:   -3.86 KCAL/MOL
REMARK 922        TOTAL FREE ENERGY PREDICTED BY IDOCK:   -4.63 KCAL/MOL
REMARK 923 INTER-LIGAND FREE ENERGY PREDICTED BY IDOCK:   -4.52 KCAL/MOL
REMARK 924 INTRA-LIGAND FREE ENERGY PREDICTED BY IDOCK:   -0.11 KCAL/MOL
REMARK 927      BINDING AFFINITY PREDICTED BY RF-SCORE:    0.00 PKD
ROOT
ATOM      1  C5M   T A   1      -6.651  12.953  68.120  1.00  0.00    -0.093 C  
ATOM      2  C5    T A   1      -7.538  12.198  67.185  1.00  0.00    -0.132 C  
ATOM      3  C6    T A   1      -8.830  12.471  66.972  1.00  0.00    -0.212 C  
ATOM      4  N1    T A   1      -9.639  11.719  66.126  1.00  0.00    -0.227 N  
ATOM      5  O4    T A   1      -5.813  10.647  66.703  1.00  0.00    -0.058 OA 
ATOM      6  C2    T A   1      -9.134  10.559  65.547  1.00  0.00    -0.186 C  
ATOM      7  O2    T A   1      -9.813   9.670  65.042  1.00  0.00    -0.268 OA 
ATOM      8  H3    T A   1      -7.345   9.788  64.910  1.00  0.00     0.000 HD 
ATOM      9  N3    T A   1      -7.774  10.414  65.591  1.00  0.00    -0.148 N  
ATOM     10  C4    T A   1      -6.951  11.041  66.476  1.00  0.00    -0.138 C  
ENDROOT
BRANCH   4  11
ATOM     11  C1*   T A   1     -11.092  11.967  66.133  1.00  0.00    -0.326 C  
ATOM     12  C2*   T A   1     -11.593  13.397  66.324  1.00  0.00    -0.378 C  
ATOM     13  C3*   T A   1     -11.609  13.540  67.824  1.00  0.00    -0.339 C  
ATOM     14  C4*   T A   1     -12.131  12.172  68.241  1.00  0.00    -0.008 C  
ATOM     15  O3*   T A   1     -12.442  14.599  68.269  1.00  0.00    -0.589 OA 
ATOM     16  H3*   T A   1     -12.452  14.689  69.215  1.00  0.00     0.000 HD 
ATOM     17  O4*   T A   1     -11.677  11.230  67.241  1.00  0.00    -0.566 OA 
BRANCH  14  18
ATOM     18  C5*   T A   1     -11.656  11.739  69.629  1.00  0.00    -0.323 C  
ATOM     19  O5*   T A   1     -11.746  12.809  70.569  1.00  0.00    -0.531 OA 
ATOM     20  H5*   T A   1     -11.450  12.540  71.431  1.00  0.00     0.000 HD 
ENDBRANCH  14  18
ENDBRANCH   4  11
TORSDOF 2
ENDMDL
MODEL      124
REMARK 921   NORMALIZED FREE ENERGY PREDICTED BY IDOCK:   -3.85 KCAL/MOL
REMARK 922        TOTAL FREE ENERGY PREDICTED BY IDOCK:   -4.63 KCAL/MOL
REMARK 923 INTER-LIGAND FREE ENERGY PREDICTED BY IDOCK:   -4.90 KCAL/MOL
REMARK 924 INTRA-LIGAND FREE ENERGY PREDICTED BY IDOCK:    0.28 KCAL/MOL
REMARK 927      BINDING AFFINITY PREDICTED BY RF-SCORE:    0.00 PKD
ROOT
ATOM      1  C5M   T A   1     -10.338   8.976  70.085  1.00  0.00    -0.237 C  
ATOM      2  C5    T A   1     -11.333  10.016  70.482  1.00  0.00    -0.409 C  
ATOM      3  C6    T A   1     -11.538  11.165  69.828  1.00  0.00    -0.334 C  
ATOM      4  N1    T A   1     -12.444  12.133  70.251  1.00  0.00    -0.148 N  
ATOM      5  O4    T A   1     -11.911   8.807  72.436  1.00  0.00    -0.357 OA 
ATOM      6  C2    T A   1     -13.101  11.972  71.466  1.00  0.00    -0.261 C  
ATOM      7  O2    T A   1     -13.677  12.865  72.081  1.00  0.00    -0.501 OA 
ATOM      8  H3    T A   1     -13.776  10.468  72.685  1.00  0.00     0.000 HD 
ATOM      9  N3    T A   1     -13.055  10.716  72.008  1.00  0.00    -0.472 N  
ATOM     10  C4    T A   1     -12.119   9.772  71.710  1.00  0.00    -0.346 C  
ENDROOT
BRANCH   4  11
ATOM     11  C1*   T A   1     -12.433  13.449  69.587  1.00  0.00    -0.009 C  
ATOM     12  C2*   T A   1     -11.124  13.960  68.989  1.00  0.00    -0.302 C  
ATOM     13  C3*   T A   1     -10.453  14.604  70.175  1.00  0.00     0.213 C  
ATOM     14  C4*   T A   1     -11.639  15.276  70.852  1.00  0.00    -0.343 C  
ATOM     15  O3*   T A   1      -9.443  15.530  69.802  1.00  0.00    -0.305 OA 
ATOM     16  H3*   T A   1      -9.020  15.935  70.550  1.00  0.00     0.000 HD 
ATOM     17  O4*   T A   1     -12.798  14.458  70.567  1.00  0.00    -0.351 OA 
BRANCH  14  18
ATOM     18  C5*   T A   1     -11.463  15.436  72.362  1.00  0.00    -0.378 C  
ATOM     19  O5*   T A   1     -12.722  15.489  73.032  1.00  0.00    -0.364 OA 
ATOM     20  H5*   T A   1     -12.613  15.589  73.971  1.00  0.00     0.000 HD 
ENDBRANCH  14  18
ENDBRANCH   4  11
TORSDOF 2
ENDMDL
MODEL      125
REMARK 921   NORMALIZED FREE ENERGY PREDICTED BY IDOCK:   -3.82 KCAL/MOL
REMARK 922        TOTAL FREE ENERGY PREDICTED BY IDOCK:   -4.59 KCAL/MOL
REMARK 923 INTER-LIGAND FREE ENERGY PREDICTED BY IDOCK:   -4.75 KCAL/MOL
REMARK 924 INTRA-LIGAND FREE ENERGY PREDICTED BY IDOCK:    0.16 KCAL/MOL
REMARK 927      BINDING AFFINITY PREDICTED BY RF-SCORE:    0.00 PKD
ROOT
ATOM      1  C5M   T A   1      -8.697  19.411  68.672  1.00  0.00    -0.403 C  
ATOM      2  C5    T A   1      -8.183  18.111  68.147  1.00  0.00    -0.284 C  
ATOM      3  C6    T A   1      -8.812  17.351  67.243  1.00  0.00    -0.232 C  
ATOM      4  N1    T A   1      -8.325  16.122  66.808  1.00  0.00    -0.235 N  
ATOM      5  O4    T A   1      -6.326  18.179  69.617  1.00  0.00    -0.248 OA 
ATOM      6  C2    T A   1      -7.190  15.584  67.405  1.00  0.00    -0.209 C  
ATOM      7  O2    T A   1      -6.843  14.409  67.330  1.00  0.00    -0.222 OA 
ATOM      8  H3    T A   1      -5.466  16.210  68.320  1.00  0.00     0.000 HD 
ATOM      9  N3    T A   1      -6.443  16.451  68.156  1.00  0.00    -0.124 N  
ATOM     10  C4    T A   1      -6.906  17.611  68.699  1.00  0.00    -0.229 C  
ENDROOT
BRANCH   4  11
ATOM     11  C1*   T A   1      -9.198  15.269  65.981  1.00  0.00    -0.273 C  
ATOM     12  C2*   T A   1     -10.706  15.508  66.016  1.00  0.00    -0.331 C  
ATOM     13  C3*   T A   1     -11.137  14.706  67.217  1.00  0.00    -0.328 C  
ATOM     14  C4*   T A   1     -10.266  13.467  67.066  1.00  0.00    -0.249 C  
ATOM     15  O3*   T A   1     -12.524  14.402  67.209  1.00  0.00    -0.601 OA 
ATOM     16  H3*   T A   1     -12.795  13.896  67.966  1.00  0.00     0.000 HD 
ATOM     17  O4*   T A   1      -9.043  13.893  66.422  1.00  0.00    -0.198 OA 
BRANCH  14  18
ATOM     18  C5*   T A   1      -9.952  12.782  68.397  1.00  0.00    -0.210 C  
ATOM     19  O5*   T A   1     -11.081  12.793  69.269  1.00  0.00    -0.376 OA 
ATOM     20  H5*   T A   1     -10.886  12.368  70.097  1.00  0.00     0.000 HD 
ENDBRANCH  14  18
ENDBRANCH   4  11
TORSDOF 2
ENDMDL
MODEL      126
REMARK 921   NORMALIZED FREE ENERGY PREDICTED BY IDOCK:   -3.82 KCAL/MOL
REMARK 922        TOTAL FREE ENERGY PREDICTED BY IDOCK:   -4.59 KCAL/MOL
REMARK 923 INTER-LIGAND FREE ENERGY PREDICTED BY IDOCK:   -4.41 KCAL/MOL
REMARK 924 INTRA-LIGAND FREE ENERGY PREDICTED BY IDOCK:   -0.18 KCAL/MOL
REMARK 927      BINDING AFFINITY PREDICTED BY RF-SCORE:    0.00 PKD
ROOT
ATOM      1  C5M   T A   1      -9.621   4.141  69.744  1.00  0.00    -0.281 C  
ATOM      2  C5    T A   1      -9.896   4.907  70.996  1.00  0.00    -0.266 C  
ATOM      3  C6    T A   1     -10.079   6.231  71.055  1.00  0.00    -0.185 C  
ATOM      4  N1    T A   1     -10.290   6.920  72.246  1.00  0.00    -0.194 N  
ATOM      5  O4    T A   1      -9.649   2.957  72.318  1.00  0.00    -0.116 OA 
ATOM      6  C2    T A   1     -10.203   6.239  73.456  1.00  0.00    -0.239 C  
ATOM      7  O2    T A   1     -10.070   6.768  74.556  1.00  0.00    -0.332 OA 
ATOM      8  H3    T A   1     -10.513   4.359  74.212  1.00  0.00     0.000 HD 
ATOM      9  N3    T A   1     -10.236   4.873  73.376  1.00  0.00    -0.162 N  
ATOM     10  C4    T A   1      -9.927   4.149  72.265  1.00  0.00    -0.174 C  
ENDROOT
BRANCH   4  11
ATOM     11  C1*   T A   1     -10.259   8.393  72.226  1.00  0.00    -0.326 C  
ATOM     12  C2*   T A   1     -11.555   9.151  71.942  1.00  0.00    -0.430 C  
ATOM     13  C3*   T A   1     -11.595   9.178  70.437  1.00  0.00    -0.146 C  
ATOM     14  C4*   T A   1     -10.130   9.429  70.110  1.00  0.00    -0.233 C  
ATOM     15  O3*   T A   1     -12.449  10.191  69.924  1.00  0.00    -0.522 OA 
ATOM     16  H3*   T A   1     -12.474  10.207  68.975  1.00  0.00     0.000 HD 
ATOM     17  O4*   T A   1      -9.357   8.818  71.169  1.00  0.00    -0.189 OA 
BRANCH  14  18
ATOM     18  C5*   T A   1      -9.706   8.867  68.753  1.00  0.00    -0.164 C  
ATOM     19  O5*   T A   1     -10.832   8.428  67.995  1.00  0.00    -0.454 OA 
ATOM     20  H5*   T A   1     -10.569   8.077  67.151  1.00  0.00     0.000 HD 
ENDBRANCH  14  18
ENDBRANCH   4  11
TORSDOF 2
ENDMDL
MODEL      127
REMARK 921   NORMALIZED FREE ENERGY PREDICTED BY IDOCK:   -3.82 KCAL/MOL
REMARK 922        TOTAL FREE ENERGY PREDICTED BY IDOCK:   -4.58 KCAL/MOL
REMARK 923 INTER-LIGAND FREE ENERGY PREDICTED BY IDOCK:   -4.37 KCAL/MOL
REMARK 924 INTRA-LIGAND FREE ENERGY PREDICTED BY IDOCK:   -0.21 KCAL/MOL
REMARK 927      BINDING AFFINITY PREDICTED BY RF-SCORE:    0.00 PKD
ROOT
ATOM      1  C5M   T A   1     -12.203  10.185  71.075  1.00  0.00    -0.474 C  
ATOM      2  C5    T A   1     -11.615  11.070  70.025  1.00  0.00    -0.427 C  
ATOM      3  C6    T A   1     -10.710  10.680  69.120  1.00  0.00    -0.228 C  
ATOM      4  N1    T A   1     -10.150  11.542  68.182  1.00  0.00    -0.187 N  
ATOM      5  O4    T A   1     -12.765  12.956  70.881  1.00  0.00    -0.296 OA 
ATOM      6  C2    T A   1     -10.445  12.901  68.237  1.00  0.00    -0.242 C  
ATOM      7  O2    T A   1      -9.802  13.786  67.679  1.00  0.00    -0.225 OA 
ATOM      8  H3    T A   1     -11.971  14.141  68.815  1.00  0.00     0.000 HD 
ATOM      9  N3    T A   1     -11.521  13.246  69.008  1.00  0.00    -0.283 N  
ATOM     10  C4    T A   1     -12.036  12.487  70.014  1.00  0.00    -0.266 C  
ENDROOT
BRANCH   4  11
ATOM     11  C1*   T A   1      -9.007  11.068  67.380  1.00  0.00    -0.141 C  
ATOM     12  C2*   T A   1      -9.044  11.257  65.865  1.00  0.00    -0.217 C  
ATOM     13  C3*   T A   1      -9.810  10.045  65.403  1.00  0.00    -0.314 C  
ATOM     14  C4*   T A   1      -9.241   8.973  66.322  1.00  0.00    -0.206 C  
ATOM     15  O3*   T A   1      -9.604   9.751  64.030  1.00  0.00    -0.396 OA 
ATOM     16  H3*   T A   1     -10.087   8.987  63.739  1.00  0.00     0.000 HD 
ATOM     17  O4*   T A   1      -8.886   9.632  67.560  1.00  0.00    -0.125 OA 
BRANCH  14  18
ATOM     18  C5*   T A   1     -10.217   7.827  66.593  1.00  0.00    -0.218 C  
ATOM     19  O5*   T A   1      -9.634   6.833  67.434  1.00  0.00    -0.129 OA 
ATOM     20  H5*   T A   1     -10.241   6.121  67.602  1.00  0.00     0.000 HD 
ENDBRANCH  14  18
ENDBRANCH   4  11
TORSDOF 2
ENDMDL
MODEL      128
REMARK 921   NORMALIZED FREE ENERGY PREDICTED BY IDOCK:   -3.78 KCAL/MOL
REMARK 922        TOTAL FREE ENERGY PREDICTED BY IDOCK:   -4.55 KCAL/MOL
REMARK 923 INTER-LIGAND FREE ENERGY PREDICTED BY IDOCK:   -4.32 KCAL/MOL
REMARK 924 INTRA-LIGAND FREE ENERGY PREDICTED BY IDOCK:   -0.23 KCAL/MOL
REMARK 927      BINDING AFFINITY PREDICTED BY RF-SCORE:    0.00 PKD
ROOT
ATOM      1  C5M   T A   1     -10.829  10.642  66.710  1.00  0.00    -0.233 C  
ATOM      2  C5    T A   1     -10.206   9.530  67.489  1.00  0.00    -0.283 C  
ATOM      3  C6    T A   1     -10.345   9.350  68.807  1.00  0.00    -0.209 C  
ATOM      4  N1    T A   1      -9.714   8.327  69.509  1.00  0.00    -0.172 N  
ATOM      5  O4    T A   1      -9.060   8.744  65.569  1.00  0.00    -0.203 OA 
ATOM      6  C2    T A   1      -8.805   7.505  68.851  1.00  0.00    -0.135 C  
ATOM      7  O2    T A   1      -7.978   6.784  69.403  1.00  0.00    -0.111 OA 
ATOM      8  H3    T A   1      -8.455   6.755  66.976  1.00  0.00     0.000 HD 
ATOM      9  N3    T A   1      -8.837   7.553  67.484  1.00  0.00    -0.127 N  
ATOM     10  C4    T A   1      -9.341   8.584  66.751  1.00  0.00    -0.182 C  
ENDROOT
BRANCH   4  11
ATOM     11  C1*   T A   1      -9.756   8.350  70.982  1.00  0.00    -0.174 C  
ATOM     12  C2*   T A   1     -10.482   7.224  71.714  1.00  0.00    -0.218 C  
ATOM     13  C3*   T A   1     -11.911   7.702  71.713  1.00  0.00    -0.290 C  
ATOM     14  C4*   T A   1     -11.721   9.189  71.981  1.00  0.00    -0.314 C  
ATOM     15  O3*   T A   1     -12.707   7.067  72.703  1.00  0.00    -0.330 OA 
ATOM     16  H3*   T A   1     -13.607   7.369  72.702  1.00  0.00     0.000 HD 
ATOM     17  O4*   T A   1     -10.448   9.557  71.401  1.00  0.00    -0.317 OA 
BRANCH  14  18
ATOM     18  C5*   T A   1     -12.838  10.056  71.401  1.00  0.00    -0.417 C  
ATOM     19  O5*   T A   1     -13.397  10.920  72.390  1.00  0.00    -0.600 OA 
ATOM     20  H5*   T A   1     -14.091  11.459  72.029  1.00  0.00     0.000 HD 
ENDBRANCH  14  18
ENDBRANCH   4  11
TORSDOF 2
ENDMDL
MODEL      129
REMARK 921   NORMALIZED FREE ENERGY PREDICTED BY IDOCK:   -3.76 KCAL/MOL
REMARK 922        TOTAL FREE ENERGY PREDICTED BY IDOCK:   -4.53 KCAL/MOL
REMARK 923 INTER-LIGAND FREE ENERGY PREDICTED BY IDOCK:   -4.11 KCAL/MOL
REMARK 924 INTRA-LIGAND FREE ENERGY PREDICTED BY IDOCK:   -0.42 KCAL/MOL
REMARK 927      BINDING AFFINITY PREDICTED BY RF-SCORE:    0.00 PKD
ROOT
ATOM      1  C5M   T A   1     -10.603  16.545  66.309  1.00  0.00    -0.223 C  
ATOM      2  C5    T A   1      -9.584  16.322  67.379  1.00  0.00    -0.230 C  
ATOM      3  C6    T A   1      -8.427  16.985  67.480  1.00  0.00    -0.200 C  
ATOM      4  N1    T A   1      -7.480  16.720  68.465  1.00  0.00    -0.201 N  
ATOM      5  O4    T A   1     -10.837  14.525  68.282  1.00  0.00    -0.233 OA 
ATOM      6  C2    T A   1      -7.673  15.648  69.331  1.00  0.00    -0.218 C  
ATOM      7  O2    T A   1      -6.799  15.135  70.024  1.00  0.00    -0.175 OA 
ATOM      8  H3    T A   1      -9.207  14.596  70.190  1.00  0.00     0.000 HD 
ATOM      9  N3    T A   1      -8.937  15.126  69.362  1.00  0.00    -0.210 N  
ATOM     10  C4    T A   1      -9.862  15.262  68.372  1.00  0.00    -0.216 C  
ENDROOT
BRANCH   4  11
ATOM     11  C1*   T A   1      -6.152  17.350  68.356  1.00  0.00    -0.160 C  
ATOM     12  C2*   T A   1      -5.766  18.431  69.363  1.00  0.00    -0.232 C  
ATOM     13  C3*   T A   1      -6.355  19.675  68.749  1.00  0.00    -0.272 C  
ATOM     14  C4*   T A   1      -6.049  19.445  67.275  1.00  0.00    -0.186 C  
ATOM     15  O3*   T A   1      -5.768  20.868  69.247  1.00  0.00    -0.375 OA 
ATOM     16  H3*   T A   1      -6.140  21.652  68.859  1.00  0.00     0.000 HD 
ATOM     17  O4*   T A   1      -6.064  18.013  67.066  1.00  0.00    -0.140 OA 
BRANCH  14  18
ATOM     18  C5*   T A   1      -7.044  20.127  66.336  1.00  0.00    -0.265 C  
ATOM     19  O5*   T A   1      -7.888  21.036  67.040  1.00  0.00    -0.570 OA 
ATOM     20  H5*   T A   1      -8.507  21.461  66.457  1.00  0.00     0.000 HD 
ENDBRANCH  14  18
ENDBRANCH   4  11
TORSDOF 2
ENDMDL
MODEL      130
REMARK 921   NORMALIZED FREE ENERGY PREDICTED BY IDOCK:   -3.74 KCAL/MOL
REMARK 922        TOTAL FREE ENERGY PREDICTED BY IDOCK:   -4.50 KCAL/MOL
REMARK 923 INTER-LIGAND FREE ENERGY PREDICTED BY IDOCK:   -4.46 KCAL/MOL
REMARK 924 INTRA-LIGAND FREE ENERGY PREDICTED BY IDOCK:   -0.05 KCAL/MOL
REMARK 927      BINDING AFFINITY PREDICTED BY RF-SCORE:    0.00 PKD
ROOT
ATOM      1  C5M   T A   1      -6.960   7.990  72.474  1.00  0.00    -0.093 C  
ATOM      2  C5    T A   1      -7.661   8.824  71.452  1.00  0.00    -0.131 C  
ATOM      3  C6    T A   1      -8.989   8.914  71.322  1.00  0.00    -0.243 C  
ATOM      4  N1    T A   1      -9.609   9.667  70.330  1.00  0.00    -0.256 N  
ATOM      5  O4    T A   1      -5.602   9.449  70.459  1.00  0.00    -0.033 OA 
ATOM      6  C2    T A   1      -8.835  10.277  69.348  1.00  0.00    -0.163 C  
ATOM      7  O2    T A   1      -9.260  10.701  68.277  1.00  0.00    -0.143 OA 
ATOM      8  H3    T A   1      -6.961  11.073  69.112  1.00  0.00     0.000 HD 
ATOM      9  N3    T A   1      -7.495  10.362  69.611  1.00  0.00    -0.151 N  
ATOM     10  C4    T A   1      -6.821   9.570  70.491  1.00  0.00    -0.112 C  
ENDROOT
BRANCH   4  11
ATOM     11  C1*   T A   1     -11.064   9.524  70.139  1.00  0.00    -0.255 C  
ATOM     12  C2*   T A   1     -12.002  10.006  71.244  1.00  0.00    -0.483 C  
ATOM     13  C3*   T A   1     -12.054   8.819  72.169  1.00  0.00    -0.371 C  
ATOM     14  C4*   T A   1     -12.099   7.671  71.170  1.00  0.00    -0.298 C  
ATOM     15  O3*   T A   1     -13.183   8.837  73.029  1.00  0.00    -0.805 OA 
ATOM     16  H3*   T A   1     -13.216   8.088  73.612  1.00  0.00     0.000 HD 
ATOM     17  O4*   T A   1     -11.370   8.110  69.999  1.00  0.00    -0.153 OA 
BRANCH  14  18
ATOM     18  C5*   T A   1     -11.499   6.373  71.710  1.00  0.00    -0.300 C  
ATOM     19  O5*   T A   1     -11.558   6.324  73.135  1.00  0.00    -0.469 OA 
ATOM     20  H5*   T A   1     -11.185   5.516  73.471  1.00  0.00     0.000 HD 
ENDBRANCH  14  18
ENDBRANCH   4  11
TORSDOF 2
ENDMDL
MODEL      131
REMARK 921   NORMALIZED FREE ENERGY PREDICTED BY IDOCK:   -3.73 KCAL/MOL
REMARK 922        TOTAL FREE ENERGY PREDICTED BY IDOCK:   -4.49 KCAL/MOL
REMARK 923 INTER-LIGAND FREE ENERGY PREDICTED BY IDOCK:   -4.76 KCAL/MOL
REMARK 924 INTRA-LIGAND FREE ENERGY PREDICTED BY IDOCK:    0.27 KCAL/MOL
REMARK 927      BINDING AFFINITY PREDICTED BY RF-SCORE:    0.00 PKD
ROOT
ATOM      1  C5M   T A   1     -12.246  13.846  66.695  1.00  0.00    -0.465 C  
ATOM      2  C5    T A   1     -11.735  12.878  65.679  1.00  0.00    -0.430 C  
ATOM      3  C6    T A   1     -11.184  11.692  65.964  1.00  0.00    -0.240 C  
ATOM      4  N1    T A   1     -10.678  10.833  64.994  1.00  0.00    -0.174 N  
ATOM      5  O4    T A   1     -12.185  14.395  63.916  1.00  0.00    -0.595 OA 
ATOM      6  C2    T A   1     -10.631  11.249  63.667  1.00  0.00    -0.388 C  
ATOM      7  O2    T A   1      -9.952  10.727  62.788  1.00  0.00    -0.274 OA 
ATOM      8  H3    T A   1     -11.651  12.480  62.384  1.00  0.00     0.000 HD 
ATOM      9  N3    T A   1     -11.385  12.349  63.360  1.00  0.00    -0.455 N  
ATOM     10  C4    T A   1     -11.809  13.280  64.258  1.00  0.00    -0.417 C  
ENDROOT
BRANCH   4  11
ATOM     11  C1*   T A   1      -9.897   9.660  65.426  1.00  0.00    -0.252 C  
ATOM     12  C2*   T A   1      -9.147   9.725  66.756  1.00  0.00    -0.169 C  
ATOM     13  C3*   T A   1      -7.850  10.386  66.367  1.00  0.00    -0.128 C  
ATOM     14  C4*   T A   1      -7.573   9.718  65.027  1.00  0.00    -0.127 C  
ATOM     15  O3*   T A   1      -6.813  10.166  67.311  1.00  0.00    -0.076 OA 
ATOM     16  H3*   T A   1      -5.996  10.583  67.065  1.00  0.00     0.000 HD 
ATOM     17  O4*   T A   1      -8.859   9.412  64.440  1.00  0.00    -0.202 OA 
BRANCH  14  18
ATOM     18  C5*   T A   1      -6.750  10.587  64.076  1.00  0.00     0.104 C  
ATOM     19  O5*   T A   1      -5.619  11.155  64.734  1.00  0.00    -0.471 OA 
ATOM     20  H5*   T A   1      -5.107  11.696  64.142  1.00  0.00     0.000 HD 
ENDBRANCH  14  18
ENDBRANCH   4  11
TORSDOF 2
ENDMDL
MODEL      132
REMARK 921   NORMALIZED FREE ENERGY PREDICTED BY IDOCK:   -3.72 KCAL/MOL
REMARK 922        TOTAL FREE ENERGY PREDICTED BY IDOCK:   -4.48 KCAL/MOL
REMARK 923 INTER-LIGAND FREE ENERGY PREDICTED BY IDOCK:   -4.49 KCAL/MOL
REMARK 924 INTRA-LIGAND FREE ENERGY PREDICTED BY IDOCK:    0.01 KCAL/MOL
REMARK 927      BINDING AFFINITY PREDICTED BY RF-SCORE:    0.00 PKD
ROOT
ATOM      1  C5M   T A   1      -8.228   9.535  65.513  1.00  0.00    -0.126 C  
ATOM      2  C5    T A   1      -9.234   9.962  66.530  1.00  0.00    -0.190 C  
ATOM      3  C6    T A   1     -10.216  10.843  66.308  1.00  0.00    -0.247 C  
ATOM      4  N1    T A   1     -11.111  11.253  67.292  1.00  0.00    -0.291 N  
ATOM      5  O4    T A   1      -8.170   8.680  68.213  1.00  0.00    -0.120 OA 
ATOM      6  C2    T A   1     -10.932  10.822  68.602  1.00  0.00    -0.239 C  
ATOM      7  O2    T A   1     -11.451  11.335  69.590  1.00  0.00    -0.260 OA 
ATOM      8  H3    T A   1     -10.174   9.216  69.626  1.00  0.00     0.000 HD 
ATOM      9  N3    T A   1     -10.078   9.767  68.773  1.00  0.00    -0.167 N  
ATOM     10  C4    T A   1      -9.109   9.397  67.890  1.00  0.00    -0.129 C  
ENDROOT
BRANCH   4  11
ATOM     11  C1*   T A   1     -12.009  12.385  67.004  1.00  0.00    -0.186 C  
ATOM     12  C2*   T A   1     -12.458  12.619  65.563  1.00  0.00    -0.345 C  
ATOM     13  C3*   T A   1     -11.325  13.434  64.995  1.00  0.00    -0.312 C  
ATOM     14  C4*   T A   1     -11.011  14.353  66.167  1.00  0.00    -0.320 C  
ATOM     15  O3*   T A   1     -11.691  14.149  63.825  1.00  0.00    -0.647 OA 
ATOM     16  H3*   T A   1     -10.976  14.663  63.467  1.00  0.00     0.000 HD 
ATOM     17  O4*   T A   1     -11.327  13.615  67.371  1.00  0.00    -0.291 OA 
BRANCH  14  18
ATOM     18  C5*   T A   1      -9.555  14.819  66.199  1.00  0.00    -0.309 C  
ATOM     19  O5*   T A   1      -8.721  13.882  66.879  1.00  0.00    -0.313 OA 
ATOM     20  H5*   T A   1      -7.816  14.172  66.899  1.00  0.00     0.000 HD 
ENDBRANCH  14  18
ENDBRANCH   4  11
TORSDOF 2
ENDMDL
MODEL      133
REMARK 921   NORMALIZED FREE ENERGY PREDICTED BY IDOCK:   -3.72 KCAL/MOL
REMARK 922        TOTAL FREE ENERGY PREDICTED BY IDOCK:   -4.48 KCAL/MOL
REMARK 923 INTER-LIGAND FREE ENERGY PREDICTED BY IDOCK:   -4.44 KCAL/MOL
REMARK 924 INTRA-LIGAND FREE ENERGY PREDICTED BY IDOCK:   -0.04 KCAL/MOL
REMARK 927      BINDING AFFINITY PREDICTED BY RF-SCORE:    0.00 PKD
ROOT
ATOM      1  C5M   T A   1     -12.661  13.091  70.561  1.00  0.00    -0.220 C  
ATOM      2  C5    T A   1     -11.923  11.830  70.250  1.00  0.00    -0.429 C  
ATOM      3  C6    T A   1     -11.174  11.634  69.158  1.00  0.00    -0.263 C  
ATOM      4  N1    T A   1     -10.535  10.431  68.877  1.00  0.00    -0.198 N  
ATOM      5  O4    T A   1     -12.826  10.756  72.158  1.00  0.00    -0.356 OA 
ATOM      6  C2    T A   1     -10.757   9.329  69.698  1.00  0.00    -0.230 C  
ATOM      7  O2    T A   1     -10.505   8.165  69.399  1.00  0.00    -0.220 OA 
ATOM      8  H3    T A   1     -11.204   8.908  71.653  1.00  0.00     0.000 HD 
ATOM      9  N3    T A   1     -11.333   9.594  70.910  1.00  0.00    -0.329 N  
ATOM     10  C4    T A   1     -12.065  10.706  71.199  1.00  0.00    -0.341 C  
ENDROOT
BRANCH   4  11
ATOM     11  C1*   T A   1      -9.922  10.249  67.549  1.00  0.00    -0.189 C  
ATOM     12  C2*   T A   1      -8.421  10.489  67.393  1.00  0.00    -0.122 C  
ATOM     13  C3*   T A   1      -8.350  11.978  67.170  1.00  0.00    -0.181 C  
ATOM     14  C4*   T A   1      -9.556  12.195  66.267  1.00  0.00    -0.237 C  
ATOM     15  O3*   T A   1      -7.134  12.388  66.564  1.00  0.00    -0.297 OA 
ATOM     16  H3*   T A   1      -7.090  13.327  66.424  1.00  0.00     0.000 HD 
ATOM     17  O4*   T A   1     -10.534  11.192  66.629  1.00  0.00    -0.232 OA 
BRANCH  14  18
ATOM     18  C5*   T A   1     -10.161  13.594  66.390  1.00  0.00    -0.292 C  
ATOM     19  O5*   T A   1     -10.961  13.919  65.254  1.00  0.00    -0.308 OA 
ATOM     20  H5*   T A   1     -11.337  14.788  65.330  1.00  0.00     0.000 HD 
ENDBRANCH  14  18
ENDBRANCH   4  11
TORSDOF 2
ENDMDL
MODEL      134
REMARK 921   NORMALIZED FREE ENERGY PREDICTED BY IDOCK:   -3.71 KCAL/MOL
REMARK 922        TOTAL FREE ENERGY PREDICTED BY IDOCK:   -4.47 KCAL/MOL
REMARK 923 INTER-LIGAND FREE ENERGY PREDICTED BY IDOCK:   -4.12 KCAL/MOL
REMARK 924 INTRA-LIGAND FREE ENERGY PREDICTED BY IDOCK:   -0.35 KCAL/MOL
REMARK 927      BINDING AFFINITY PREDICTED BY RF-SCORE:    0.00 PKD
ROOT
ATOM      1  C5M   T A   1     -12.162  11.377  70.506  1.00  0.00    -0.478 C  
ATOM      2  C5    T A   1     -11.233  10.359  69.930  1.00  0.00    -0.371 C  
ATOM      3  C6    T A   1     -10.933  10.249  68.631  1.00  0.00    -0.244 C  
ATOM      4  N1    T A   1     -10.097   9.259  68.123  1.00  0.00    -0.178 N  
ATOM      5  O4    T A   1     -10.950   9.330  72.045  1.00  0.00    -0.315 OA 
ATOM      6  C2    T A   1      -9.625   8.260  68.968  1.00  0.00    -0.156 C  
ATOM      7  O2    T A   1      -9.144   7.192  68.599  1.00  0.00    -0.134 OA 
ATOM      8  H3    T A   1      -9.139   7.989  70.941  1.00  0.00     0.000 HD 
ATOM      9  N3    T A   1      -9.752   8.503  70.308  1.00  0.00    -0.169 N  
ATOM     10  C4    T A   1     -10.636   9.379  70.862  1.00  0.00    -0.320 C  
ENDROOT
BRANCH   4  11
ATOM     11  C1*   T A   1     -10.008   9.091  66.661  1.00  0.00    -0.278 C  
ATOM     12  C2*   T A   1      -8.634   9.143  65.997  1.00  0.00    -0.162 C  
ATOM     13  C3*   T A   1      -8.425  10.621  65.793  1.00  0.00    -0.178 C  
ATOM     14  C4*   T A   1      -9.822  11.056  65.369  1.00  0.00    -0.251 C  
ATOM     15  O3*   T A   1      -7.443  10.910  64.809  1.00  0.00    -0.343 OA 
ATOM     16  H3*   T A   1      -7.313  11.842  64.680  1.00  0.00     0.000 HD 
ATOM     17  O4*   T A   1     -10.753  10.167  66.030  1.00  0.00    -0.059 OA 
BRANCH  14  18
ATOM     18  C5*   T A   1     -10.136  12.510  65.722  1.00  0.00    -0.262 C  
ATOM     19  O5*   T A   1      -9.456  12.919  66.908  1.00  0.00    -0.223 OA 
ATOM     20  H5*   T A   1      -9.652  13.822  67.128  1.00  0.00     0.000 HD 
ENDBRANCH  14  18
ENDBRANCH   4  11
TORSDOF 2
ENDMDL
MODEL      135
REMARK 921   NORMALIZED FREE ENERGY PREDICTED BY IDOCK:   -3.70 KCAL/MOL
REMARK 922        TOTAL FREE ENERGY PREDICTED BY IDOCK:   -4.45 KCAL/MOL
REMARK 923 INTER-LIGAND FREE ENERGY PREDICTED BY IDOCK:   -4.34 KCAL/MOL
REMARK 924 INTRA-LIGAND FREE ENERGY PREDICTED BY IDOCK:   -0.11 KCAL/MOL
REMARK 927      BINDING AFFINITY PREDICTED BY RF-SCORE:    0.00 PKD
ROOT
ATOM      1  C5M   T A   1     -11.370  14.383  65.872  1.00  0.00    -0.332 C  
ATOM      2  C5    T A   1     -10.048  13.965  66.427  1.00  0.00    -0.298 C  
ATOM      3  C6    T A   1      -9.706  12.704  66.713  1.00  0.00    -0.240 C  
ATOM      4  N1    T A   1      -8.480  12.353  67.271  1.00  0.00    -0.176 N  
ATOM      5  O4    T A   1      -9.336  16.218  66.599  1.00  0.00    -0.220 OA 
ATOM      6  C2    T A   1      -7.593  13.353  67.658  1.00  0.00    -0.174 C  
ATOM      7  O2    T A   1      -6.640  13.195  68.416  1.00  0.00    -0.076 OA 
ATOM      8  H3    T A   1      -7.077  15.266  67.136  1.00  0.00     0.000 HD 
ATOM      9  N3    T A   1      -7.851  14.603  67.167  1.00  0.00    -0.179 N  
ATOM     10  C4    T A   1      -9.063  15.029  66.716  1.00  0.00    -0.262 C  
ENDROOT
BRANCH   4  11
ATOM     11  C1*   T A   1      -8.290  10.972  67.750  1.00  0.00    -0.118 C  
ATOM     12  C2*   T A   1      -8.908   9.826  66.952  1.00  0.00    -0.150 C  
ATOM     13  C3*   T A   1     -10.313   9.771  67.494  1.00  0.00    -0.237 C  
ATOM     14  C4*   T A   1     -10.063  10.014  68.976  1.00  0.00    -0.200 C  
ATOM     15  O3*   T A   1     -10.952   8.528  67.247  1.00  0.00    -0.447 OA 
ATOM     16  H3*   T A   1     -11.838   8.494  67.589  1.00  0.00     0.000 HD 
ATOM     17  O4*   T A   1      -8.891  10.858  69.068  1.00  0.00    -0.158 OA 
BRANCH  14  18
ATOM     18  C5*   T A   1     -11.245  10.670  69.690  1.00  0.00    -0.289 C  
ATOM     19  O5*   T A   1     -12.353  10.851  68.809  1.00  0.00    -0.783 OA 
ATOM     20  H5*   T A   1     -13.087  11.260  69.253  1.00  0.00     0.000 HD 
ENDBRANCH  14  18
ENDBRANCH   4  11
TORSDOF 2
ENDMDL
MODEL      136
REMARK 921   NORMALIZED FREE ENERGY PREDICTED BY IDOCK:   -3.66 KCAL/MOL
REMARK 922        TOTAL FREE ENERGY PREDICTED BY IDOCK:   -4.41 KCAL/MOL
REMARK 923 INTER-LIGAND FREE ENERGY PREDICTED BY IDOCK:   -3.95 KCAL/MOL
REMARK 924 INTRA-LIGAND FREE ENERGY PREDICTED BY IDOCK:   -0.45 KCAL/MOL
REMARK 927      BINDING AFFINITY PREDICTED BY RF-SCORE:    0.00 PKD
ROOT
ATOM      1  C5M   T A   1      -5.630  13.195  67.810  1.00  0.00    -0.119 C  
ATOM      2  C5    T A   1      -7.000  13.784  67.731  1.00  0.00    -0.178 C  
ATOM      3  C6    T A   1      -8.114  13.091  67.470  1.00  0.00    -0.179 C  
ATOM      4  N1    T A   1      -9.371  13.678  67.360  1.00  0.00    -0.218 N  
ATOM      5  O4    T A   1      -6.145  15.972  68.036  1.00  0.00    -0.110 OA 
ATOM      6  C2    T A   1      -9.485  15.064  67.412  1.00  0.00    -0.201 C  
ATOM      7  O2    T A   1     -10.462  15.705  67.036  1.00  0.00    -0.290 OA 
ATOM      8  H3    T A   1      -8.544  16.675  68.261  1.00  0.00     0.000 HD 
ATOM      9  N3    T A   1      -8.395  15.736  67.892  1.00  0.00    -0.148 N  
ATOM     10  C4    T A   1      -7.124  15.245  67.916  1.00  0.00    -0.141 C  
ENDROOT
BRANCH   4  11
ATOM     11  C1*   T A   1     -10.490  12.864  66.855  1.00  0.00    -0.246 C  
ATOM     12  C2*   T A   1     -11.702  12.640  67.757  1.00  0.00    -0.412 C  
ATOM     13  C3*   T A   1     -11.277  11.455  68.586  1.00  0.00    -0.243 C  
ATOM     14  C4*   T A   1     -10.565  10.608  67.540  1.00  0.00    -0.252 C  
ATOM     15  O3*   T A   1     -12.371  10.777  69.183  1.00  0.00    -0.699 OA 
ATOM     16  H3*   T A   1     -12.103  10.031  69.706  1.00  0.00     0.000 HD 
ATOM     17  O4*   T A   1      -9.995  11.527  66.578  1.00  0.00    -0.202 OA 
BRANCH  14  18
ATOM     18  C5*   T A   1      -9.474   9.712  68.127  1.00  0.00    -0.132 C  
ATOM     19  O5*   T A   1      -9.965   8.939  69.221  1.00  0.00    -0.182 OA 
ATOM     20  H5*   T A   1      -9.287   8.382  69.586  1.00  0.00     0.000 HD 
ENDBRANCH  14  18
ENDBRANCH   4  11
TORSDOF 2
ENDMDL
MODEL      137
REMARK 921   NORMALIZED FREE ENERGY PREDICTED BY IDOCK:   -3.62 KCAL/MOL
REMARK 922        TOTAL FREE ENERGY PREDICTED BY IDOCK:   -4.37 KCAL/MOL
REMARK 923 INTER-LIGAND FREE ENERGY PREDICTED BY IDOCK:   -4.30 KCAL/MOL
REMARK 924 INTRA-LIGAND FREE ENERGY PREDICTED BY IDOCK:   -0.07 KCAL/MOL
REMARK 927      BINDING AFFINITY PREDICTED BY RF-SCORE:    0.00 PKD
ROOT
ATOM      1  C5M   T A   1     -10.913  15.038  65.617  1.00  0.00    -0.357 C  
ATOM      2  C5    T A   1     -10.991  13.911  66.593  1.00  0.00    -0.302 C  
ATOM      3  C6    T A   1     -10.622  12.651  66.334  1.00  0.00    -0.251 C  
ATOM      4  N1    T A   1     -10.748  11.614  67.253  1.00  0.00    -0.227 N  
ATOM      5  O4    T A   1     -12.030  15.297  68.208  1.00  0.00    -0.297 OA 
ATOM      6  C2    T A   1     -11.386  11.849  68.467  1.00  0.00    -0.276 C  
ATOM      7  O2    T A   1     -11.822  10.978  69.215  1.00  0.00    -0.298 OA 
ATOM      8  H3    T A   1     -11.696  13.380  69.794  1.00  0.00     0.000 HD 
ATOM      9  N3    T A   1     -11.557  13.163  68.807  1.00  0.00    -0.286 N  
ATOM     10  C4    T A   1     -11.555  14.203  67.928  1.00  0.00    -0.338 C  
ENDROOT
BRANCH   4  11
ATOM     11  C1*   T A   1     -10.520  10.232  66.795  1.00  0.00    -0.214 C  
ATOM     12  C2*   T A   1      -9.174   9.573  67.088  1.00  0.00    -0.158 C  
ATOM     13  C3*   T A   1      -8.323  10.045  65.938  1.00  0.00    -0.127 C  
ATOM     14  C4*   T A   1      -9.315   9.957  64.786  1.00  0.00    -0.278 C  
ATOM     15  O3*   T A   1      -7.175   9.235  65.731  1.00  0.00    -0.088 OA 
ATOM     16  H3*   T A   1      -6.639   9.532  65.005  1.00  0.00     0.000 HD 
ATOM     17  O4*   T A   1     -10.625  10.206  65.346  1.00  0.00    -0.108 OA 
BRANCH  14  18
ATOM     18  C5*   T A   1      -9.024  10.949  63.659  1.00  0.00    -0.129 C  
ATOM     19  O5*   T A   1      -9.881  10.732  62.539  1.00  0.00    -0.567 OA 
ATOM     20  H5*   T A   1      -9.700  11.348  61.838  1.00  0.00     0.000 HD 
ENDBRANCH  14  18
ENDBRANCH   4  11
TORSDOF 2
ENDMDL
MODEL      138
REMARK 921   NORMALIZED FREE ENERGY PREDICTED BY IDOCK:   -3.62 KCAL/MOL
REMARK 922        TOTAL FREE ENERGY PREDICTED BY IDOCK:   -4.36 KCAL/MOL
REMARK 923 INTER-LIGAND FREE ENERGY PREDICTED BY IDOCK:   -4.22 KCAL/MOL
REMARK 924 INTRA-LIGAND FREE ENERGY PREDICTED BY IDOCK:   -0.14 KCAL/MOL
REMARK 927      BINDING AFFINITY PREDICTED BY RF-SCORE:    0.00 PKD
ROOT
ATOM      1  C5M   T A   1     -10.155   9.231  66.153  1.00  0.00    -0.304 C  
ATOM      2  C5    T A   1      -9.454  10.292  66.937  1.00  0.00    -0.200 C  
ATOM      3  C6    T A   1      -9.794  11.585  66.944  1.00  0.00    -0.197 C  
ATOM      4  N1    T A   1      -9.091  12.555  67.653  1.00  0.00    -0.179 N  
ATOM      5  O4    T A   1      -7.821   8.746  67.686  1.00  0.00    -0.100 OA 
ATOM      6  C2    T A   1      -7.912  12.208  68.305  1.00  0.00    -0.163 C  
ATOM      7  O2    T A   1      -7.063  13.002  68.698  1.00  0.00    -0.095 OA 
ATOM      8  H3    T A   1      -7.056  10.583  69.216  1.00  0.00     0.000 HD 
ATOM      9  N3    T A   1      -7.697  10.867  68.475  1.00  0.00    -0.111 N  
ATOM     10  C4    T A   1      -8.275   9.884  67.731  1.00  0.00    -0.114 C  
ENDROOT
BRANCH   4  11
ATOM     11  C1*   T A   1      -9.413  13.975  67.418  1.00  0.00    -0.225 C  
ATOM     12  C2*   T A   1     -10.170  14.745  68.497  1.00  0.00    -0.232 C  
ATOM     13  C3*   T A   1     -11.607  14.417  68.185  1.00  0.00    -0.329 C  
ATOM     14  C4*   T A   1     -11.594  14.464  66.663  1.00  0.00    -0.384 C  
ATOM     15  O3*   T A   1     -12.521  15.343  68.751  1.00  0.00    -0.573 OA 
ATOM     16  H3*   T A   1     -13.427  15.136  68.554  1.00  0.00     0.000 HD 
ATOM     17  O4*   T A   1     -10.268  14.062  66.246  1.00  0.00    -0.281 OA 
BRANCH  14  18
ATOM     18  C5*   T A   1     -12.647  13.563  66.019  1.00  0.00    -0.348 C  
ATOM     19  O5*   T A   1     -12.102  12.814  64.935  1.00  0.00    -0.386 OA 
ATOM     20  H5*   T A   1     -12.757  12.254  64.534  1.00  0.00     0.000 HD 
ENDBRANCH  14  18
ENDBRANCH   4  11
TORSDOF 2
ENDMDL
MODEL      139
REMARK 921   NORMALIZED FREE ENERGY PREDICTED BY IDOCK:   -3.62 KCAL/MOL
REMARK 922        TOTAL FREE ENERGY PREDICTED BY IDOCK:   -4.36 KCAL/MOL
REMARK 923 INTER-LIGAND FREE ENERGY PREDICTED BY IDOCK:   -4.18 KCAL/MOL
REMARK 924 INTRA-LIGAND FREE ENERGY PREDICTED BY IDOCK:   -0.18 KCAL/MOL
REMARK 927      BINDING AFFINITY PREDICTED BY RF-SCORE:    0.00 PKD
ROOT
ATOM      1  C5M   T A   1     -12.419   8.577  71.859  1.00  0.00    -0.402 C  
ATOM      2  C5    T A   1     -10.986   8.815  71.511  1.00  0.00    -0.377 C  
ATOM      3  C6    T A   1     -10.556   9.300  70.341  1.00  0.00    -0.248 C  
ATOM      4  N1    T A   1      -9.209   9.468  70.033  1.00  0.00    -0.218 N  
ATOM      5  O4    T A   1     -10.267   7.887  73.569  1.00  0.00    -0.282 OA 
ATOM      6  C2    T A   1      -8.241   9.017  70.925  1.00  0.00    -0.185 C  
ATOM      7  O2    T A   1      -7.059   8.834  70.649  1.00  0.00    -0.049 OA 
ATOM      8  H3    T A   1      -7.990   8.734  72.939  1.00  0.00     0.000 HD 
ATOM      9  N3    T A   1      -8.681   8.733  72.189  1.00  0.00    -0.138 N  
ATOM     10  C4    T A   1      -9.971   8.449  72.521  1.00  0.00    -0.285 C  
ENDROOT
BRANCH   4  11
ATOM     11  C1*   T A   1      -8.837   9.798  68.645  1.00  0.00    -0.126 C  
ATOM     12  C2*   T A   1      -7.965  11.026  68.390  1.00  0.00    -0.131 C  
ATOM     13  C3*   T A   1      -8.979  12.140  68.334  1.00  0.00    -0.146 C  
ATOM     14  C4*   T A   1     -10.109  11.467  67.567  1.00  0.00    -0.183 C  
ATOM     15  O3*   T A   1      -8.489  13.299  67.677  1.00  0.00    -0.164 OA 
ATOM     16  H3*   T A   1      -9.129  14.001  67.641  1.00  0.00     0.000 HD 
ATOM     17  O4*   T A   1     -10.053  10.059  67.895  1.00  0.00    -0.156 OA 
BRANCH  14  18
ATOM     18  C5*   T A   1     -11.489  12.034  67.899  1.00  0.00    -0.330 C  
ATOM     19  O5*   T A   1     -12.384  11.011  68.330  1.00  0.00    -0.762 OA 
ATOM     20  H5*   T A   1     -13.243  11.363  68.537  1.00  0.00     0.000 HD 
ENDBRANCH  14  18
ENDBRANCH   4  11
TORSDOF 2
ENDMDL
MODEL      140
REMARK 921   NORMALIZED FREE ENERGY PREDICTED BY IDOCK:   -3.60 KCAL/MOL
REMARK 922        TOTAL FREE ENERGY PREDICTED BY IDOCK:   -4.35 KCAL/MOL
REMARK 923 INTER-LIGAND FREE ENERGY PREDICTED BY IDOCK:   -4.42 KCAL/MOL
REMARK 924 INTRA-LIGAND FREE ENERGY PREDICTED BY IDOCK:    0.08 KCAL/MOL
REMARK 927      BINDING AFFINITY PREDICTED BY RF-SCORE:    0.00 PKD
ROOT
ATOM      1  C5M   T A   1     -10.950   3.009  73.649  1.00  0.00    -0.323 C  
ATOM      2  C5    T A   1     -10.223   4.313  73.674  1.00  0.00    -0.214 C  
ATOM      3  C6    T A   1     -10.721   5.473  73.231  1.00  0.00    -0.274 C  
ATOM      4  N1    T A   1      -9.999   6.662  73.229  1.00  0.00    -0.176 N  
ATOM      5  O4    T A   1      -8.260   3.273  74.500  1.00  0.00    -0.068 OA 
ATOM      6  C2    T A   1      -8.657   6.650  73.598  1.00  0.00    -0.123 C  
ATOM      7  O2    T A   1      -7.851   7.544  73.356  1.00  0.00    -0.099 OA 
ATOM      8  H3    T A   1      -7.387   5.605  74.820  1.00  0.00     0.000 HD 
ATOM      9  N3    T A   1      -8.227   5.525  74.248  1.00  0.00    -0.105 N  
ATOM     10  C4    T A   1      -8.837   4.309  74.189  1.00  0.00    -0.095 C  
ENDROOT
BRANCH   4  11
ATOM     11  C1*   T A   1     -10.558   7.827  72.520  1.00  0.00    -0.293 C  
ATOM     12  C2*   T A   1     -12.074   8.012  72.492  1.00  0.00    -0.338 C  
ATOM     13  C3*   T A   1     -12.485   7.161  71.319  1.00  0.00    -0.386 C  
ATOM     14  C4*   T A   1     -11.364   7.461  70.334  1.00  0.00    -0.249 C  
ATOM     15  O3*   T A   1     -13.765   7.503  70.809  1.00  0.00    -0.573 OA 
ATOM     16  H3*   T A   1     -14.024   6.966  70.070  1.00  0.00     0.000 HD 
ATOM     17  O4*   T A   1     -10.181   7.735  71.120  1.00  0.00    -0.195 OA 
BRANCH  14  18
ATOM     18  C5*   T A   1     -11.096   6.318  69.355  1.00  0.00    -0.410 C  
ATOM     19  O5*   T A   1     -11.687   6.570  68.081  1.00  0.00    -0.504 OA 
ATOM     20  H5*   T A   1     -11.521   5.860  67.473  1.00  0.00     0.000 HD 
ENDBRANCH  14  18
ENDBRANCH   4  11
TORSDOF 2
ENDMDL
MODEL      141
REMARK 921   NORMALIZED FREE ENERGY PREDICTED BY IDOCK:   -3.60 KCAL/MOL
REMARK 922        TOTAL FREE ENERGY PREDICTED BY IDOCK:   -4.34 KCAL/MOL
REMARK 923 INTER-LIGAND FREE ENERGY PREDICTED BY IDOCK:   -4.07 KCAL/MOL
REMARK 924 INTRA-LIGAND FREE ENERGY PREDICTED BY IDOCK:   -0.28 KCAL/MOL
REMARK 927      BINDING AFFINITY PREDICTED BY RF-SCORE:    0.00 PKD
ROOT
ATOM      1  C5M   T A   1      -8.495   7.330  67.735  1.00  0.00    -0.121 C  
ATOM      2  C5    T A   1      -9.365   8.534  67.890  1.00  0.00    -0.148 C  
ATOM      3  C6    T A   1      -9.479   9.514  66.987  1.00  0.00    -0.155 C  
ATOM      4  N1    T A   1     -10.265  10.645  67.183  1.00  0.00    -0.206 N  
ATOM      5  O4    T A   1      -9.983   7.881  70.082  1.00  0.00    -0.188 OA 
ATOM      6  C2    T A   1     -10.887  10.842  68.412  1.00  0.00    -0.232 C  
ATOM      7  O2    T A   1     -11.345  11.910  68.808  1.00  0.00    -0.227 OA 
ATOM      8  H3    T A   1     -11.661   9.744  69.961  1.00  0.00     0.000 HD 
ATOM      9  N3    T A   1     -10.946   9.749  69.233  1.00  0.00    -0.219 N  
ATOM     10  C4    T A   1     -10.122   8.667  69.153  1.00  0.00    -0.199 C  
ENDROOT
BRANCH   4  11
ATOM     11  C1*   T A   1     -10.148  11.762  66.229  1.00  0.00    -0.217 C  
ATOM     12  C2*   T A   1     -11.379  12.170  65.421  1.00  0.00    -0.388 C  
ATOM     13  C3*   T A   1     -11.328  11.225  64.249  1.00  0.00    -0.045 C  
ATOM     14  C4*   T A   1      -9.834  11.198  63.959  1.00  0.00    -0.302 C  
ATOM     15  O3*   T A   1     -12.090  11.678  63.140  1.00  0.00    -0.905 OA 
ATOM     16  H3*   T A   1     -12.058  11.082  62.401  1.00  0.00     0.000 HD 
ATOM     17  O4*   T A   1      -9.162  11.404  65.224  1.00  0.00    -0.205 OA 
BRANCH  14  18
ATOM     18  C5*   T A   1      -9.364   9.894  63.316  1.00  0.00    -0.178 C  
ATOM     19  O5*   T A   1      -8.085   9.498  63.810  1.00  0.00    -0.133 OA 
ATOM     20  H5*   T A   1      -7.793   8.687  63.410  1.00  0.00     0.000 HD 
ENDBRANCH  14  18
ENDBRANCH   4  11
TORSDOF 2
ENDMDL
MODEL      142
REMARK 921   NORMALIZED FREE ENERGY PREDICTED BY IDOCK:   -3.58 KCAL/MOL
REMARK 922        TOTAL FREE ENERGY PREDICTED BY IDOCK:   -4.32 KCAL/MOL
REMARK 923 INTER-LIGAND FREE ENERGY PREDICTED BY IDOCK:   -4.47 KCAL/MOL
REMARK 924 INTRA-LIGAND FREE ENERGY PREDICTED BY IDOCK:    0.15 KCAL/MOL
REMARK 927      BINDING AFFINITY PREDICTED BY RF-SCORE:    0.00 PKD
ROOT
ATOM      1  C5M   T A   1      -9.978  10.901  64.815  1.00  0.00    -0.366 C  
ATOM      2  C5    T A   1     -10.616  11.144  66.143  1.00  0.00    -0.305 C  
ATOM      3  C6    T A   1     -11.035  12.337  66.581  1.00  0.00    -0.278 C  
ATOM      4  N1    T A   1     -11.586  12.536  67.843  1.00  0.00    -0.328 N  
ATOM      5  O4    T A   1     -10.290   8.887  66.784  1.00  0.00    -0.269 OA 
ATOM      6  C2    T A   1     -11.614  11.483  68.753  1.00  0.00    -0.316 C  
ATOM      7  O2    T A   1     -11.787  11.600  69.962  1.00  0.00    -0.320 OA 
ATOM      8  H3    T A   1     -11.730   9.437  68.764  1.00  0.00     0.000 HD 
ATOM      9  N3    T A   1     -11.392  10.238  68.231  1.00  0.00    -0.235 N  
ATOM     10  C4    T A   1     -10.756   9.987  67.053  1.00  0.00    -0.178 C  
ENDROOT
BRANCH   4  11
ATOM     11  C1*   T A   1     -11.809  13.917  68.308  1.00  0.00    -0.376 C  
ATOM     12  C2*   T A   1     -11.753  15.053  67.288  1.00  0.00    -0.238 C  
ATOM     13  C3*   T A   1     -10.280  15.363  67.225  1.00  0.00    -0.254 C  
ATOM     14  C4*   T A   1      -9.893  15.237  68.692  1.00  0.00    -0.211 C  
ATOM     15  O3*   T A   1     -10.008  16.652  66.698  1.00  0.00    -0.259 OA 
ATOM     16  H3*   T A   1      -9.080  16.847  66.658  1.00  0.00     0.000 HD 
ATOM     17  O4*   T A   1     -10.775  14.249  69.272  1.00  0.00    -0.232 OA 
BRANCH  14  18
ATOM     18  C5*   T A   1      -8.433  14.832  68.901  1.00  0.00    -0.159 C  
ATOM     19  O5*   T A   1      -7.998  15.114  70.230  1.00  0.00    -0.149 OA 
ATOM     20  H5*   T A   1      -7.091  14.862  70.360  1.00  0.00     0.000 HD 
ENDBRANCH  14  18
ENDBRANCH   4  11
TORSDOF 2
ENDMDL
MODEL      143
REMARK 921   NORMALIZED FREE ENERGY PREDICTED BY IDOCK:   -3.58 KCAL/MOL
REMARK 922        TOTAL FREE ENERGY PREDICTED BY IDOCK:   -4.32 KCAL/MOL
REMARK 923 INTER-LIGAND FREE ENERGY PREDICTED BY IDOCK:   -4.11 KCAL/MOL
REMARK 924 INTRA-LIGAND FREE ENERGY PREDICTED BY IDOCK:   -0.21 KCAL/MOL
REMARK 927      BINDING AFFINITY PREDICTED BY RF-SCORE:    0.00 PKD
ROOT
ATOM      1  C5M   T A   1     -12.725   9.596  71.931  1.00  0.00    -0.499 C  
ATOM      2  C5    T A   1     -11.940   8.770  70.966  1.00  0.00    -0.291 C  
ATOM      3  C6    T A   1     -11.329   9.246  69.876  1.00  0.00    -0.061 C  
ATOM      4  N1    T A   1     -10.642   8.441  68.972  1.00  0.00    -0.195 N  
ATOM      5  O4    T A   1     -12.500   6.777  72.119  1.00  0.00    -0.266 OA 
ATOM      6  C2    T A   1     -10.669   7.059  69.129  1.00  0.00    -0.218 C  
ATOM      7  O2    T A   1     -10.370   6.244  68.260  1.00  0.00    -0.155 OA 
ATOM      8  H3    T A   1     -10.823   5.662  70.622  1.00  0.00     0.000 HD 
ATOM      9  N3    T A   1     -11.100   6.604  70.346  1.00  0.00    -0.296 N  
ATOM     10  C4    T A   1     -11.870   7.314  71.216  1.00  0.00    -0.307 C  
ENDROOT
BRANCH   4  11
ATOM     11  C1*   T A   1     -10.196   9.029  67.697  1.00  0.00    -0.242 C  
ATOM     12  C2*   T A   1      -8.797   9.635  67.616  1.00  0.00    -0.127 C  
ATOM     13  C3*   T A   1      -9.015  11.034  68.131  1.00  0.00    -0.152 C  
ATOM     14  C4*   T A   1     -10.354  11.374  67.490  1.00  0.00    -0.195 C  
ATOM     15  O3*   T A   1      -7.984  11.931  67.748  1.00  0.00    -0.127 OA 
ATOM     16  H3*   T A   1      -8.123  12.813  68.073  1.00  0.00     0.000 HD 
ATOM     17  O4*   T A   1     -11.084  10.131  67.366  1.00  0.00    -0.283 OA 
BRANCH  14  18
ATOM     18  C5*   T A   1     -11.169  12.389  68.292  1.00  0.00    -0.263 C  
ATOM     19  O5*   T A   1     -10.344  13.124  69.196  1.00  0.00    -0.434 OA 
ATOM     20  H5*   T A   1     -10.851  13.755  69.694  1.00  0.00     0.000 HD 
ENDBRANCH  14  18
ENDBRANCH   4  11
TORSDOF 2
ENDMDL
MODEL      144
REMARK 921   NORMALIZED FREE ENERGY PREDICTED BY IDOCK:   -3.55 KCAL/MOL
REMARK 922        TOTAL FREE ENERGY PREDICTED BY IDOCK:   -4.28 KCAL/MOL
REMARK 923 INTER-LIGAND FREE ENERGY PREDICTED BY IDOCK:   -3.82 KCAL/MOL
REMARK 924 INTRA-LIGAND FREE ENERGY PREDICTED BY IDOCK:   -0.47 KCAL/MOL
REMARK 927      BINDING AFFINITY PREDICTED BY RF-SCORE:    0.00 PKD
ROOT
ATOM      1  C5M   T A   1      -8.628   7.190  65.950  1.00  0.00    -0.157 C  
ATOM      2  C5    T A   1      -9.323   8.224  66.774  1.00  0.00    -0.232 C  
ATOM      3  C6    T A   1      -9.711   8.053  68.043  1.00  0.00    -0.160 C  
ATOM      4  N1    T A   1     -10.396   9.023  68.768  1.00  0.00    -0.212 N  
ATOM      5  O4    T A   1      -9.430   9.710  64.932  1.00  0.00    -0.267 OA 
ATOM      6  C2    T A   1     -10.805  10.192  68.133  1.00  0.00    -0.262 C  
ATOM      7  O2    T A   1     -11.654  10.968  68.563  1.00  0.00    -0.287 OA 
ATOM      8  H3    T A   1     -10.223  11.415  66.595  1.00  0.00     0.000 HD 
ATOM      9  N3    T A   1     -10.222  10.449  66.923  1.00  0.00    -0.218 N  
ATOM     10  C4    T A   1      -9.638   9.513  66.123  1.00  0.00    -0.239 C  
ENDROOT
BRANCH   4  11
ATOM     11  C1*   T A   1     -10.969   8.655  70.075  1.00  0.00    -0.203 C  
ATOM     12  C2*   T A   1     -10.482   9.389  71.324  1.00  0.00    -0.385 C  
ATOM     13  C3*   T A   1      -9.247   8.611  71.698  1.00  0.00    -0.256 C  
ATOM     14  C4*   T A   1      -9.704   7.186  71.419  1.00  0.00    -0.168 C  
ATOM     15  O3*   T A   1      -8.861   8.804  73.051  1.00  0.00    -0.340 OA 
ATOM     16  H3*   T A   1      -8.083   8.314  73.286  1.00  0.00     0.000 HD 
ATOM     17  O4*   T A   1     -10.659   7.260  70.335  1.00  0.00    -0.217 OA 
BRANCH  14  18
ATOM     18  C5*   T A   1      -8.558   6.242  71.053  1.00  0.00    -0.132 C  
ATOM     19  O5*   T A   1      -7.305   6.734  71.526  1.00  0.00    -0.083 OA 
ATOM     20  H5*   T A   1      -6.593   6.147  71.298  1.00  0.00     0.000 HD 
ENDBRANCH  14  18
ENDBRANCH   4  11
TORSDOF 2
ENDMDL
MODEL      145
REMARK 921   NORMALIZED FREE ENERGY PREDICTED BY IDOCK:   -3.53 KCAL/MOL
REMARK 922        TOTAL FREE ENERGY PREDICTED BY IDOCK:   -4.27 KCAL/MOL
REMARK 923 INTER-LIGAND FREE ENERGY PREDICTED BY IDOCK:   -3.82 KCAL/MOL
REMARK 924 INTRA-LIGAND FREE ENERGY PREDICTED BY IDOCK:   -0.45 KCAL/MOL
REMARK 927      BINDING AFFINITY PREDICTED BY RF-SCORE:    0.00 PKD
ROOT
ATOM      1  C5M   T A   1      -7.391  11.467  68.803  1.00  0.00    -0.114 C  
ATOM      2  C5    T A   1      -7.667  10.032  69.111  1.00  0.00    -0.104 C  
ATOM      3  C6    T A   1      -8.560   9.603  70.010  1.00  0.00    -0.215 C  
ATOM      4  N1    T A   1      -8.761   8.258  70.304  1.00  0.00    -0.137 N  
ATOM      5  O4    T A   1      -5.944   9.322  67.648  1.00  0.00    -0.051 OA 
ATOM      6  C2    T A   1      -7.932   7.299  69.729  1.00  0.00    -0.123 C  
ATOM      7  O2    T A   1      -7.809   6.144  70.125  1.00  0.00    -0.098 OA 
ATOM      8  H3    T A   1      -6.842   7.007  68.018  1.00  0.00     0.000 HD 
ATOM      9  N3    T A   1      -7.185   7.719  68.662  1.00  0.00    -0.083 N  
ATOM     10  C4    T A   1      -6.865   9.016  68.396  1.00  0.00    -0.064 C  
ENDROOT
BRANCH   4  11
ATOM     11  C1*   T A   1      -9.603   7.905  71.461  1.00  0.00    -0.151 C  
ATOM     12  C2*   T A   1     -10.753   6.919  71.259  1.00  0.00    -0.249 C  
ATOM     13  C3*   T A   1     -11.868   7.812  70.779  1.00  0.00    -0.187 C  
ATOM     14  C4*   T A   1     -11.665   9.034  71.664  1.00  0.00    -0.361 C  
ATOM     15  O3*   T A   1     -13.152   7.229  70.942  1.00  0.00    -0.594 OA 
ATOM     16  H3*   T A   1     -13.854   7.792  70.639  1.00  0.00     0.000 HD 
ATOM     17  O4*   T A   1     -10.247   9.114  71.944  1.00  0.00    -0.332 OA 
BRANCH  14  18
ATOM     18  C5*   T A   1     -12.152  10.334  71.024  1.00  0.00    -0.386 C  
ATOM     19  O5*   T A   1     -13.401  10.152  70.357  1.00  0.00    -0.573 OA 
ATOM     20  H5*   T A   1     -13.704  10.959  69.959  1.00  0.00     0.000 HD 
ENDBRANCH  14  18
ENDBRANCH   4  11
TORSDOF 2
ENDMDL
MODEL      146
REMARK 921   NORMALIZED FREE ENERGY PREDICTED BY IDOCK:   -3.52 KCAL/MOL
REMARK 922        TOTAL FREE ENERGY PREDICTED BY IDOCK:   -4.25 KCAL/MOL
REMARK 923 INTER-LIGAND FREE ENERGY PREDICTED BY IDOCK:   -3.91 KCAL/MOL
REMARK 924 INTRA-LIGAND FREE ENERGY PREDICTED BY IDOCK:   -0.34 KCAL/MOL
REMARK 927      BINDING AFFINITY PREDICTED BY RF-SCORE:    0.00 PKD
ROOT
ATOM      1  C5M   T A   1      -8.432   7.000  66.156  1.00  0.00    -0.136 C  
ATOM      2  C5    T A   1      -9.371   6.988  67.317  1.00  0.00    -0.153 C  
ATOM      3  C6    T A   1      -9.550   8.009  68.163  1.00  0.00    -0.153 C  
ATOM      4  N1    T A   1     -10.401   7.949  69.262  1.00  0.00    -0.217 N  
ATOM      5  O4    T A   1      -9.932   4.721  66.921  1.00  0.00    -0.189 OA 
ATOM      6  C2    T A   1     -11.024   6.747  69.582  1.00  0.00    -0.288 C  
ATOM      7  O2    T A   1     -11.541   6.486  70.664  1.00  0.00    -0.348 OA 
ATOM      8  H3    T A   1     -11.718   5.057  68.652  1.00  0.00     0.000 HD 
ATOM      9  N3    T A   1     -11.011   5.790  68.604  1.00  0.00    -0.216 N  
ATOM     10  C4    T A   1     -10.125   5.742  67.570  1.00  0.00    -0.171 C  
ENDROOT
BRANCH   4  11
ATOM     11  C1*   T A   1     -10.358   9.042  70.250  1.00  0.00    -0.209 C  
ATOM     12  C2*   T A   1     -11.670   9.541  70.852  1.00  0.00    -0.391 C  
ATOM     13  C3*   T A   1     -12.137  10.546  69.830  1.00  0.00    -0.245 C  
ATOM     14  C4*   T A   1     -10.821  11.216  69.458  1.00  0.00    -0.188 C  
ATOM     15  O3*   T A   1     -13.087  11.463  70.351  1.00  0.00     0.035 OA 
ATOM     16  H3*   T A   1     -13.381  12.096  69.706  1.00  0.00     0.000 HD 
ATOM     17  O4*   T A   1      -9.787  10.215  69.611  1.00  0.00    -0.224 OA 
BRANCH  14  18
ATOM     18  C5*   T A   1     -10.808  11.779  68.037  1.00  0.00    -0.213 C  
ATOM     19  O5*   T A   1     -12.094  11.683  67.425  1.00  0.00    -0.605 OA 
ATOM     20  H5*   T A   1     -12.086  12.032  66.541  1.00  0.00     0.000 HD 
ENDBRANCH  14  18
ENDBRANCH   4  11
TORSDOF 2
ENDMDL
MODEL      147
REMARK 921   NORMALIZED FREE ENERGY PREDICTED BY IDOCK:   -3.51 KCAL/MOL
REMARK 922        TOTAL FREE ENERGY PREDICTED BY IDOCK:   -4.25 KCAL/MOL
REMARK 923 INTER-LIGAND FREE ENERGY PREDICTED BY IDOCK:   -4.08 KCAL/MOL
REMARK 924 INTRA-LIGAND FREE ENERGY PREDICTED BY IDOCK:   -0.17 KCAL/MOL
REMARK 927      BINDING AFFINITY PREDICTED BY RF-SCORE:    0.00 PKD
ROOT
ATOM      1  C5M   T A   1      -9.195   2.421  70.465  1.00  0.00    -0.194 C  
ATOM      2  C5    T A   1      -9.558   3.578  69.593  1.00  0.00    -0.184 C  
ATOM      3  C6    T A   1     -10.079   4.729  70.032  1.00  0.00    -0.238 C  
ATOM      4  N1    T A   1     -10.447   5.772  69.186  1.00  0.00    -0.249 N  
ATOM      5  O4    T A   1      -9.006   2.359  67.639  1.00  0.00    -0.123 OA 
ATOM      6  C2    T A   1     -10.381   5.591  67.809  1.00  0.00    -0.189 C  
ATOM      7  O2    T A   1     -10.945   6.297  66.977  1.00  0.00    -0.355 OA 
ATOM      8  H3    T A   1      -9.298   4.536  66.425  1.00  0.00     0.000 HD 
ATOM      9  N3    T A   1      -9.652   4.516  67.381  1.00  0.00    -0.165 N  
ATOM     10  C4    T A   1      -9.362   3.420  68.137  1.00  0.00    -0.184 C  
ENDROOT
BRANCH   4  11
ATOM     11  C1*   T A   1     -11.212   6.900  69.747  1.00  0.00    -0.267 C  
ATOM     12  C2*   T A   1     -10.492   8.223  69.999  1.00  0.00    -0.231 C  
ATOM     13  C3*   T A   1      -9.892   8.013  71.365  1.00  0.00    -0.171 C  
ATOM     14  C4*   T A   1     -11.020   7.272  72.068  1.00  0.00    -0.238 C  
ATOM     15  O3*   T A   1      -9.552   9.229  72.013  1.00  0.00    -0.235 OA 
ATOM     16  H3*   T A   1      -9.174   9.096  72.874  1.00  0.00     0.000 HD 
ATOM     17  O4*   T A   1     -11.714   6.509  71.053  1.00  0.00    -0.330 OA 
BRANCH  14  18
ATOM     18  C5*   T A   1     -10.535   6.348  73.186  1.00  0.00    -0.243 C  
ATOM     19  O5*   T A   1     -11.433   5.258  73.389  1.00  0.00    -0.483 OA 
ATOM     20  H5*   T A   1     -11.131   4.683  74.084  1.00  0.00     0.000 HD 
ENDBRANCH  14  18
ENDBRANCH   4  11
TORSDOF 2
ENDMDL
MODEL      148
REMARK 921   NORMALIZED FREE ENERGY PREDICTED BY IDOCK:   -3.51 KCAL/MOL
REMARK 922        TOTAL FREE ENERGY PREDICTED BY IDOCK:   -4.24 KCAL/MOL
REMARK 923 INTER-LIGAND FREE ENERGY PREDICTED BY IDOCK:   -3.83 KCAL/MOL
REMARK 924 INTRA-LIGAND FREE ENERGY PREDICTED BY IDOCK:   -0.41 KCAL/MOL
REMARK 927      BINDING AFFINITY PREDICTED BY RF-SCORE:    0.00 PKD
ROOT
ATOM      1  C5M   T A   1     -11.740   6.484  72.201  1.00  0.00    -0.353 C  
ATOM      2  C5    T A   1     -11.115   7.481  71.281  1.00  0.00    -0.267 C  
ATOM      3  C6    T A   1     -10.231   7.184  70.323  1.00  0.00    -0.198 C  
ATOM      4  N1    T A   1      -9.634   8.144  69.511  1.00  0.00    -0.167 N  
ATOM      5  O4    T A   1     -12.177   9.277  72.404  1.00  0.00    -0.282 OA 
ATOM      6  C2    T A   1      -9.868   9.492  69.759  1.00  0.00    -0.215 C  
ATOM      7  O2    T A   1      -9.187  10.418  69.327  1.00  0.00    -0.194 OA 
ATOM      8  H3    T A   1     -11.335  10.705  70.520  1.00  0.00     0.000 HD 
ATOM      9  N3    T A   1     -10.925   9.773  70.581  1.00  0.00    -0.307 N  
ATOM     10  C4    T A   1     -11.472   8.903  71.474  1.00  0.00    -0.321 C  
ENDROOT
BRANCH   4  11
ATOM     11  C1*   T A   1      -8.515   7.738  68.641  1.00  0.00    -0.129 C  
ATOM     12  C2*   T A   1      -8.615   8.008  67.141  1.00  0.00    -0.124 C  
ATOM     13  C3*   T A   1      -9.377   6.808  66.643  1.00  0.00    -0.165 C  
ATOM     14  C4*   T A   1      -8.753   5.699  67.478  1.00  0.00    -0.107 C  
ATOM     15  O3*   T A   1      -9.220   6.594  65.248  1.00  0.00    -0.341 OA 
ATOM     16  H3*   T A   1      -9.701   5.837  64.934  1.00  0.00     0.000 HD 
ATOM     17  O4*   T A   1      -8.361   6.296  68.736  1.00  0.00    -0.118 OA 
BRANCH  14  18
ATOM     18  C5*   T A   1      -9.696   4.520  67.722  1.00  0.00    -0.145 C  
ATOM     19  O5*   T A   1      -9.919   3.773  66.527  1.00  0.00    -0.398 OA 
ATOM     20  H5*   T A   1     -10.506   3.041  66.679  1.00  0.00     0.000 HD 
ENDBRANCH  14  18
ENDBRANCH   4  11
TORSDOF 2
ENDMDL
MODEL      149
REMARK 921   NORMALIZED FREE ENERGY PREDICTED BY IDOCK:   -3.50 KCAL/MOL
REMARK 922        TOTAL FREE ENERGY PREDICTED BY IDOCK:   -4.23 KCAL/MOL
REMARK 923 INTER-LIGAND FREE ENERGY PREDICTED BY IDOCK:   -4.13 KCAL/MOL
REMARK 924 INTRA-LIGAND FREE ENERGY PREDICTED BY IDOCK:   -0.10 KCAL/MOL
REMARK 927      BINDING AFFINITY PREDICTED BY RF-SCORE:    0.00 PKD
ROOT
ATOM      1  C5M   T A   1      -9.745   4.328  69.464  1.00  0.00    -0.272 C  
ATOM      2  C5    T A   1      -9.301   5.174  70.612  1.00  0.00    -0.211 C  
ATOM      3  C6    T A   1     -10.073   6.063  71.247  1.00  0.00    -0.192 C  
ATOM      4  N1    T A   1      -9.614   6.867  72.286  1.00  0.00    -0.148 N  
ATOM      5  O4    T A   1      -7.087   4.346  70.448  1.00  0.00    -0.043 OA 
ATOM      6  C2    T A   1      -8.266   6.842  72.628  1.00  0.00    -0.109 C  
ATOM      7  O2    T A   1      -7.692   7.696  73.298  1.00  0.00    -0.099 OA 
ATOM      8  H3    T A   1      -6.679   5.545  72.615  1.00  0.00     0.000 HD 
ATOM      9  N3    T A   1      -7.544   5.790  72.134  1.00  0.00    -0.099 N  
ATOM     10  C4    T A   1      -7.895   5.044  71.050  1.00  0.00    -0.092 C  
ENDROOT
BRANCH   4  11
ATOM     11  C1*   T A   1     -10.476   7.963  72.766  1.00  0.00    -0.346 C  
ATOM     12  C2*   T A   1     -11.985   7.858  72.551  1.00  0.00    -0.349 C  
ATOM     13  C3*   T A   1     -12.154   8.399  71.155  1.00  0.00    -0.249 C  
ATOM     14  C4*   T A   1     -11.165   9.557  71.169  1.00  0.00    -0.376 C  
ATOM     15  O3*   T A   1     -13.482   8.821  70.884  1.00  0.00    -0.524 OA 
ATOM     16  H3*   T A   1     -13.589   9.162  70.003  1.00  0.00     0.000 HD 
ATOM     17  O4*   T A   1     -10.098   9.181  72.070  1.00  0.00    -0.279 OA 
BRANCH  14  18
ATOM     18  C5*   T A   1     -10.600   9.887  69.787  1.00  0.00    -0.264 C  
ATOM     19  O5*   T A   1     -11.640  10.121  68.839  1.00  0.00    -0.483 OA 
ATOM     20  H5*   T A   1     -11.289  10.326  67.980  1.00  0.00     0.000 HD 
ENDBRANCH  14  18
ENDBRANCH   4  11
TORSDOF 2
ENDMDL
MODEL      150
REMARK 921   NORMALIZED FREE ENERGY PREDICTED BY IDOCK:   -3.48 KCAL/MOL
REMARK 922        TOTAL FREE ENERGY PREDICTED BY IDOCK:   -4.22 KCAL/MOL
REMARK 923 INTER-LIGAND FREE ENERGY PREDICTED BY IDOCK:   -3.84 KCAL/MOL
REMARK 924 INTRA-LIGAND FREE ENERGY PREDICTED BY IDOCK:   -0.37 KCAL/MOL
REMARK 927      BINDING AFFINITY PREDICTED BY RF-SCORE:    0.00 PKD
ROOT
ATOM      1  C5M   T A   1     -10.521  16.408  66.568  1.00  0.00    -0.282 C  
ATOM      2  C5    T A   1      -9.307  15.631  66.956  1.00  0.00    -0.241 C  
ATOM      3  C6    T A   1      -8.156  16.171  67.373  1.00  0.00    -0.159 C  
ATOM      4  N1    T A   1      -7.028  15.419  67.685  1.00  0.00    -0.167 N  
ATOM      5  O4    T A   1     -10.341  13.589  66.345  1.00  0.00    -0.278 OA 
ATOM      6  C2    T A   1      -7.036  14.046  67.458  1.00  0.00    -0.160 C  
ATOM      7  O2    T A   1      -6.037  13.334  67.405  1.00  0.00    -0.298 OA 
ATOM      8  H3    T A   1      -8.360  12.482  67.416  1.00  0.00     0.000 HD 
ATOM      9  N3    T A   1      -8.265  13.483  67.248  1.00  0.00    -0.175 N  
ATOM     10  C4    T A   1      -9.372  14.159  66.832  1.00  0.00    -0.264 C  
ENDROOT
BRANCH   4  11
ATOM     11  C1*   T A   1      -5.752  16.120  67.918  1.00  0.00    -0.131 C  
ATOM     12  C2*   T A   1      -5.147  16.096  69.320  1.00  0.00    -0.110 C  
ATOM     13  C3*   T A   1      -5.848  17.244  69.999  1.00  0.00    -0.230 C  
ATOM     14  C4*   T A   1      -5.877  18.272  68.876  1.00  0.00    -0.207 C  
ATOM     15  O3*   T A   1      -5.158  17.712  71.148  1.00  0.00    -0.383 OA 
ATOM     16  H3*   T A   1      -5.600  18.435  71.575  1.00  0.00     0.000 HD 
ATOM     17  O4*   T A   1      -5.947  17.531  67.635  1.00  0.00    -0.139 OA 
BRANCH  14  18
ATOM     18  C5*   T A   1      -7.050  19.247  68.978  1.00  0.00    -0.356 C  
ATOM     19  O5*   T A   1      -6.867  20.175  70.047  1.00  0.00    -0.263 OA 
ATOM     20  H5*   T A   1      -7.596  20.781  70.111  1.00  0.00     0.000 HD 
ENDBRANCH  14  18
ENDBRANCH   4  11
TORSDOF 2
ENDMDL
MODEL      151
REMARK 921   NORMALIZED FREE ENERGY PREDICTED BY IDOCK:   -3.46 KCAL/MOL
REMARK 922        TOTAL FREE ENERGY PREDICTED BY IDOCK:   -4.19 KCAL/MOL
REMARK 923 INTER-LIGAND FREE ENERGY PREDICTED BY IDOCK:   -4.31 KCAL/MOL
REMARK 924 INTRA-LIGAND FREE ENERGY PREDICTED BY IDOCK:    0.12 KCAL/MOL
REMARK 927      BINDING AFFINITY PREDICTED BY RF-SCORE:    0.00 PKD
ROOT
ATOM      1  C5M   T A   1     -10.912  16.802  64.462  1.00  0.00     0.290 C  
ATOM      2  C5    T A   1     -10.457  17.496  65.703  1.00  0.00    -0.156 C  
ATOM      3  C6    T A   1     -10.020  16.877  66.806  1.00  0.00    -0.289 C  
ATOM      4  N1    T A   1      -9.643  17.553  67.962  1.00  0.00    -0.274 N  
ATOM      5  O4    T A   1     -11.033  19.612  64.808  1.00  0.00    -0.122 OA 
ATOM      6  C2    T A   1      -9.823  18.931  68.039  1.00  0.00    -0.352 C  
ATOM      7  O2    T A   1      -9.817  19.586  69.078  1.00  0.00    -0.431 OA 
ATOM      8  H3    T A   1      -9.857  20.569  66.808  1.00  0.00     0.000 HD 
ATOM      9  N3    T A   1     -10.056  19.570  66.852  1.00  0.00    -0.369 N  
ATOM     10  C4    T A   1     -10.532  18.972  65.725  1.00  0.00    -0.309 C  
ENDROOT
BRANCH   4  11
ATOM     11  C1*   T A   1      -9.390  16.773  69.187  1.00  0.00    -0.155 C  
ATOM     12  C2*   T A   1      -8.693  15.420  69.066  1.00  0.00    -0.231 C  
ATOM     13  C3*   T A   1      -9.838  14.488  68.765  1.00  0.00    -0.220 C  
ATOM     14  C4*   T A   1     -10.915  15.044  69.686  1.00  0.00    -0.279 C  
ATOM     15  O3*   T A   1      -9.532  13.130  69.042  1.00  0.00    -0.378 OA 
ATOM     16  H3*   T A   1     -10.255  12.543  68.852  1.00  0.00     0.000 HD 
ATOM     17  O4*   T A   1     -10.668  16.465  69.805  1.00  0.00    -0.322 OA 
BRANCH  14  18
ATOM     18  C5*   T A   1     -12.335  14.795  69.177  1.00  0.00    -0.079 C  
ATOM     19  O5*   T A   1     -13.302  14.988  70.208  1.00  0.00    -0.635 OA 
ATOM     20  H5*   T A   1     -14.184  14.833  69.892  1.00  0.00     0.000 HD 
ENDBRANCH  14  18
ENDBRANCH   4  11
TORSDOF 2
ENDMDL
MODEL      152
REMARK 921   NORMALIZED FREE ENERGY PREDICTED BY IDOCK:   -3.44 KCAL/MOL
REMARK 922        TOTAL FREE ENERGY PREDICTED BY IDOCK:   -4.17 KCAL/MOL
REMARK 923 INTER-LIGAND FREE ENERGY PREDICTED BY IDOCK:   -4.42 KCAL/MOL
REMARK 924 INTRA-LIGAND FREE ENERGY PREDICTED BY IDOCK:    0.25 KCAL/MOL
REMARK 927      BINDING AFFINITY PREDICTED BY RF-SCORE:    0.00 PKD
ROOT
ATOM      1  C5M   T A   1     -10.118   9.567  67.403  1.00  0.00    -0.262 C  
ATOM      2  C5    T A   1      -9.562  10.952  67.455  1.00  0.00    -0.181 C  
ATOM      3  C6    T A   1     -10.286  12.070  67.333  1.00  0.00    -0.207 C  
ATOM      4  N1    T A   1      -9.730  13.345  67.343  1.00  0.00    -0.217 N  
ATOM      5  O4    T A   1      -7.347  10.124  67.608  1.00  0.00    -0.087 OA 
ATOM      6  C2    T A   1      -8.346  13.488  67.369  1.00  0.00    -0.194 C  
ATOM      7  O2    T A   1      -7.737  14.515  67.082  1.00  0.00    -0.184 OA 
ATOM      8  H3    T A   1      -6.690  12.502  68.068  1.00  0.00     0.000 HD 
ATOM      9  N3    T A   1      -7.637  12.369  67.711  1.00  0.00    -0.122 N  
ATOM     10  C4    T A   1      -8.098  11.092  67.612  1.00  0.00    -0.116 C  
ENDROOT
BRANCH   4  11
ATOM     11  C1*   T A   1     -10.583  14.491  66.982  1.00  0.00    -0.278 C  
ATOM     12  C2*   T A   1     -10.099  15.901  67.316  1.00  0.00    -0.260 C  
ATOM     13  C3*   T A   1     -10.553  16.073  68.743  1.00  0.00    -0.262 C  
ATOM     14  C4*   T A   1     -11.921  15.407  68.696  1.00  0.00    -0.216 C  
ATOM     15  O3*   T A   1     -10.622  17.433  69.141  1.00  0.00    -0.354 OA 
ATOM     16  H3*   T A   1     -10.908  17.541  70.040  1.00  0.00     0.000 HD 
ATOM     17  O4*   T A   1     -11.843  14.366  67.694  1.00  0.00    -0.369 OA 
BRANCH  14  18
ATOM     18  C5*   T A   1     -12.355  14.819  70.038  1.00  0.00    -0.316 C  
ATOM     19  O5*   T A   1     -13.501  15.493  70.558  1.00  0.00    -0.794 OA 
ATOM     20  H5*   T A   1     -13.770  15.127  71.393  1.00  0.00     0.000 HD 
ENDBRANCH  14  18
ENDBRANCH   4  11
TORSDOF 2
ENDMDL
MODEL      153
REMARK 921   NORMALIZED FREE ENERGY PREDICTED BY IDOCK:   -3.41 KCAL/MOL
REMARK 922        TOTAL FREE ENERGY PREDICTED BY IDOCK:   -4.13 KCAL/MOL
REMARK 923 INTER-LIGAND FREE ENERGY PREDICTED BY IDOCK:   -4.01 KCAL/MOL
REMARK 924 INTRA-LIGAND FREE ENERGY PREDICTED BY IDOCK:   -0.12 KCAL/MOL
REMARK 927      BINDING AFFINITY PREDICTED BY RF-SCORE:    0.00 PKD
ROOT
ATOM      1  C5M   T A   1      -9.499   4.059  69.000  1.00  0.00    -0.243 C  
ATOM      2  C5    T A   1      -9.731   5.479  68.600  1.00  0.00    -0.186 C  
ATOM      3  C6    T A   1      -9.661   6.526  69.430  1.00  0.00    -0.144 C  
ATOM      4  N1    T A   1      -9.927   7.833  69.033  1.00  0.00    -0.178 N  
ATOM      5  O4    T A   1     -10.312   4.829  66.397  1.00  0.00    -0.263 OA 
ATOM      6  C2    T A   1     -10.396   8.076  67.746  1.00  0.00    -0.231 C  
ATOM      7  O2    T A   1     -10.941   9.113  67.378  1.00  0.00    -0.170 OA 
ATOM      8  H3    T A   1     -10.260   7.281  65.862  1.00  0.00     0.000 HD 
ATOM      9  N3    T A   1     -10.254   7.048  66.855  1.00  0.00    -0.240 N  
ATOM     10  C4    T A   1     -10.105   5.737  67.193  1.00  0.00    -0.181 C  
ENDROOT
BRANCH   4  11
ATOM     11  C1*   T A   1     -10.037   8.877  70.068  1.00  0.00    -0.192 C  
ATOM     12  C2*   T A   1      -9.149   8.780  71.307  1.00  0.00    -0.300 C  
ATOM     13  C3*   T A   1      -9.944   7.870  72.207  1.00  0.00    -0.219 C  
ATOM     14  C4*   T A   1     -11.358   8.374  71.956  1.00  0.00    -0.342 C  
ATOM     15  O3*   T A   1      -9.563   7.973  73.571  1.00  0.00    -0.270 OA 
ATOM     16  H3*   T A   1     -10.065   7.399  74.139  1.00  0.00     0.000 HD 
ATOM     17  O4*   T A   1     -11.391   8.859  70.593  1.00  0.00    -0.261 OA 
BRANCH  14  18
ATOM     18  C5*   T A   1     -12.429   7.302  72.162  1.00  0.00    -0.168 C  
ATOM     19  O5*   T A   1     -11.964   6.256  73.014  1.00  0.00    -0.422 OA 
ATOM     20  H5*   T A   1     -12.629   5.589  73.142  1.00  0.00     0.000 HD 
ENDBRANCH  14  18
ENDBRANCH   4  11
TORSDOF 2
ENDMDL
MODEL      154
REMARK 921   NORMALIZED FREE ENERGY PREDICTED BY IDOCK:   -3.40 KCAL/MOL
REMARK 922        TOTAL FREE ENERGY PREDICTED BY IDOCK:   -4.12 KCAL/MOL
REMARK 923 INTER-LIGAND FREE ENERGY PREDICTED BY IDOCK:   -4.23 KCAL/MOL
REMARK 924 INTRA-LIGAND FREE ENERGY PREDICTED BY IDOCK:    0.11 KCAL/MOL
REMARK 927      BINDING AFFINITY PREDICTED BY RF-SCORE:    0.00 PKD
ROOT
ATOM      1  C5M   T A   1     -10.770   6.715  67.025  1.00  0.00    -0.437 C  
ATOM      2  C5    T A   1     -10.449   5.786  68.149  1.00  0.00    -0.277 C  
ATOM      3  C6    T A   1     -10.797   5.984  69.426  1.00  0.00    -0.363 C  
ATOM      4  N1    T A   1     -10.443   5.118  70.457  1.00  0.00    -0.243 N  
ATOM      5  O4    T A   1      -9.190   4.384  66.713  1.00  0.00    -0.122 OA 
ATOM      6  C2    T A   1      -9.596   4.047  70.191  1.00  0.00    -0.200 C  
ATOM      7  O2    T A   1      -8.982   3.407  71.039  1.00  0.00    -0.082 OA 
ATOM      8  H3    T A   1      -9.115   2.786  68.648  1.00  0.00     0.000 HD 
ATOM      9  N3    T A   1      -9.430   3.731  68.870  1.00  0.00    -0.164 N  
ATOM     10  C4    T A   1      -9.654   4.580  67.830  1.00  0.00    -0.157 C  
ENDROOT
BRANCH   4  11
ATOM     11  C1*   T A   1     -10.685   5.540  71.848  1.00  0.00    -0.231 C  
ATOM     12  C2*   T A   1     -11.933   6.362  72.161  1.00  0.00    -0.346 C  
ATOM     13  C3*   T A   1     -11.482   7.768  71.863  1.00  0.00    -0.275 C  
ATOM     14  C4*   T A   1     -10.065   7.743  72.419  1.00  0.00    -0.226 C  
ATOM     15  O3*   T A   1     -12.294   8.753  72.484  1.00  0.00    -0.372 OA 
ATOM     16  H3*   T A   1     -12.008   9.639  72.296  1.00  0.00     0.000 HD 
ATOM     17  O4*   T A   1      -9.582   6.388  72.268  1.00  0.00    -0.153 OA 
BRANCH  14  18
ATOM     18  C5*   T A   1      -9.122   8.723  71.720  1.00  0.00    -0.235 C  
ATOM     19  O5*   T A   1      -7.854   8.783  72.371  1.00  0.00    -0.351 OA 
ATOM     20  H5*   T A   1      -7.268   9.392  71.937  1.00  0.00     0.000 HD 
ENDBRANCH  14  18
ENDBRANCH   4  11
TORSDOF 2
ENDMDL
MODEL      155
REMARK 921   NORMALIZED FREE ENERGY PREDICTED BY IDOCK:   -3.38 KCAL/MOL
REMARK 922        TOTAL FREE ENERGY PREDICTED BY IDOCK:   -4.10 KCAL/MOL
REMARK 923 INTER-LIGAND FREE ENERGY PREDICTED BY IDOCK:   -3.79 KCAL/MOL
REMARK 924 INTRA-LIGAND FREE ENERGY PREDICTED BY IDOCK:   -0.31 KCAL/MOL
REMARK 927      BINDING AFFINITY PREDICTED BY RF-SCORE:    0.00 PKD
ROOT
ATOM      1  C5M   T A   1     -12.074   9.331  71.663  1.00  0.00    -0.451 C  
ATOM      2  C5    T A   1     -11.519   8.366  70.668  1.00  0.00    -0.235 C  
ATOM      3  C6    T A   1     -10.697   8.694  69.664  1.00  0.00    -0.200 C  
ATOM      4  N1    T A   1     -10.233   7.775  68.727  1.00  0.00    -0.198 N  
ATOM      5  O4    T A   1     -12.785   6.589  71.591  1.00  0.00    -0.290 OA 
ATOM      6  C2    T A   1     -10.717   6.471  68.748  1.00  0.00    -0.272 C  
ATOM      7  O2    T A   1     -10.624   5.669  67.823  1.00  0.00    -0.227 OA 
ATOM      8  H3    T A   1     -11.436   5.098  70.089  1.00  0.00     0.000 HD 
ATOM      9  N3    T A   1     -11.371   6.096  69.890  1.00  0.00    -0.421 N  
ATOM     10  C4    T A   1     -11.942   6.954  70.780  1.00  0.00    -0.373 C  
ENDROOT
BRANCH   4  11
ATOM     11  C1*   T A   1      -9.517   8.276  67.540  1.00  0.00    -0.149 C  
ATOM     12  C2*   T A   1      -8.134   7.710  67.223  1.00  0.00    -0.119 C  
ATOM     13  C3*   T A   1      -7.229   8.565  68.073  1.00  0.00    -0.087 C  
ATOM     14  C4*   T A   1      -7.876   9.932  67.904  1.00  0.00    -0.090 C  
ATOM     15  O3*   T A   1      -5.879   8.544  67.635  1.00  0.00    -0.041 OA 
ATOM     16  H3*   T A   1      -5.308   9.083  68.171  1.00  0.00     0.000 HD 
ATOM     17  O4*   T A   1      -9.291   9.702  67.710  1.00  0.00    -0.128 OA 
BRANCH  14  18
ATOM     18  C5*   T A   1      -7.650  10.861  69.097  1.00  0.00    -0.133 C  
ATOM     19  O5*   T A   1      -7.736  10.154  70.334  1.00  0.00    -0.377 OA 
ATOM     20  H5*   T A   1      -7.596  10.731  71.075  1.00  0.00     0.000 HD 
ENDBRANCH  14  18
ENDBRANCH   4  11
TORSDOF 2
ENDMDL
MODEL      156
REMARK 921   NORMALIZED FREE ENERGY PREDICTED BY IDOCK:   -3.38 KCAL/MOL
REMARK 922        TOTAL FREE ENERGY PREDICTED BY IDOCK:   -4.09 KCAL/MOL
REMARK 923 INTER-LIGAND FREE ENERGY PREDICTED BY IDOCK:   -3.85 KCAL/MOL
REMARK 924 INTRA-LIGAND FREE ENERGY PREDICTED BY IDOCK:   -0.25 KCAL/MOL
REMARK 927      BINDING AFFINITY PREDICTED BY RF-SCORE:    0.00 PKD
ROOT
ATOM      1  C5M   T A   1     -12.580  11.288  71.063  1.00  0.00    -0.495 C  
ATOM      2  C5    T A   1     -12.189   9.854  71.206  1.00  0.00    -0.480 C  
ATOM      3  C6    T A   1     -11.117   9.295  70.634  1.00  0.00    -0.276 C  
ATOM      4  N1    T A   1     -10.805   7.944  70.753  1.00  0.00    -0.228 N  
ATOM      5  O4    T A   1     -14.141   9.382  72.463  1.00  0.00    -0.388 OA 
ATOM      6  C2    T A   1     -11.693   7.091  71.401  1.00  0.00    -0.306 C  
ATOM      7  O2    T A   1     -11.687   5.866  71.312  1.00  0.00    -0.142 OA 
ATOM      8  H3    T A   1     -13.094   7.143  72.896  1.00  0.00     0.000 HD 
ATOM      9  N3    T A   1     -12.657   7.696  72.160  1.00  0.00    -0.235 N  
ATOM     10  C4    T A   1     -13.076   8.983  72.006  1.00  0.00    -0.414 C  
ENDROOT
BRANCH   4  11
ATOM     11  C1*   T A   1      -9.733   7.388  69.908  1.00  0.00    -0.171 C  
ATOM     12  C2*   T A   1      -8.616   6.586  70.571  1.00  0.00    -0.143 C  
ATOM     13  C3*   T A   1      -7.653   7.661  71.004  1.00  0.00    -0.083 C  
ATOM     14  C4*   T A   1      -7.713   8.604  69.810  1.00  0.00    -0.088 C  
ATOM     15  O3*   T A   1      -6.344   7.168  71.243  1.00  0.00    -0.037 OA 
ATOM     16  H3*   T A   1      -5.738   7.847  71.516  1.00  0.00     0.000 HD 
ATOM     17  O4*   T A   1      -9.046   8.491  69.257  1.00  0.00    -0.151 OA 
BRANCH  14  18
ATOM     18  C5*   T A   1      -7.411  10.059  70.170  1.00  0.00    -0.166 C  
ATOM     19  O5*   T A   1      -6.096  10.435  69.764  1.00  0.00    -0.045 OA 
ATOM     20  H5*   T A   1      -5.908  11.339  69.988  1.00  0.00     0.000 HD 
ENDBRANCH  14  18
ENDBRANCH   4  11
TORSDOF 2
ENDMDL
MODEL      157
REMARK 921   NORMALIZED FREE ENERGY PREDICTED BY IDOCK:   -3.36 KCAL/MOL
REMARK 922        TOTAL FREE ENERGY PREDICTED BY IDOCK:   -4.08 KCAL/MOL
REMARK 923 INTER-LIGAND FREE ENERGY PREDICTED BY IDOCK:   -4.17 KCAL/MOL
REMARK 924 INTRA-LIGAND FREE ENERGY PREDICTED BY IDOCK:    0.09 KCAL/MOL
REMARK 927      BINDING AFFINITY PREDICTED BY RF-SCORE:    0.00 PKD
ROOT
ATOM      1  C5M   T A   1      -6.617  19.928  70.079  1.00  0.00    -0.302 C  
ATOM      2  C5    T A   1      -6.292  18.520  69.702  1.00  0.00    -0.217 C  
ATOM      3  C6    T A   1      -6.723  17.909  68.593  1.00  0.00    -0.239 C  
ATOM      4  N1    T A   1      -6.437  16.581  68.293  1.00  0.00    -0.132 N  
ATOM      5  O4    T A   1      -5.132  18.176  71.739  1.00  0.00    -0.563 OA 
ATOM      6  C2    T A   1      -5.765  15.797  69.226  1.00  0.00    -0.111 C  
ATOM      7  O2    T A   1      -5.720  14.571  69.215  1.00  0.00    -0.091 OA 
ATOM      8  H3    T A   1      -4.386  16.003  70.728  1.00  0.00     0.000 HD 
ATOM      9  N3    T A   1      -5.145  16.476  70.240  1.00  0.00    -0.175 N  
ATOM     10  C4    T A   1      -5.466  17.736  70.645  1.00  0.00    -0.213 C  
ENDROOT
BRANCH   4  11
ATOM     11  C1*   T A   1      -7.140  15.943  67.165  1.00  0.00    -0.204 C  
ATOM     12  C2*   T A   1      -7.919  16.826  66.192  1.00  0.00    -0.273 C  
ATOM     13  C3*   T A   1      -9.253  16.970  66.879  1.00  0.00    -0.240 C  
ATOM     14  C4*   T A   1      -9.453  15.563  67.425  1.00  0.00    -0.211 C  
ATOM     15  O3*   T A   1     -10.290  17.364  65.994  1.00  0.00    -0.395 OA 
ATOM     16  H3*   T A   1     -11.131  17.456  66.428  1.00  0.00     0.000 HD 
ATOM     17  O4*   T A   1      -8.136  15.032  67.702  1.00  0.00    -0.145 OA 
BRANCH  14  18
ATOM     18  C5*   T A   1     -10.317  15.520  68.686  1.00  0.00    -0.219 C  
ATOM     19  O5*   T A   1      -9.601  14.971  69.791  1.00  0.00    -0.435 OA 
ATOM     20  H5*   T A   1     -10.138  14.944  70.575  1.00  0.00     0.000 HD 
ENDBRANCH  14  18
ENDBRANCH   4  11
TORSDOF 2
ENDMDL
MODEL      158
REMARK 921   NORMALIZED FREE ENERGY PREDICTED BY IDOCK:   -3.36 KCAL/MOL
REMARK 922        TOTAL FREE ENERGY PREDICTED BY IDOCK:   -4.08 KCAL/MOL
REMARK 923 INTER-LIGAND FREE ENERGY PREDICTED BY IDOCK:   -3.86 KCAL/MOL
REMARK 924 INTRA-LIGAND FREE ENERGY PREDICTED BY IDOCK:   -0.22 KCAL/MOL
REMARK 927      BINDING AFFINITY PREDICTED BY RF-SCORE:    0.00 PKD
ROOT
ATOM      1  C5M   T A   1     -12.822   6.969  71.076  1.00  0.00    -0.258 C  
ATOM      2  C5    T A   1     -11.377   6.593  71.068  1.00  0.00    -0.366 C  
ATOM      3  C6    T A   1     -10.805   5.781  70.172  1.00  0.00    -0.313 C  
ATOM      4  N1    T A   1      -9.463   5.416  70.220  1.00  0.00    -0.156 N  
ATOM      5  O4    T A   1     -10.993   7.778  73.084  1.00  0.00    -0.396 OA 
ATOM      6  C2    T A   1      -8.683   5.813  71.302  1.00  0.00    -0.132 C  
ATOM      7  O2    T A   1      -7.602   5.321  71.610  1.00  0.00    -0.096 OA 
ATOM      8  H3    T A   1      -8.558   7.351  72.651  1.00  0.00     0.000 HD 
ATOM      9  N3    T A   1      -9.207   6.808  72.082  1.00  0.00    -0.138 N  
ATOM     10  C4    T A   1     -10.529   7.128  72.155  1.00  0.00    -0.206 C  
ENDROOT
BRANCH   4  11
ATOM     11  C1*   T A   1      -8.988   4.348  69.322  1.00  0.00    -0.099 C  
ATOM     12  C2*   T A   1      -7.745   4.602  68.472  1.00  0.00    -0.076 C  
ATOM     13  C3*   T A   1      -8.312   5.302  67.264  1.00  0.00    -0.107 C  
ATOM     14  C4*   T A   1      -9.598   4.516  67.049  1.00  0.00    -0.190 C  
ATOM     15  O3*   T A   1      -7.448   5.250  66.139  1.00  0.00    -0.080 OA 
ATOM     16  H3*   T A   1      -7.806   5.692  65.378  1.00  0.00     0.000 HD 
ATOM     17  O4*   T A   1     -10.034   4.066  68.353  1.00  0.00    -0.047 OA 
BRANCH  14  18
ATOM     18  C5*   T A   1     -10.701   5.332  66.374  1.00  0.00    -0.223 C  
ATOM     19  O5*   T A   1     -11.316   4.602  65.313  1.00  0.00    -0.980 OA 
ATOM     20  H5*   T A   1     -12.001   5.109  64.893  1.00  0.00     0.000 HD 
ENDBRANCH  14  18
ENDBRANCH   4  11
TORSDOF 2
ENDMDL
MODEL      159
REMARK 921   NORMALIZED FREE ENERGY PREDICTED BY IDOCK:   -3.36 KCAL/MOL
REMARK 922        TOTAL FREE ENERGY PREDICTED BY IDOCK:   -4.08 KCAL/MOL
REMARK 923 INTER-LIGAND FREE ENERGY PREDICTED BY IDOCK:   -3.95 KCAL/MOL
REMARK 924 INTRA-LIGAND FREE ENERGY PREDICTED BY IDOCK:   -0.12 KCAL/MOL
REMARK 927      BINDING AFFINITY PREDICTED BY RF-SCORE:    0.00 PKD
ROOT
ATOM      1  C5M   T A   1     -10.197  14.342  68.737  1.00  0.00    -0.239 C  
ATOM      2  C5    T A   1     -10.461  13.749  67.392  1.00  0.00    -0.256 C  
ATOM      3  C6    T A   1     -10.338  12.450  67.094  1.00  0.00    -0.219 C  
ATOM      4  N1    T A   1     -10.549  11.936  65.818  1.00  0.00    -0.258 N  
ATOM      5  O4    T A   1     -10.863  15.888  66.457  1.00  0.00    -0.291 OA 
ATOM      6  C2    T A   1     -10.794  12.807  64.761  1.00  0.00    -0.308 C  
ATOM      7  O2    T A   1     -10.698  12.517  63.572  1.00  0.00    -0.435 OA 
ATOM      8  H3    T A   1     -11.636  14.644  64.419  1.00  0.00     0.000 HD 
ATOM      9  N3    T A   1     -11.132  14.087  65.108  1.00  0.00    -0.325 N  
ATOM     10  C4    T A   1     -10.846  14.673  66.304  1.00  0.00    -0.321 C  
ENDROOT
BRANCH   4  11
ATOM     11  C1*   T A   1     -10.175  10.537  65.549  1.00  0.00    -0.256 C  
ATOM     12  C2*   T A   1     -10.236   9.526  66.693  1.00  0.00    -0.310 C  
ATOM     13  C3*   T A   1      -8.897   9.707  67.360  1.00  0.00    -0.128 C  
ATOM     14  C4*   T A   1      -7.990   9.881  66.150  1.00  0.00    -0.109 C  
ATOM     15  O3*   T A   1      -8.526   8.597  68.163  1.00  0.00    -0.128 OA 
ATOM     16  H3*   T A   1      -7.682   8.711  68.584  1.00  0.00     0.000 HD 
ATOM     17  O4*   T A   1      -8.787  10.509  65.119  1.00  0.00    -0.177 OA 
BRANCH  14  18
ATOM     18  C5*   T A   1      -6.746  10.721  66.442  1.00  0.00    -0.131 C  
ATOM     19  O5*   T A   1      -6.475  10.786  67.841  1.00  0.00    -0.061 OA 
ATOM     20  H5*   T A   1      -5.702  11.309  68.022  1.00  0.00     0.000 HD 
ENDBRANCH  14  18
ENDBRANCH   4  11
TORSDOF 2
ENDMDL
MODEL      160
REMARK 921   NORMALIZED FREE ENERGY PREDICTED BY IDOCK:   -3.34 KCAL/MOL
REMARK 922        TOTAL FREE ENERGY PREDICTED BY IDOCK:   -4.06 KCAL/MOL
REMARK 923 INTER-LIGAND FREE ENERGY PREDICTED BY IDOCK:   -4.12 KCAL/MOL
REMARK 924 INTRA-LIGAND FREE ENERGY PREDICTED BY IDOCK:    0.06 KCAL/MOL
REMARK 927      BINDING AFFINITY PREDICTED BY RF-SCORE:    0.00 PKD
ROOT
ATOM      1  C5M   T A   1      -9.206  17.962  67.077  1.00  0.00    -0.260 C  
ATOM      2  C5    T A   1      -8.573  16.619  67.238  1.00  0.00    -0.208 C  
ATOM      3  C6    T A   1      -9.164  15.456  66.941  1.00  0.00    -0.233 C  
ATOM      4  N1    T A   1      -8.561  14.219  67.145  1.00  0.00    -0.216 N  
ATOM      5  O4    T A   1      -6.641  17.578  68.218  1.00  0.00    -0.178 OA 
ATOM      6  C2    T A   1      -7.328  14.155  67.788  1.00  0.00    -0.167 C  
ATOM      7  O2    T A   1      -6.844  13.143  68.287  1.00  0.00    -0.082 OA 
ATOM      8  H3    T A   1      -5.635  15.286  68.026  1.00  0.00     0.000 HD 
ATOM      9  N3    T A   1      -6.644  15.336  67.885  1.00  0.00    -0.142 N  
ATOM     10  C4    T A   1      -7.208  16.573  67.805  1.00  0.00    -0.139 C  
ENDROOT
BRANCH   4  11
ATOM     11  C1*   T A   1      -9.377  13.001  66.994  1.00  0.00    -0.236 C  
ATOM     12  C2*   T A   1     -10.400  12.937  65.861  1.00  0.00    -0.297 C  
ATOM     13  C3*   T A   1     -11.603  13.611  66.470  1.00  0.00    -0.366 C  
ATOM     14  C4*   T A   1     -11.559  13.059  67.888  1.00  0.00    -0.342 C  
ATOM     15  O3*   T A   1     -12.812  13.293  65.798  1.00  0.00    -0.385 OA 
ATOM     16  H3*   T A   1     -13.570  13.718  66.182  1.00  0.00     0.000 HD 
ATOM     17  O4*   T A   1     -10.166  12.825  68.201  1.00  0.00    -0.227 OA 
BRANCH  14  18
ATOM     18  C5*   T A   1     -12.184  13.996  68.922  1.00  0.00    -0.226 C  
ATOM     19  O5*   T A   1     -11.280  14.273  69.990  1.00  0.00    -0.414 OA 
ATOM     20  H5*   T A   1     -11.668  14.855  70.633  1.00  0.00     0.000 HD 
ENDBRANCH  14  18
ENDBRANCH   4  11
TORSDOF 2
ENDMDL
MODEL      161
REMARK 921   NORMALIZED FREE ENERGY PREDICTED BY IDOCK:   -3.34 KCAL/MOL
REMARK 922        TOTAL FREE ENERGY PREDICTED BY IDOCK:   -4.05 KCAL/MOL
REMARK 923 INTER-LIGAND FREE ENERGY PREDICTED BY IDOCK:   -3.83 KCAL/MOL
REMARK 924 INTRA-LIGAND FREE ENERGY PREDICTED BY IDOCK:   -0.23 KCAL/MOL
REMARK 927      BINDING AFFINITY PREDICTED BY RF-SCORE:    0.00 PKD
ROOT
ATOM      1  C5M   T A   1      -7.839  10.220  68.791  1.00  0.00    -0.106 C  
ATOM      2  C5    T A   1      -8.333   8.933  69.364  1.00  0.00    -0.112 C  
ATOM      3  C6    T A   1      -9.291   8.829  70.292  1.00  0.00    -0.174 C  
ATOM      4  N1    T A   1      -9.698   7.615  70.838  1.00  0.00    -0.172 N  
ATOM      5  O4    T A   1      -6.720   7.698  68.145  1.00  0.00    -0.055 OA 
ATOM      6  C2    T A   1      -9.017   6.450  70.499  1.00  0.00    -0.151 C  
ATOM      7  O2    T A   1      -9.074   5.393  71.121  1.00  0.00    -0.138 OA 
ATOM      8  H3    T A   1      -7.962   5.662  68.927  1.00  0.00     0.000 HD 
ATOM      9  N3    T A   1      -8.201   6.532  69.403  1.00  0.00    -0.118 N  
ATOM     10  C4    T A   1      -7.686   7.688  68.899  1.00  0.00    -0.117 C  
ENDROOT
BRANCH   4  11
ATOM     11  C1*   T A   1     -10.598   7.630  72.004  1.00  0.00    -0.220 C  
ATOM     12  C2*   T A   1     -11.850   6.756  71.978  1.00  0.00    -0.351 C  
ATOM     13  C3*   T A   1     -12.844   7.632  71.259  1.00  0.00    -0.260 C  
ATOM     14  C4*   T A   1     -12.517   8.994  71.855  1.00  0.00    -0.384 C  
ATOM     15  O3*   T A   1     -14.190   7.246  71.490  1.00  0.00    -0.430 OA 
ATOM     16  H3*   T A   1     -14.816   7.798  71.037  1.00  0.00     0.000 HD 
ATOM     17  O4*   T A   1     -11.105   8.981  72.174  1.00  0.00    -0.350 OA 
BRANCH  14  18
ATOM     18  C5*   T A   1     -12.837  10.159  70.918  1.00  0.00    -0.355 C  
ATOM     19  O5*   T A   1     -11.742  11.068  70.822  1.00  0.00    -0.332 OA 
ATOM     20  H5*   T A   1     -11.941  11.793  70.240  1.00  0.00     0.000 HD 
ENDBRANCH  14  18
ENDBRANCH   4  11
TORSDOF 2
ENDMDL
MODEL      162
REMARK 921   NORMALIZED FREE ENERGY PREDICTED BY IDOCK:   -3.32 KCAL/MOL
REMARK 922        TOTAL FREE ENERGY PREDICTED BY IDOCK:   -4.03 KCAL/MOL
REMARK 923 INTER-LIGAND FREE ENERGY PREDICTED BY IDOCK:   -3.93 KCAL/MOL
REMARK 924 INTRA-LIGAND FREE ENERGY PREDICTED BY IDOCK:   -0.10 KCAL/MOL
REMARK 927      BINDING AFFINITY PREDICTED BY RF-SCORE:    0.00 PKD
ROOT
ATOM      1  C5M   T A   1      -8.639   8.674  71.419  1.00  0.00    -0.247 C  
ATOM      2  C5    T A   1      -9.202   8.145  70.141  1.00  0.00    -0.155 C  
ATOM      3  C6    T A   1      -9.605   8.902  69.114  1.00  0.00    -0.162 C  
ATOM      4  N1    T A   1     -10.167   8.379  67.954  1.00  0.00    -0.207 N  
ATOM      5  O4    T A   1      -9.135   5.922  70.958  1.00  0.00    -0.144 OA 
ATOM      6  C2    T A   1     -10.433   7.015  67.877  1.00  0.00    -0.214 C  
ATOM      7  O2    T A   1     -11.182   6.488  67.059  1.00  0.00    -0.397 OA 
ATOM      8  H3    T A   1      -9.713   5.243  68.612  1.00  0.00     0.000 HD 
ATOM      9  N3    T A   1      -9.827   6.234  68.822  1.00  0.00    -0.134 N  
ATOM     10  C4    T A   1      -9.362   6.680  70.022  1.00  0.00    -0.158 C  
ENDROOT
BRANCH   4  11
ATOM     11  C1*   T A   1     -10.776   9.305  66.983  1.00  0.00    -0.129 C  
ATOM     12  C2*   T A   1      -9.999   9.658  65.716  1.00  0.00    -0.342 C  
ATOM     13  C3*   T A   1      -9.121  10.793  66.177  1.00  0.00    -0.174 C  
ATOM     14  C4*   T A   1     -10.082  11.558  67.076  1.00  0.00    -0.210 C  
ATOM     15  O3*   T A   1      -8.632  11.584  65.105  1.00  0.00    -0.375 OA 
ATOM     16  H3*   T A   1      -8.078  12.299  65.396  1.00  0.00     0.000 HD 
ATOM     17  O4*   T A   1     -10.990  10.583  67.641  1.00  0.00    -0.279 OA 
BRANCH  14  18
ATOM     18  C5*   T A   1      -9.381  12.336  68.190  1.00  0.00    -0.205 C  
ATOM     19  O5*   T A   1     -10.272  13.246  68.833  1.00  0.00    -0.404 OA 
ATOM     20  H5*   T A   1      -9.836  13.730  69.525  1.00  0.00     0.000 HD 
ENDBRANCH  14  18
ENDBRANCH   4  11
TORSDOF 2
ENDMDL
MODEL      163
REMARK 921   NORMALIZED FREE ENERGY PREDICTED BY IDOCK:   -3.31 KCAL/MOL
REMARK 922        TOTAL FREE ENERGY PREDICTED BY IDOCK:   -4.02 KCAL/MOL
REMARK 923 INTER-LIGAND FREE ENERGY PREDICTED BY IDOCK:   -4.22 KCAL/MOL
REMARK 924 INTRA-LIGAND FREE ENERGY PREDICTED BY IDOCK:    0.20 KCAL/MOL
REMARK 927      BINDING AFFINITY PREDICTED BY RF-SCORE:    0.00 PKD
ROOT
ATOM      1  C5M   T A   1      -9.175  10.937  69.211  1.00  0.00    -0.006 C  
ATOM      2  C5    T A   1     -10.147  10.065  69.935  1.00  0.00    -0.289 C  
ATOM      3  C6    T A   1      -9.921   8.792  70.280  1.00  0.00    -0.186 C  
ATOM      4  N1    T A   1     -10.867   7.994  70.916  1.00  0.00    -0.226 N  
ATOM      5  O4    T A   1     -11.805  11.756  69.872  1.00  0.00    -0.313 OA 
ATOM      6  C2    T A   1     -12.153   8.485  71.117  1.00  0.00    -0.252 C  
ATOM      7  O2    T A   1     -13.137   7.799  71.381  1.00  0.00    -0.321 OA 
ATOM      8  H3    T A   1     -13.110  10.272  71.420  1.00  0.00     0.000 HD 
ATOM      9  N3    T A   1     -12.307   9.836  70.966  1.00  0.00    -0.322 N  
ATOM     10  C4    T A   1     -11.470  10.643  70.257  1.00  0.00    -0.337 C  
ENDROOT
BRANCH   4  11
ATOM     11  C1*   T A   1     -10.599   6.551  71.051  1.00  0.00    -0.231 C  
ATOM     12  C2*   T A   1     -11.455   5.732  72.014  1.00  0.00    -0.260 C  
ATOM     13  C3*   T A   1     -10.754   5.938  73.332  1.00  0.00    -0.267 C  
ATOM     14  C4*   T A   1      -9.296   5.876  72.898  1.00  0.00    -0.147 C  
ATOM     15  O3*   T A   1     -11.079   4.944  74.292  1.00  0.00    -0.366 OA 
ATOM     16  H3*   T A   1     -10.636   5.075  75.123  1.00  0.00     0.000 HD 
ATOM     17  O4*   T A   1      -9.242   6.382  71.544  1.00  0.00    -0.145 OA 
BRANCH  14  18
ATOM     18  C5*   T A   1      -8.361   6.681  73.801  1.00  0.00    -0.114 C  
ATOM     19  O5*   T A   1      -9.014   7.830  74.339  1.00  0.00    -0.437 OA 
ATOM     20  H5*   T A   1      -8.433   8.330  74.900  1.00  0.00     0.000 HD 
ENDBRANCH  14  18
ENDBRANCH   4  11
TORSDOF 2
ENDMDL
MODEL      164
REMARK 921   NORMALIZED FREE ENERGY PREDICTED BY IDOCK:   -3.31 KCAL/MOL
REMARK 922        TOTAL FREE ENERGY PREDICTED BY IDOCK:   -4.02 KCAL/MOL
REMARK 923 INTER-LIGAND FREE ENERGY PREDICTED BY IDOCK:   -3.80 KCAL/MOL
REMARK 924 INTRA-LIGAND FREE ENERGY PREDICTED BY IDOCK:   -0.22 KCAL/MOL
REMARK 927      BINDING AFFINITY PREDICTED BY RF-SCORE:    0.00 PKD
ROOT
ATOM      1  C5M   T A   1     -11.327   4.878  73.318  1.00  0.00    -0.408 C  
ATOM      2  C5    T A   1     -10.261   5.242  72.338  1.00  0.00    -0.243 C  
ATOM      3  C6    T A   1     -10.394   6.158  71.372  1.00  0.00    -0.214 C  
ATOM      4  N1    T A   1      -9.393   6.441  70.447  1.00  0.00    -0.161 N  
ATOM      5  O4    T A   1      -8.817   3.570  73.193  1.00  0.00    -0.091 OA 
ATOM      6  C2    T A   1      -8.232   5.675  70.437  1.00  0.00    -0.105 C  
ATOM      7  O2    T A   1      -7.429   5.623  69.510  1.00  0.00    -0.068 OA 
ATOM      8  H3    T A   1      -7.058   4.609  71.735  1.00  0.00     0.000 HD 
ATOM      9  N3    T A   1      -8.015   4.906  71.547  1.00  0.00    -0.107 N  
ATOM     10  C4    T A   1      -8.981   4.507  72.421  1.00  0.00    -0.124 C  
ENDROOT
BRANCH   4  11
ATOM     11  C1*   T A   1      -9.719   7.302  69.295  1.00  0.00    -0.161 C  
ATOM     12  C2*   T A   1      -8.818   8.497  68.993  1.00  0.00    -0.145 C  
ATOM     13  C3*   T A   1      -9.382   9.567  69.892  1.00  0.00    -0.223 C  
ATOM     14  C4*   T A   1     -10.876   9.306  69.753  1.00  0.00    -0.224 C  
ATOM     15  O3*   T A   1      -9.018  10.878  69.486  1.00  0.00    -0.401 OA 
ATOM     16  H3*   T A   1      -9.374  11.552  70.053  1.00  0.00     0.000 HD 
ATOM     17  O4*   T A   1     -11.030   7.887  69.517  1.00  0.00    -0.191 OA 
BRANCH  14  18
ATOM     18  C5*   T A   1     -11.681   9.730  70.982  1.00  0.00    -0.370 C  
ATOM     19  O5*   T A   1     -13.063   9.895  70.669  1.00  0.00    -0.567 OA 
ATOM     20  H5*   T A   1     -13.564  10.159  71.432  1.00  0.00     0.000 HD 
ENDBRANCH  14  18
ENDBRANCH   4  11
TORSDOF 2
ENDMDL
MODEL      165
REMARK 921   NORMALIZED FREE ENERGY PREDICTED BY IDOCK:   -3.30 KCAL/MOL
REMARK 922        TOTAL FREE ENERGY PREDICTED BY IDOCK:   -4.01 KCAL/MOL
REMARK 923 INTER-LIGAND FREE ENERGY PREDICTED BY IDOCK:   -4.24 KCAL/MOL
REMARK 924 INTRA-LIGAND FREE ENERGY PREDICTED BY IDOCK:    0.23 KCAL/MOL
REMARK 927      BINDING AFFINITY PREDICTED BY RF-SCORE:    0.00 PKD
ROOT
ATOM      1  C5M   T A   1     -12.350  10.627  70.240  1.00  0.00    -0.406 C  
ATOM      2  C5    T A   1     -10.955  10.604  69.708  1.00  0.00    -0.340 C  
ATOM      3  C6    T A   1     -10.530  11.308  68.653  1.00  0.00    -0.203 C  
ATOM      4  N1    T A   1      -9.233  11.230  68.155  1.00  0.00    -0.164 N  
ATOM      5  O4    T A   1     -10.320   8.936  71.266  1.00  0.00    -0.234 OA 
ATOM      6  C2    T A   1      -8.347  10.303  68.695  1.00  0.00    -0.122 C  
ATOM      7  O2    T A   1      -7.305   9.931  68.163  1.00  0.00    -0.079 OA 
ATOM      8  H3    T A   1      -7.976   9.355  70.473  1.00  0.00     0.000 HD 
ATOM      9  N3    T A   1      -8.713   9.755  69.894  1.00  0.00    -0.209 N  
ATOM     10  C4    T A   1      -9.987   9.706  70.373  1.00  0.00    -0.271 C  
ENDROOT
BRANCH   4  11
ATOM     11  C1*   T A   1      -8.931  11.874  66.864  1.00  0.00    -0.196 C  
ATOM     12  C2*   T A   1     -10.085  12.208  65.922  1.00  0.00    -0.270 C  
ATOM     13  C3*   T A   1     -10.284  10.914  65.176  1.00  0.00    -0.297 C  
ATOM     14  C4*   T A   1      -8.842  10.473  64.968  1.00  0.00    -0.191 C  
ATOM     15  O3*   T A   1     -10.984  11.082  63.953  1.00  0.00    -0.506 OA 
ATOM     16  H3*   T A   1     -11.109  10.266  63.484  1.00  0.00     0.000 HD 
ATOM     17  O4*   T A   1      -8.085  10.979  66.093  1.00  0.00    -0.164 OA 
BRANCH  14  18
ATOM     18  C5*   T A   1      -8.681   8.957  64.860  1.00  0.00    -0.149 C  
ATOM     19  O5*   T A   1      -9.570   8.273  65.742  1.00  0.00    -0.445 OA 
ATOM     20  H5*   T A   1      -9.470   7.330  65.675  1.00  0.00     0.000 HD 
ENDBRANCH  14  18
ENDBRANCH   4  11
TORSDOF 2
ENDMDL
MODEL      166
REMARK 921   NORMALIZED FREE ENERGY PREDICTED BY IDOCK:   -3.29 KCAL/MOL
REMARK 922        TOTAL FREE ENERGY PREDICTED BY IDOCK:   -3.99 KCAL/MOL
REMARK 923 INTER-LIGAND FREE ENERGY PREDICTED BY IDOCK:   -4.23 KCAL/MOL
REMARK 924 INTRA-LIGAND FREE ENERGY PREDICTED BY IDOCK:    0.23 KCAL/MOL
REMARK 927      BINDING AFFINITY PREDICTED BY RF-SCORE:    0.00 PKD
ROOT
ATOM      1  C5M   T A   1     -12.695  10.961  70.988  1.00  0.00    -0.505 C  
ATOM      2  C5    T A   1     -11.913   9.695  71.114  1.00  0.00    -0.452 C  
ATOM      3  C6    T A   1     -10.740   9.460  70.516  1.00  0.00    -0.276 C  
ATOM      4  N1    T A   1     -10.059   8.251  70.620  1.00  0.00    -0.190 N  
ATOM      5  O4    T A   1     -13.625   8.694  72.411  1.00  0.00    -0.373 OA 
ATOM      6  C2    T A   1     -10.656   7.183  71.282  1.00  0.00    -0.213 C  
ATOM      7  O2    T A   1     -10.308   6.010  71.186  1.00  0.00    -0.200 OA 
ATOM      8  H3    T A   1     -11.981   6.840  72.808  1.00  0.00     0.000 HD 
ATOM      9  N3    T A   1     -11.734   7.494  72.065  1.00  0.00    -0.284 N  
ATOM     10  C4    T A   1     -12.502   8.610  71.929  1.00  0.00    -0.357 C  
ENDROOT
BRANCH   4  11
ATOM     11  C1*   T A   1      -8.893   8.019  69.748  1.00  0.00    -0.144 C  
ATOM     12  C2*   T A   1      -8.461   9.126  68.789  1.00  0.00    -0.130 C  
ATOM     13  C3*   T A   1      -9.344   8.884  67.592  1.00  0.00    -0.136 C  
ATOM     14  C4*   T A   1      -9.335   7.363  67.526  1.00  0.00    -0.130 C  
ATOM     15  O3*   T A   1      -8.846   9.483  66.406  1.00  0.00    -0.138 OA 
ATOM     16  H3*   T A   1      -9.403   9.330  65.652  1.00  0.00     0.000 HD 
ATOM     17  O4*   T A   1      -9.185   6.888  68.885  1.00  0.00    -0.134 OA 
BRANCH  14  18
ATOM     18  C5*   T A   1     -10.598   6.776  66.896  1.00  0.00    -0.304 C  
ATOM     19  O5*   T A   1     -10.573   5.349  66.907  1.00  0.00    -0.264 OA 
ATOM     20  H5*   T A   1     -11.358   4.984  66.515  1.00  0.00     0.000 HD 
ENDBRANCH  14  18
ENDBRANCH   4  11
TORSDOF 2
ENDMDL
MODEL      167
REMARK 921   NORMALIZED FREE ENERGY PREDICTED BY IDOCK:   -3.24 KCAL/MOL
REMARK 922        TOTAL FREE ENERGY PREDICTED BY IDOCK:   -3.94 KCAL/MOL
REMARK 923 INTER-LIGAND FREE ENERGY PREDICTED BY IDOCK:   -3.54 KCAL/MOL
REMARK 924 INTRA-LIGAND FREE ENERGY PREDICTED BY IDOCK:   -0.40 KCAL/MOL
REMARK 927      BINDING AFFINITY PREDICTED BY RF-SCORE:    0.00 PKD
ROOT
ATOM      1  C5M   T A   1      -6.502   7.355  68.000  1.00  0.00    -0.049 C  
ATOM      2  C5    T A   1      -7.518   7.092  69.062  1.00  0.00    -0.095 C  
ATOM      3  C6    T A   1      -8.287   8.027  69.632  1.00  0.00    -0.126 C  
ATOM      4  N1    T A   1      -9.194   7.754  70.651  1.00  0.00    -0.160 N  
ATOM      5  O4    T A   1      -6.908   4.805  69.167  1.00  0.00    -0.048 OA 
ATOM      6  C2    T A   1      -9.246   6.475  71.196  1.00  0.00    -0.156 C  
ATOM      7  O2    T A   1      -9.768   6.186  72.269  1.00  0.00    -0.157 OA 
ATOM      8  H3    T A   1      -8.922   4.529  70.639  1.00  0.00     0.000 HD 
ATOM      9  N3    T A   1      -8.629   5.491  70.472  1.00  0.00    -0.122 N  
ATOM     10  C4    T A   1      -7.654   5.701  69.544  1.00  0.00    -0.072 C  
ENDROOT
BRANCH   4  11
ATOM     11  C1*   T A   1      -9.826   8.882  71.357  1.00  0.00    -0.306 C  
ATOM     12  C2*   T A   1     -11.329   8.834  71.622  1.00  0.00    -0.390 C  
ATOM     13  C3*   T A   1     -11.905   9.375  70.339  1.00  0.00    -0.090 C  
ATOM     14  C4*   T A   1     -10.921  10.495  70.027  1.00  0.00    -0.286 C  
ATOM     15  O3*   T A   1     -13.236   9.846  70.485  1.00  0.00    -0.601 OA 
ATOM     16  H3*   T A   1     -13.599  10.187  69.676  1.00  0.00     0.000 HD 
ATOM     17  O4*   T A   1      -9.640  10.083  70.559  1.00  0.00    -0.088 OA 
BRANCH  14  18
ATOM     18  C5*   T A   1     -10.801  10.798  68.534  1.00  0.00    -0.228 C  
ATOM     19  O5*   T A   1     -11.890  10.241  67.798  1.00  0.00    -0.567 OA 
ATOM     20  H5*   T A   1     -11.815  10.429  66.870  1.00  0.00     0.000 HD 
ENDBRANCH  14  18
ENDBRANCH   4  11
TORSDOF 2
ENDMDL
MODEL      168
REMARK 921   NORMALIZED FREE ENERGY PREDICTED BY IDOCK:   -3.23 KCAL/MOL
REMARK 922        TOTAL FREE ENERGY PREDICTED BY IDOCK:   -3.93 KCAL/MOL
REMARK 923 INTER-LIGAND FREE ENERGY PREDICTED BY IDOCK:   -3.94 KCAL/MOL
REMARK 924 INTRA-LIGAND FREE ENERGY PREDICTED BY IDOCK:    0.01 KCAL/MOL
REMARK 927      BINDING AFFINITY PREDICTED BY RF-SCORE:    0.00 PKD
ROOT
ATOM      1  C5M   T A   1     -12.676   6.978  71.274  1.00  0.00    -0.400 C  
ATOM      2  C5    T A   1     -11.388   7.731  71.357  1.00  0.00    -0.281 C  
ATOM      3  C6    T A   1     -10.839   8.415  70.347  1.00  0.00    -0.235 C  
ATOM      4  N1    T A   1      -9.615   9.070  70.445  1.00  0.00    -0.192 N  
ATOM      5  O4    T A   1     -11.018   6.978  73.572  1.00  0.00    -0.302 OA 
ATOM      6  C2    T A   1      -8.855   8.930  71.602  1.00  0.00    -0.144 C  
ATOM      7  O2    T A   1      -7.660   9.196  71.698  1.00  0.00    -0.333 OA 
ATOM      8  H3    T A   1      -9.118   8.617  73.611  1.00  0.00     0.000 HD 
ATOM      9  N3    T A   1      -9.511   8.423  72.690  1.00  0.00    -0.277 N  
ATOM     10  C4    T A   1     -10.651   7.679  72.637  1.00  0.00    -0.299 C  
ENDROOT
BRANCH   4  11
ATOM     11  C1*   T A   1      -8.998   9.604  69.218  1.00  0.00    -0.172 C  
ATOM     12  C2*   T A   1      -9.862   9.755  67.967  1.00  0.00    -0.173 C  
ATOM     13  C3*   T A   1      -9.786   8.382  67.351  1.00  0.00    -0.191 C  
ATOM     14  C4*   T A   1      -8.324   8.035  67.591  1.00  0.00    -0.128 C  
ATOM     15  O3*   T A   1     -10.129   8.375  65.973  1.00  0.00    -0.470 OA 
ATOM     16  H3*   T A   1     -10.081   7.510  65.585  1.00  0.00     0.000 HD 
ATOM     17  O4*   T A   1      -7.932   8.705  68.812  1.00  0.00    -0.110 OA 
BRANCH  14  18
ATOM     18  C5*   T A   1      -8.069   6.531  67.707  1.00  0.00    -0.115 C  
ATOM     19  O5*   T A   1      -8.675   5.987  68.878  1.00  0.00    -0.121 OA 
ATOM     20  H5*   T A   1      -8.517   5.053  68.950  1.00  0.00     0.000 HD 
ENDBRANCH  14  18
ENDBRANCH   4  11
TORSDOF 2
ENDMDL
MODEL      169
REMARK 921   NORMALIZED FREE ENERGY PREDICTED BY IDOCK:   -3.20 KCAL/MOL
REMARK 922        TOTAL FREE ENERGY PREDICTED BY IDOCK:   -3.90 KCAL/MOL
REMARK 923 INTER-LIGAND FREE ENERGY PREDICTED BY IDOCK:   -5.48 KCAL/MOL
REMARK 924 INTRA-LIGAND FREE ENERGY PREDICTED BY IDOCK:    1.58 KCAL/MOL
REMARK 927      BINDING AFFINITY PREDICTED BY RF-SCORE:    0.00 PKD
ROOT
ATOM      1  C5M   T A   1     -11.028   8.705  70.802  1.00  0.00    -0.286 C  
ATOM      2  C5    T A   1     -11.196   9.880  69.895  1.00  0.00    -0.298 C  
ATOM      3  C6    T A   1     -10.589  10.023  68.712  1.00  0.00    -0.217 C  
ATOM      4  N1    T A   1     -10.733  11.152  67.911  1.00  0.00    -0.202 N  
ATOM      5  O4    T A   1     -12.561  10.990  71.482  1.00  0.00    -0.379 OA 
ATOM      6  C2    T A   1     -11.449  12.244  68.390  1.00  0.00    -0.307 C  
ATOM      7  O2    T A   1     -11.397  13.380  67.926  1.00  0.00    -0.261 OA 
ATOM      8  H3    T A   1     -13.010  12.651  69.655  1.00  0.00     0.000 HD 
ATOM      9  N3    T A   1     -12.236  12.009  69.484  1.00  0.00    -0.177 N  
ATOM     10  C4    T A   1     -12.065  10.982  70.362  1.00  0.00    -0.373 C  
ENDROOT
BRANCH   4  11
ATOM     11  C1*   T A   1      -9.853  11.304  66.738  1.00  0.00    -0.199 C  
ATOM     12  C2*   T A   1      -9.187  12.656  66.489  1.00  0.00    -0.200 C  
ATOM     13  C3*   T A   1     -10.250  13.408  65.731  1.00  0.00    -0.295 C  
ATOM     14  C4*   T A   1     -10.792  12.312  64.823  1.00  0.00    -0.304 C  
ATOM     15  O3*   T A   1      -9.733  14.512  65.003  1.00  0.00    -0.484 OA 
ATOM     16  H3*   T A   1     -10.403  14.986  64.525  1.00  0.00     0.000 HD 
ATOM     17  O4*   T A   1     -10.641  11.065  65.541  1.00  0.00    -0.256 OA 
BRANCH  14  18
ATOM     18  C5*   T A   1     -12.253  12.522  64.426  1.00  0.00    -0.449 C  
ATOM     19  O5*   T A   1     -12.393  13.587  63.488  1.00  0.00    -0.790 OA 
ATOM     20  H5*   T A   1     -13.301  13.718  63.242  1.00  0.00     0.000 HD 
ENDBRANCH  14  18
ENDBRANCH   4  11
TORSDOF 2
ENDMDL
MODEL      170
REMARK 921   NORMALIZED FREE ENERGY PREDICTED BY IDOCK:   -3.20 KCAL/MOL
REMARK 922        TOTAL FREE ENERGY PREDICTED BY IDOCK:   -3.90 KCAL/MOL
REMARK 923 INTER-LIGAND FREE ENERGY PREDICTED BY IDOCK:   -4.07 KCAL/MOL
REMARK 924 INTRA-LIGAND FREE ENERGY PREDICTED BY IDOCK:    0.17 KCAL/MOL
REMARK 927      BINDING AFFINITY PREDICTED BY RF-SCORE:    0.00 PKD
ROOT
ATOM      1  C5M   T A   1     -11.852  12.801  63.563  1.00  0.00    -0.618 C  
ATOM      2  C5    T A   1     -10.850  12.090  64.412  1.00  0.00    -0.378 C  
ATOM      3  C6    T A   1     -10.769  12.192  65.743  1.00  0.00    -0.267 C  
ATOM      4  N1    T A   1      -9.794  11.549  66.500  1.00  0.00    -0.198 N  
ATOM      5  O4    T A   1      -9.777  11.190  62.501  1.00  0.00    -0.225 OA 
ATOM      6  C2    T A   1      -8.779  10.848  65.856  1.00  0.00    -0.183 C  
ATOM      7  O2    T A   1      -7.721  10.503  66.375  1.00  0.00    -0.122 OA 
ATOM      8  H3    T A   1      -8.467   9.795  64.126  1.00  0.00     0.000 HD 
ATOM      9  N3    T A   1      -8.992  10.568  64.534  1.00  0.00    -0.199 N  
ATOM     10  C4    T A   1      -9.853  11.244  63.723  1.00  0.00    -0.322 C  
ENDROOT
BRANCH   4  11
ATOM     11  C1*   T A   1      -9.657  11.902  67.925  1.00  0.00    -0.193 C  
ATOM     12  C2*   T A   1     -10.227  13.234  68.410  1.00  0.00    -0.249 C  
ATOM     13  C3*   T A   1      -9.106  14.196  68.112  1.00  0.00    -0.193 C  
ATOM     14  C4*   T A   1      -7.894  13.361  68.499  1.00  0.00    -0.115 C  
ATOM     15  O3*   T A   1      -9.199  15.400  68.859  1.00  0.00    -0.189 OA 
ATOM     16  H3*   T A   1      -8.492  16.006  68.671  1.00  0.00     0.000 HD 
ATOM     17  O4*   T A   1      -8.242  11.980  68.243  1.00  0.00    -0.149 OA 
BRANCH  14  18
ATOM     18  C5*   T A   1      -6.627  13.739  67.730  1.00  0.00    -0.172 C  
ATOM     19  O5*   T A   1      -6.834  14.892  66.917  1.00  0.00    -0.294 OA 
ATOM     20  H5*   T A   1      -6.047  15.127  66.439  1.00  0.00     0.000 HD 
ENDBRANCH  14  18
ENDBRANCH   4  11
TORSDOF 2
ENDMDL
MODEL      171
REMARK 921   NORMALIZED FREE ENERGY PREDICTED BY IDOCK:   -3.17 KCAL/MOL
REMARK 922        TOTAL FREE ENERGY PREDICTED BY IDOCK:   -3.86 KCAL/MOL
REMARK 923 INTER-LIGAND FREE ENERGY PREDICTED BY IDOCK:   -4.03 KCAL/MOL
REMARK 924 INTRA-LIGAND FREE ENERGY PREDICTED BY IDOCK:    0.17 KCAL/MOL
REMARK 927      BINDING AFFINITY PREDICTED BY RF-SCORE:    0.00 PKD
ROOT
ATOM      1  C5M   T A   1      -8.651   9.284  70.846  1.00  0.00    -0.220 C  
ATOM      2  C5    T A   1      -9.532   9.833  69.774  1.00  0.00    -0.253 C  
ATOM      3  C6    T A   1      -9.104  10.542  68.723  1.00  0.00    -0.166 C  
ATOM      4  N1    T A   1      -9.958  11.077  67.764  1.00  0.00    -0.171 N  
ATOM      5  O4    T A   1     -11.476   9.079  70.898  1.00  0.00    -0.272 OA 
ATOM      6  C2    T A   1     -11.335  10.978  67.941  1.00  0.00    -0.311 C  
ATOM      7  O2    T A   1     -12.173  11.650  67.346  1.00  0.00    -0.458 OA 
ATOM      8  H3    T A   1     -12.708   9.729  68.810  1.00  0.00     0.000 HD 
ATOM      9  N3    T A   1     -11.752  10.078  68.882  1.00  0.00     0.089 N  
ATOM     10  C4    T A   1     -10.988   9.610  69.908  1.00  0.00    -0.252 C  
ENDROOT
BRANCH   4  11
ATOM     11  C1*   T A   1      -9.408  12.022  66.775  1.00  0.00    -0.205 C  
ATOM     12  C2*   T A   1      -8.122  12.773  67.113  1.00  0.00    -0.131 C  
ATOM     13  C3*   T A   1      -8.630  13.958  67.893  1.00  0.00    -0.180 C  
ATOM     14  C4*   T A   1      -9.884  14.309  67.105  1.00  0.00    -0.252 C  
ATOM     15  O3*   T A   1      -7.699  15.028  67.941  1.00  0.00    -0.115 OA 
ATOM     16  H3*   T A   1      -8.019  15.775  68.433  1.00  0.00     0.000 HD 
ATOM     17  O4*   T A   1     -10.388  13.071  66.551  1.00  0.00    -0.265 OA 
BRANCH  14  18
ATOM     18  C5*   T A   1     -10.961  14.988  67.951  1.00  0.00    -0.291 C  
ATOM     19  O5*   T A   1     -12.218  14.324  67.828  1.00  0.00    -0.576 OA 
ATOM     20  H5*   T A   1     -12.888  14.746  68.354  1.00  0.00     0.000 HD 
ENDBRANCH  14  18
ENDBRANCH   4  11
TORSDOF 2
ENDMDL
MODEL      172
REMARK 921   NORMALIZED FREE ENERGY PREDICTED BY IDOCK:   -3.16 KCAL/MOL
REMARK 922        TOTAL FREE ENERGY PREDICTED BY IDOCK:   -3.85 KCAL/MOL
REMARK 923 INTER-LIGAND FREE ENERGY PREDICTED BY IDOCK:   -5.36 KCAL/MOL
REMARK 924 INTRA-LIGAND FREE ENERGY PREDICTED BY IDOCK:    1.51 KCAL/MOL
REMARK 927      BINDING AFFINITY PREDICTED BY RF-SCORE:    0.00 PKD
ROOT
ATOM      1  C5M   T A   1     -10.212  19.878  67.953  1.00  0.00    -0.571 C  
ATOM      2  C5    T A   1      -9.893  18.425  68.083  1.00  0.00    -0.365 C  
ATOM      3  C6    T A   1     -10.777  17.433  67.925  1.00  0.00    -0.351 C  
ATOM      4  N1    T A   1     -10.455  16.090  68.097  1.00  0.00    -0.260 N  
ATOM      5  O4    T A   1      -7.666  18.908  68.733  1.00  0.00    -0.329 OA 
ATOM      6  C2    T A   1      -9.190  15.742  68.559  1.00  0.00    -0.198 C  
ATOM      7  O2    T A   1      -8.887  14.649  69.029  1.00  0.00    -0.166 OA 
ATOM      8  H3    T A   1      -7.264  16.441  68.503  1.00  0.00     0.000 HD 
ATOM      9  N3    T A   1      -8.243  16.728  68.504  1.00  0.00    -0.231 N  
ATOM     10  C4    T A   1      -8.507  18.063  68.451  1.00  0.00    -0.298 C  
ENDROOT
BRANCH   4  11
ATOM     11  C1*   T A   1     -11.546  15.099  68.117  1.00  0.00    -0.341 C  
ATOM     12  C2*   T A   1     -11.566  14.052  69.229  1.00  0.00    -0.356 C  
ATOM     13  C3*   T A   1     -10.664  12.977  68.680  1.00  0.00    -0.248 C  
ATOM     14  C4*   T A   1     -11.073  12.972  67.214  1.00  0.00    -0.273 C  
ATOM     15  O3*   T A   1     -10.861  11.718  69.305  1.00  0.00    -0.365 OA 
ATOM     16  H3*   T A   1     -10.292  11.040  68.959  1.00  0.00     0.000 HD 
ATOM     17  O4*   T A   1     -11.482  14.322  66.892  1.00  0.00    -0.331 OA 
BRANCH  14  18
ATOM     18  C5*   T A   1      -9.956  12.518  66.274  1.00  0.00    -0.252 C  
ATOM     19  O5*   T A   1      -8.737  13.209  66.540  1.00  0.00    -0.422 OA 
ATOM     20  H5*   T A   1      -8.042  12.927  65.956  1.00  0.00     0.000 HD 
ENDBRANCH  14  18
ENDBRANCH   4  11
TORSDOF 2
ENDMDL
MODEL      173
REMARK 921   NORMALIZED FREE ENERGY PREDICTED BY IDOCK:   -3.13 KCAL/MOL
REMARK 922        TOTAL FREE ENERGY PREDICTED BY IDOCK:   -3.82 KCAL/MOL
REMARK 923 INTER-LIGAND FREE ENERGY PREDICTED BY IDOCK:   -3.93 KCAL/MOL
REMARK 924 INTRA-LIGAND FREE ENERGY PREDICTED BY IDOCK:    0.10 KCAL/MOL
REMARK 927      BINDING AFFINITY PREDICTED BY RF-SCORE:    0.00 PKD
ROOT
ATOM      1  C5M   T A   1      -6.217  13.647  67.914  1.00  0.00    -0.158 C  
ATOM      2  C5    T A   1      -7.586  13.233  67.485  1.00  0.00    -0.169 C  
ATOM      3  C6    T A   1      -8.711  13.896  67.778  1.00  0.00    -0.187 C  
ATOM      4  N1    T A   1      -9.976  13.457  67.399  1.00  0.00    -0.227 N  
ATOM      5  O4    T A   1      -6.746  11.246  66.507  1.00  0.00    -0.137 OA 
ATOM      6  C2    T A   1     -10.115  12.220  66.779  1.00  0.00    -0.209 C  
ATOM      7  O2    T A   1     -11.168  11.599  66.671  1.00  0.00    -0.300 OA 
ATOM      8  H3    T A   1      -9.053  10.959  65.560  1.00  0.00     0.000 HD 
ATOM      9  N3    T A   1      -8.963  11.663  66.293  1.00  0.00    -0.204 N  
ATOM     10  C4    T A   1      -7.706  11.977  66.714  1.00  0.00    -0.014 C  
ENDROOT
BRANCH   4  11
ATOM     11  C1*   T A   1     -11.157  14.138  67.958  1.00  0.00    -0.267 C  
ATOM     12  C2*   T A   1     -10.986  14.999  69.209  1.00  0.00    -0.269 C  
ATOM     13  C3*   T A   1     -11.101  13.987  70.319  1.00  0.00     0.244 C  
ATOM     14  C4*   T A   1     -12.219  13.100  69.791  1.00  0.00    -0.202 C  
ATOM     15  O3*   T A   1     -11.418  14.576  71.572  1.00  0.00    -0.483 OA 
ATOM     16  H3*   T A   1     -11.490  13.938  72.272  1.00  0.00     0.000 HD 
ATOM     17  O4*   T A   1     -12.126  13.128  68.347  1.00  0.00    -0.318 OA 
BRANCH  14  18
ATOM     18  C5*   T A   1     -12.142  11.660  70.299  1.00  0.00    -0.358 C  
ATOM     19  O5*   T A   1     -12.527  10.728  69.289  1.00  0.00    -0.668 OA 
ATOM     20  H5*   T A   1     -12.479   9.833  69.605  1.00  0.00     0.000 HD 
ENDBRANCH  14  18
ENDBRANCH   4  11
TORSDOF 2
ENDMDL
MODEL      174
REMARK 921   NORMALIZED FREE ENERGY PREDICTED BY IDOCK:   -3.08 KCAL/MOL
REMARK 922        TOTAL FREE ENERGY PREDICTED BY IDOCK:   -3.76 KCAL/MOL
REMARK 923 INTER-LIGAND FREE ENERGY PREDICTED BY IDOCK:   -3.90 KCAL/MOL
REMARK 924 INTRA-LIGAND FREE ENERGY PREDICTED BY IDOCK:    0.13 KCAL/MOL
REMARK 927      BINDING AFFINITY PREDICTED BY RF-SCORE:    0.00 PKD
ROOT
ATOM      1  C5M   T A   1      -8.709   9.358  62.928  1.00  0.00    -0.228 C  
ATOM      2  C5    T A   1      -8.059   9.872  64.170  1.00  0.00    -0.152 C  
ATOM      3  C6    T A   1      -8.701  10.497  65.164  1.00  0.00    -0.185 C  
ATOM      4  N1    T A   1      -8.057  11.003  66.289  1.00  0.00    -0.165 N  
ATOM      5  O4    T A   1      -5.913   9.265  63.373  1.00  0.00    -0.087 OA 
ATOM      6  C2    T A   1      -6.668  10.967  66.357  1.00  0.00    -0.123 C  
ATOM      7  O2    T A   1      -5.982  11.632  67.129  1.00  0.00    -0.095 OA 
ATOM      8  H3    T A   1      -5.103   9.829  65.681  1.00  0.00     0.000 HD 
ATOM      9  N3    T A   1      -6.047  10.144  65.458  1.00  0.00    -0.090 N  
ATOM     10  C4    T A   1      -6.594   9.713  64.287  1.00  0.00    -0.111 C  
ENDROOT
BRANCH   4  11
ATOM     11  C1*   T A   1      -8.819  11.862  67.213  1.00  0.00    -0.179 C  
ATOM     12  C2*   T A   1      -9.734  11.203  68.244  1.00  0.00    -0.190 C  
ATOM     13  C3*   T A   1     -11.006  10.994  67.465  1.00  0.00    -0.281 C  
ATOM     14  C4*   T A   1     -11.073  12.286  66.663  1.00  0.00    -0.297 C  
ATOM     15  O3*   T A   1     -12.141  10.810  68.298  1.00  0.00    -0.805 OA 
ATOM     16  H3*   T A   1     -12.942  10.677  67.806  1.00  0.00     0.000 HD 
ATOM     17  O4*   T A   1      -9.708  12.702  66.429  1.00  0.00    -0.249 OA 
BRANCH  14  18
ATOM     18  C5*   T A   1     -11.817  12.138  65.335  1.00  0.00    -0.295 C  
ATOM     19  O5*   T A   1     -12.010  13.401  64.701  1.00  0.00    -0.366 OA 
ATOM     20  H5*   T A   1     -12.472  13.309  63.876  1.00  0.00     0.000 HD 
ENDBRANCH  14  18
ENDBRANCH   4  11
TORSDOF 2
ENDMDL
MODEL      175
REMARK 921   NORMALIZED FREE ENERGY PREDICTED BY IDOCK:   -3.08 KCAL/MOL
REMARK 922        TOTAL FREE ENERGY PREDICTED BY IDOCK:   -3.76 KCAL/MOL
REMARK 923 INTER-LIGAND FREE ENERGY PREDICTED BY IDOCK:   -3.90 KCAL/MOL
REMARK 924 INTRA-LIGAND FREE ENERGY PREDICTED BY IDOCK:    0.13 KCAL/MOL
REMARK 927      BINDING AFFINITY PREDICTED BY RF-SCORE:    0.00 PKD
ROOT
ATOM      1  C5M   T A   1      -9.781   4.366  68.920  1.00  0.00    -0.211 C  
ATOM      2  C5    T A   1      -9.894   5.798  68.513  1.00  0.00    -0.177 C  
ATOM      3  C6    T A   1      -9.624   6.840  69.308  1.00  0.00    -0.144 C  
ATOM      4  N1    T A   1      -9.782   8.164  68.910  1.00  0.00    -0.154 N  
ATOM      5  O4    T A   1     -10.762   5.193  66.393  1.00  0.00    -0.308 OA 
ATOM      6  C2    T A   1     -10.348   8.444  67.670  1.00  0.00    -0.252 C  
ATOM      7  O2    T A   1     -10.809   9.532  67.335  1.00  0.00    -0.269 OA 
ATOM      8  H3    T A   1     -10.492   7.617  65.800  1.00  0.00     0.000 HD 
ATOM      9  N3    T A   1     -10.412   7.397  66.793  1.00  0.00    -0.284 N  
ATOM     10  C4    T A   1     -10.376   6.081  67.145  1.00  0.00    -0.230 C  
ENDROOT
BRANCH   4  11
ATOM     11  C1*   T A   1      -9.671   9.226  69.926  1.00  0.00    -0.201 C  
ATOM     12  C2*   T A   1      -8.280   9.701  70.344  1.00  0.00    -0.194 C  
ATOM     13  C3*   T A   1      -7.902   8.705  71.410  1.00  0.00    -0.129 C  
ATOM     14  C4*   T A   1      -9.228   8.542  72.140  1.00  0.00    -0.266 C  
ATOM     15  O3*   T A   1      -6.866   9.173  72.260  1.00  0.00    -0.312 OA 
ATOM     16  H3*   T A   1      -6.628   8.545  72.932  1.00  0.00     0.000 HD 
ATOM     17  O4*   T A   1     -10.271   8.745  71.159  1.00  0.00    -0.207 OA 
BRANCH  14  18
ATOM     18  C5*   T A   1      -9.388   7.177  72.809  1.00  0.00    -0.141 C  
ATOM     19  O5*   T A   1      -9.957   7.296  74.112  1.00  0.00    -0.416 OA 
ATOM     20  H5*   T A   1     -10.056   6.447  74.527  1.00  0.00     0.000 HD 
ENDBRANCH  14  18
ENDBRANCH   4  11
TORSDOF 2
ENDMDL
MODEL      176
REMARK 921   NORMALIZED FREE ENERGY PREDICTED BY IDOCK:   -3.08 KCAL/MOL
REMARK 922        TOTAL FREE ENERGY PREDICTED BY IDOCK:   -3.76 KCAL/MOL
REMARK 923 INTER-LIGAND FREE ENERGY PREDICTED BY IDOCK:   -3.74 KCAL/MOL
REMARK 924 INTRA-LIGAND FREE ENERGY PREDICTED BY IDOCK:   -0.02 KCAL/MOL
REMARK 927      BINDING AFFINITY PREDICTED BY RF-SCORE:    0.00 PKD
ROOT
ATOM      1  C5M   T A   1      -5.301  13.121  67.719  1.00  0.00    -0.100 C  
ATOM      2  C5    T A   1      -6.743  13.437  67.496  1.00  0.00    -0.151 C  
ATOM      3  C6    T A   1      -7.305  14.631  67.714  1.00  0.00    -0.173 C  
ATOM      4  N1    T A   1      -8.663  14.880  67.537  1.00  0.00    -0.178 N  
ATOM      5  O4    T A   1      -7.215  11.185  66.931  1.00  0.00    -0.122 OA 
ATOM      6  C2    T A   1      -9.517  13.828  67.224  1.00  0.00    -0.236 C  
ATOM      7  O2    T A   1     -10.739  13.854  67.337  1.00  0.00    -0.268 OA 
ATOM      8  H3    T A   1      -9.478  12.027  66.246  1.00  0.00     0.000 HD 
ATOM      9  N3    T A   1      -8.914  12.678  66.793  1.00  0.00    -0.215 N  
ATOM     10  C4    T A   1      -7.619  12.337  67.038  1.00  0.00    -0.071 C  
ENDROOT
BRANCH   4  11
ATOM     11  C1*   T A   1      -9.214  16.161  68.015  1.00  0.00    -0.195 C  
ATOM     12  C2*   T A   1     -10.399  16.774  67.271  1.00  0.00    -0.304 C  
ATOM     13  C3*   T A   1      -9.727  17.533  66.156  1.00  0.00    -0.209 C  
ATOM     14  C4*   T A   1      -8.521  18.111  66.882  1.00  0.00    -0.253 C  
ATOM     15  O3*   T A   1     -10.557  18.537  65.593  1.00  0.00    -0.616 OA 
ATOM     16  H3*   T A   1     -10.133  19.016  64.890  1.00  0.00     0.000 HD 
ATOM     17  O4*   T A   1      -8.173  17.170  67.925  1.00  0.00    -0.195 OA 
BRANCH  14  18
ATOM     18  C5*   T A   1      -7.321  18.354  65.966  1.00  0.00    -0.238 C  
ATOM     19  O5*   T A   1      -6.313  17.361  66.151  1.00  0.00    -0.218 OA 
ATOM     20  H5*   T A   1      -5.567  17.512  65.582  1.00  0.00     0.000 HD 
ENDBRANCH  14  18
ENDBRANCH   4  11
TORSDOF 2
ENDMDL
MODEL      177
REMARK 921   NORMALIZED FREE ENERGY PREDICTED BY IDOCK:   -3.07 KCAL/MOL
REMARK 922        TOTAL FREE ENERGY PREDICTED BY IDOCK:   -3.75 KCAL/MOL
REMARK 923 INTER-LIGAND FREE ENERGY PREDICTED BY IDOCK:   -3.29 KCAL/MOL
REMARK 924 INTRA-LIGAND FREE ENERGY PREDICTED BY IDOCK:   -0.46 KCAL/MOL
REMARK 927      BINDING AFFINITY PREDICTED BY RF-SCORE:    0.00 PKD
ROOT
ATOM      1  C5M   T A   1      -8.156   9.008  70.057  1.00  0.00    -0.124 C  
ATOM      2  C5    T A   1      -7.682  10.240  69.358  1.00  0.00    -0.146 C  
ATOM      3  C6    T A   1      -8.474  11.098  68.705  1.00  0.00    -0.153 C  
ATOM      4  N1    T A   1      -7.994  12.214  68.026  1.00  0.00    -0.141 N  
ATOM      5  O4    T A   1      -5.420   9.710  69.824  1.00  0.00    -0.033 OA 
ATOM      6  C2    T A   1      -6.621  12.410  67.915  1.00  0.00    -0.097 C  
ATOM      7  O2    T A   1      -6.078  13.162  67.111  1.00  0.00    -0.301 OA 
ATOM      8  H3    T A   1      -4.900  12.006  68.953  1.00  0.00     0.000 HD 
ATOM      9  N3    T A   1      -5.841  11.666  68.758  1.00  0.00    -0.046 N  
ATOM     10  C4    T A   1      -6.228  10.505  69.357  1.00  0.00    -0.048 C  
ENDROOT
BRANCH   4  11
ATOM     11  C1*   T A   1      -8.918  12.966  67.159  1.00  0.00    -0.219 C  
ATOM     12  C2*   T A   1      -9.182  14.438  67.468  1.00  0.00    -0.200 C  
ATOM     13  C3*   T A   1     -10.281  14.364  68.496  1.00  0.00    -0.243 C  
ATOM     14  C4*   T A   1     -11.130  13.232  67.935  1.00  0.00    -0.262 C  
ATOM     15  O3*   T A   1     -11.005  15.579  68.620  1.00  0.00    -0.252 OA 
ATOM     16  H3*   T A   1     -11.698  15.532  69.268  1.00  0.00     0.000 HD 
ATOM     17  O4*   T A   1     -10.228  12.342  67.237  1.00  0.00    -0.214 OA 
BRANCH  14  18
ATOM     18  C5*   T A   1     -11.906  12.467  69.007  1.00  0.00    -0.300 C  
ATOM     19  O5*   T A   1     -11.766  13.077  70.289  1.00  0.00    -0.512 OA 
ATOM     20  H5*   T A   1     -12.248  12.601  70.956  1.00  0.00     0.000 HD 
ENDBRANCH  14  18
ENDBRANCH   4  11
TORSDOF 2
ENDMDL
MODEL      178
REMARK 921   NORMALIZED FREE ENERGY PREDICTED BY IDOCK:   -3.05 KCAL/MOL
REMARK 922        TOTAL FREE ENERGY PREDICTED BY IDOCK:   -3.74 KCAL/MOL
REMARK 923 INTER-LIGAND FREE ENERGY PREDICTED BY IDOCK:   -3.33 KCAL/MOL
REMARK 924 INTRA-LIGAND FREE ENERGY PREDICTED BY IDOCK:   -0.40 KCAL/MOL
REMARK 927      BINDING AFFINITY PREDICTED BY RF-SCORE:    0.00 PKD
ROOT
ATOM      1  C5M   T A   1      -9.318   2.871  67.860  1.00  0.00    -0.256 C  
ATOM      2  C5    T A   1      -9.373   3.791  69.034  1.00  0.00    -0.240 C  
ATOM      3  C6    T A   1      -9.190   5.115  68.975  1.00  0.00    -0.117 C  
ATOM      4  N1    T A   1      -9.205   5.938  70.097  1.00  0.00    -0.151 N  
ATOM      5  O4    T A   1      -9.663   1.972  70.525  1.00  0.00    -0.089 OA 
ATOM      6  C2    T A   1      -9.304   5.369  71.363  1.00  0.00    -0.147 C  
ATOM      7  O2    T A   1      -9.030   5.939  72.416  1.00  0.00    -0.138 OA 
ATOM      8  H3    T A   1     -10.111   3.719  72.271  1.00  0.00     0.000 HD 
ATOM      9  N3    T A   1      -9.706   4.062  71.400  1.00  0.00    -0.174 N  
ATOM     10  C4    T A   1      -9.607   3.185  70.363  1.00  0.00    -0.122 C  
ENDROOT
BRANCH   4  11
ATOM     11  C1*   T A   1      -8.775   7.341  69.951  1.00  0.00    -0.141 C  
ATOM     12  C2*   T A   1      -9.778   8.452  70.254  1.00  0.00    -0.178 C  
ATOM     13  C3*   T A   1     -10.518   8.591  68.949  1.00  0.00    -0.188 C  
ATOM     14  C4*   T A   1      -9.378   8.438  67.951  1.00  0.00    -0.135 C  
ATOM     15  O3*   T A   1     -11.188   9.835  68.823  1.00  0.00    -0.440 OA 
ATOM     16  H3*   T A   1     -11.654   9.922  68.000  1.00  0.00     0.000 HD 
ATOM     17  O4*   T A   1      -8.402   7.563  68.564  1.00  0.00    -0.124 OA 
BRANCH  14  18
ATOM     18  C5*   T A   1      -9.824   7.872  66.603  1.00  0.00    -0.241 C  
ATOM     19  O5*   T A   1     -11.138   7.320  66.677  1.00  0.00    -0.449 OA 
ATOM     20  H5*   T A   1     -11.416   6.968  65.839  1.00  0.00     0.000 HD 
ENDBRANCH  14  18
ENDBRANCH   4  11
TORSDOF 2
ENDMDL
MODEL      179
REMARK 921   NORMALIZED FREE ENERGY PREDICTED BY IDOCK:   -3.02 KCAL/MOL
REMARK 922        TOTAL FREE ENERGY PREDICTED BY IDOCK:   -3.70 KCAL/MOL
REMARK 923 INTER-LIGAND FREE ENERGY PREDICTED BY IDOCK:   -3.47 KCAL/MOL
REMARK 924 INTRA-LIGAND FREE ENERGY PREDICTED BY IDOCK:   -0.23 KCAL/MOL
REMARK 927      BINDING AFFINITY PREDICTED BY RF-SCORE:    0.00 PKD
ROOT
ATOM      1  C5M   T A   1      -8.598   9.989  64.974  1.00  0.00    -0.173 C  
ATOM      2  C5    T A   1      -9.176   9.563  66.283  1.00  0.00    -0.219 C  
ATOM      3  C6    T A   1      -9.759   8.381  66.511  1.00  0.00    -0.260 C  
ATOM      4  N1    T A   1     -10.327   8.033  67.732  1.00  0.00    -0.225 N  
ATOM      5  O4    T A   1      -8.731  11.684  67.241  1.00  0.00    -0.149 OA 
ATOM      6  C2    T A   1     -10.402   8.980  68.748  1.00  0.00    -0.215 C  
ATOM      7  O2    T A   1     -11.128   8.901  69.735  1.00  0.00    -0.200 OA 
ATOM      8  H3    T A   1      -9.383  10.626  69.422  1.00  0.00     0.000 HD 
ATOM      9  N3    T A   1      -9.621  10.092  68.586  1.00  0.00    -0.151 N  
ATOM     10  C4    T A   1      -9.134  10.537  67.395  1.00  0.00    -0.139 C  
ENDROOT
BRANCH   4  11
ATOM     11  C1*   T A   1     -11.134   6.802  67.811  1.00  0.00    -0.201 C  
ATOM     12  C2*   T A   1     -10.778   5.755  68.865  1.00  0.00    -0.334 C  
ATOM     13  C3*   T A   1      -9.705   4.952  68.177  1.00  0.00    -0.148 C  
ATOM     14  C4*   T A   1     -10.257   4.880  66.760  1.00  0.00    -0.235 C  
ATOM     15  O3*   T A   1      -9.520   3.668  68.755  1.00  0.00    -0.161 OA 
ATOM     16  H3*   T A   1      -8.843   3.162  68.321  1.00  0.00     0.000 HD 
ATOM     17  O4*   T A   1     -11.015   6.094  66.548  1.00  0.00    -0.242 OA 
BRANCH  14  18
ATOM     18  C5*   T A   1      -9.172   4.741  65.693  1.00  0.00    -0.152 C  
ATOM     19  O5*   T A   1      -9.727   4.394  64.425  1.00  0.00    -0.263 OA 
ATOM     20  H5*   T A   1      -9.052   4.307  63.762  1.00  0.00     0.000 HD 
ENDBRANCH  14  18
ENDBRANCH   4  11
TORSDOF 2
ENDMDL
MODEL      180
REMARK 921   NORMALIZED FREE ENERGY PREDICTED BY IDOCK:   -2.98 KCAL/MOL
REMARK 922        TOTAL FREE ENERGY PREDICTED BY IDOCK:   -3.66 KCAL/MOL
REMARK 923 INTER-LIGAND FREE ENERGY PREDICTED BY IDOCK:   -3.34 KCAL/MOL
REMARK 924 INTRA-LIGAND FREE ENERGY PREDICTED BY IDOCK:   -0.31 KCAL/MOL
REMARK 927      BINDING AFFINITY PREDICTED BY RF-SCORE:    0.00 PKD
ROOT
ATOM      1  C5M   T A   1      -5.919   8.751  67.147  1.00  0.00    -0.053 C  
ATOM      2  C5    T A   1      -7.011   9.762  67.272  1.00  0.00    -0.084 C  
ATOM      3  C6    T A   1      -8.254   9.494  67.686  1.00  0.00    -0.121 C  
ATOM      4  N1    T A   1      -9.261  10.452  67.749  1.00  0.00    -0.141 N  
ATOM      5  O4    T A   1      -5.629  11.459  66.363  1.00  0.00    -0.139 OA 
ATOM      6  C2    T A   1      -9.019  11.732  67.260  1.00  0.00    -0.172 C  
ATOM      7  O2    T A   1      -9.886  12.558  66.985  1.00  0.00    -0.210 OA 
ATOM      8  H3    T A   1      -7.460  13.042  67.026  1.00  0.00     0.000 HD 
ATOM      9  N3    T A   1      -7.706  12.053  67.049  1.00  0.00    -0.153 N  
ATOM     10  C4    T A   1      -6.702  11.150  66.869  1.00  0.00    -0.128 C  
ENDROOT
BRANCH   4  11
ATOM     11  C1*   T A   1     -10.643  10.010  68.005  1.00  0.00    -0.235 C  
ATOM     12  C2*   T A   1     -11.532  10.862  68.909  1.00  0.00    -0.369 C  
ATOM     13  C3*   T A   1     -11.168  10.368  70.285  1.00  0.00    -0.320 C  
ATOM     14  C4*   T A   1     -11.041   8.872  70.033  1.00  0.00    -0.170 C  
ATOM     15  O3*   T A   1     -12.153  10.674  71.261  1.00  0.00    -0.345 OA 
ATOM     16  H3*   T A   1     -11.923  10.362  72.128  1.00  0.00     0.000 HD 
ATOM     17  O4*   T A   1     -10.595   8.717  68.665  1.00  0.00    -0.204 OA 
BRANCH  14  18
ATOM     18  C5*   T A   1     -10.071   8.176  70.988  1.00  0.00    -0.187 C  
ATOM     19  O5*   T A   1     -10.457   8.358  72.350  1.00  0.00    -0.310 OA 
ATOM     20  H5*   T A   1      -9.854   7.926  72.944  1.00  0.00     0.000 HD 
ENDBRANCH  14  18
ENDBRANCH   4  11
TORSDOF 2
ENDMDL
MODEL      181
REMARK 921   NORMALIZED FREE ENERGY PREDICTED BY IDOCK:   -2.96 KCAL/MOL
REMARK 922        TOTAL FREE ENERGY PREDICTED BY IDOCK:   -3.63 KCAL/MOL
REMARK 923 INTER-LIGAND FREE ENERGY PREDICTED BY IDOCK:   -3.74 KCAL/MOL
REMARK 924 INTRA-LIGAND FREE ENERGY PREDICTED BY IDOCK:    0.11 KCAL/MOL
REMARK 927      BINDING AFFINITY PREDICTED BY RF-SCORE:    0.00 PKD
ROOT
ATOM      1  C5M   T A   1      -9.806   5.135  67.172  1.00  0.00    -0.191 C  
ATOM      2  C5    T A   1     -10.153   6.402  67.882  1.00  0.00    -0.170 C  
ATOM      3  C6    T A   1     -10.372   7.577  67.281  1.00  0.00    -0.296 C  
ATOM      4  N1    T A   1     -10.650   8.749  67.977  1.00  0.00    -0.197 N  
ATOM      5  O4    T A   1      -9.912   5.357  69.995  1.00  0.00    -0.193 OA 
ATOM      6  C2    T A   1     -10.596   8.750  69.367  1.00  0.00    -0.209 C  
ATOM      7  O2    T A   1     -10.523   9.754  70.070  1.00  0.00    -0.231 OA 
ATOM      8  H3    T A   1     -10.890   7.467  70.939  1.00  0.00     0.000 HD 
ATOM      9  N3    T A   1     -10.591   7.519  69.965  1.00  0.00    -0.232 N  
ATOM     10  C4    T A   1     -10.218   6.359  69.358  1.00  0.00    -0.192 C  
ENDROOT
BRANCH   4  11
ATOM     11  C1*   T A   1     -10.656  10.025  67.239  1.00  0.00    -0.257 C  
ATOM     12  C2*   T A   1     -10.075  10.060  65.827  1.00  0.00    -0.320 C  
ATOM     13  C3*   T A   1      -8.606  10.270  66.083  1.00  0.00    -0.139 C  
ATOM     14  C4*   T A   1      -8.650  11.266  67.234  1.00  0.00    -0.143 C  
ATOM     15  O3*   T A   1      -7.914  10.775  64.952  1.00  0.00    -0.341 OA 
ATOM     16  H3*   T A   1      -6.987  10.907  65.114  1.00  0.00     0.000 HD 
ATOM     17  O4*   T A   1      -9.858  10.987  67.980  1.00  0.00    -0.164 OA 
BRANCH  14  18
ATOM     18  C5*   T A   1      -7.430  11.185  68.153  1.00  0.00    -0.093 C  
ATOM     19  O5*   T A   1      -7.799  11.321  69.524  1.00  0.00    -0.371 OA 
ATOM     20  H5*   T A   1      -7.041  11.271  70.095  1.00  0.00     0.000 HD 
ENDBRANCH  14  18
ENDBRANCH   4  11
TORSDOF 2
ENDMDL
MODEL      182
REMARK 921   NORMALIZED FREE ENERGY PREDICTED BY IDOCK:   -2.95 KCAL/MOL
REMARK 922        TOTAL FREE ENERGY PREDICTED BY IDOCK:   -3.62 KCAL/MOL
REMARK 923 INTER-LIGAND FREE ENERGY PREDICTED BY IDOCK:   -3.62 KCAL/MOL
REMARK 924 INTRA-LIGAND FREE ENERGY PREDICTED BY IDOCK:    0.00 KCAL/MOL
REMARK 927      BINDING AFFINITY PREDICTED BY RF-SCORE:    0.00 PKD
ROOT
ATOM      1  C5M   T A   1      -7.062  13.289  68.818  1.00  0.00    -0.100 C  
ATOM      2  C5    T A   1      -7.807  12.292  67.993  1.00  0.00    -0.147 C  
ATOM      3  C6    T A   1      -9.069  11.907  68.217  1.00  0.00    -0.183 C  
ATOM      4  N1    T A   1      -9.719  10.942  67.454  1.00  0.00    -0.167 N  
ATOM      5  O4    T A   1      -5.889  11.859  66.671  1.00  0.00    -0.221 OA 
ATOM      6  C2    T A   1      -9.012  10.252  66.475  1.00  0.00    -0.144 C  
ATOM      7  O2    T A   1      -9.371   9.199  65.956  1.00  0.00    -0.200 OA 
ATOM      8  H3    T A   1      -7.434  10.538  65.198  1.00  0.00     0.000 HD 
ATOM      9  N3    T A   1      -7.811  10.796  66.110  1.00  0.00    -0.155 N  
ATOM     10  C4    T A   1      -7.081  11.657  66.872  1.00  0.00    -0.124 C  
ENDROOT
BRANCH   4  11
ATOM     11  C1*   T A   1     -11.023  10.434  67.918  1.00  0.00    -0.297 C  
ATOM     12  C2*   T A   1     -11.949  11.378  68.683  1.00  0.00    -0.317 C  
ATOM     13  C3*   T A   1     -11.449  11.251  70.098  1.00  0.00    -0.247 C  
ATOM     14  C4*   T A   1     -11.163   9.758  70.174  1.00  0.00    -0.272 C  
ATOM     15  O3*   T A   1     -12.402  11.673  71.062  1.00  0.00    -0.360 OA 
ATOM     16  H3*   T A   1     -12.086  11.593  71.954  1.00  0.00     0.000 HD 
ATOM     17  O4*   T A   1     -10.785   9.338  68.842  1.00  0.00    -0.215 OA 
BRANCH  14  18
ATOM     18  C5*   T A   1     -10.063   9.401  71.174  1.00  0.00    -0.265 C  
ATOM     19  O5*   T A   1      -8.800   9.247  70.529  1.00  0.00    -0.206 OA 
ATOM     20  H5*   T A   1      -8.116   9.025  71.150  1.00  0.00     0.000 HD 
ENDBRANCH  14  18
ENDBRANCH   4  11
TORSDOF 2
ENDMDL
MODEL      183
REMARK 921   NORMALIZED FREE ENERGY PREDICTED BY IDOCK:   -2.94 KCAL/MOL
REMARK 922        TOTAL FREE ENERGY PREDICTED BY IDOCK:   -3.61 KCAL/MOL
REMARK 923 INTER-LIGAND FREE ENERGY PREDICTED BY IDOCK:   -3.19 KCAL/MOL
REMARK 924 INTRA-LIGAND FREE ENERGY PREDICTED BY IDOCK:   -0.42 KCAL/MOL
REMARK 927      BINDING AFFINITY PREDICTED BY RF-SCORE:    0.00 PKD
ROOT
ATOM      1  C5M   T A   1      -9.742   3.997  66.568  1.00  0.00    -0.211 C  
ATOM      2  C5    T A   1      -9.700   5.399  67.081  1.00  0.00    -0.159 C  
ATOM      3  C6    T A   1     -10.241   5.806  68.235  1.00  0.00    -0.187 C  
ATOM      4  N1    T A   1     -10.222   7.130  68.663  1.00  0.00    -0.173 N  
ATOM      5  O4    T A   1      -8.634   6.157  65.105  1.00  0.00    -0.132 OA 
ATOM      6  C2    T A   1      -9.718   8.115  67.819  1.00  0.00    -0.157 C  
ATOM      7  O2    T A   1      -9.916   9.320  67.945  1.00  0.00    -0.170 OA 
ATOM      8  H3    T A   1      -8.329   8.328  66.327  1.00  0.00     0.000 HD 
ATOM      9  N3    T A   1      -8.979   7.670  66.756  1.00  0.00    -0.137 N  
ATOM     10  C4    T A   1      -9.047   6.416  66.229  1.00  0.00    -0.151 C  
ENDROOT
BRANCH   4  11
ATOM     11  C1*   T A   1     -11.034   7.507  69.834  1.00  0.00    -0.211 C  
ATOM     12  C2*   T A   1     -10.378   8.311  70.955  1.00  0.00    -0.225 C  
ATOM     13  C3*   T A   1      -9.744   7.236  71.799  1.00  0.00    -0.153 C  
ATOM     14  C4*   T A   1     -10.820   6.160  71.759  1.00  0.00    -0.255 C  
ATOM     15  O3*   T A   1      -9.456   7.669  73.120  1.00  0.00    -0.193 OA 
ATOM     16  H3*   T A   1      -9.056   6.991  73.652  1.00  0.00     0.000 HD 
ATOM     17  O4*   T A   1     -11.491   6.291  70.484  1.00  0.00    -0.357 OA 
BRANCH  14  18
ATOM     18  C5*   T A   1     -10.268   4.744  71.924  1.00  0.00    -0.193 C  
ATOM     19  O5*   T A   1      -9.402   4.650  73.054  1.00  0.00    -0.122 OA 
ATOM     20  H5*   T A   1      -9.058   3.769  73.157  1.00  0.00     0.000 HD 
ENDBRANCH  14  18
ENDBRANCH   4  11
TORSDOF 2
ENDMDL
MODEL      184
REMARK 921   NORMALIZED FREE ENERGY PREDICTED BY IDOCK:   -2.93 KCAL/MOL
REMARK 922        TOTAL FREE ENERGY PREDICTED BY IDOCK:   -3.60 KCAL/MOL
REMARK 923 INTER-LIGAND FREE ENERGY PREDICTED BY IDOCK:   -3.26 KCAL/MOL
REMARK 924 INTRA-LIGAND FREE ENERGY PREDICTED BY IDOCK:   -0.33 KCAL/MOL
REMARK 927      BINDING AFFINITY PREDICTED BY RF-SCORE:    0.00 PKD
ROOT
ATOM      1  C5M   T A   1      -9.507   2.647  69.620  1.00  0.00    -0.138 C  
ATOM      2  C5    T A   1      -9.755   4.119  69.570  1.00  0.00    -0.254 C  
ATOM      3  C6    T A   1     -10.056   4.878  70.630  1.00  0.00    -0.236 C  
ATOM      4  N1    T A   1     -10.324   6.240  70.542  1.00  0.00    -0.196 N  
ATOM      5  O4    T A   1      -9.553   4.137  67.210  1.00  0.00    -0.180 OA 
ATOM      6  C2    T A   1     -10.395   6.845  69.291  1.00  0.00    -0.198 C  
ATOM      7  O2    T A   1     -10.907   7.937  69.063  1.00  0.00    -0.143 OA 
ATOM      8  H3    T A   1      -9.600   6.638  67.413  1.00  0.00     0.000 HD 
ATOM      9  N3    T A   1      -9.877   6.124  68.249  1.00  0.00    -0.121 N  
ATOM     10  C4    T A   1      -9.701   4.774  68.246  1.00  0.00    -0.140 C  
ENDROOT
BRANCH   4  11
ATOM     11  C1*   T A   1     -10.859   6.934  71.727  1.00  0.00    -0.225 C  
ATOM     12  C2*   T A   1     -10.220   8.253  72.157  1.00  0.00    -0.355 C  
ATOM     13  C3*   T A   1      -9.063   7.794  73.006  1.00  0.00    -0.211 C  
ATOM     14  C4*   T A   1      -9.696   6.630  73.757  1.00  0.00    -0.224 C  
ATOM     15  O3*   T A   1      -8.581   8.806  73.877  1.00  0.00    -0.206 OA 
ATOM     16  H3*   T A   1      -7.851   8.516  74.412  1.00  0.00     0.000 HD 
ATOM     17  O4*   T A   1     -10.697   6.063  72.879  1.00  0.00    -0.221 OA 
BRANCH  14  18
ATOM     18  C5*   T A   1      -8.689   5.558  74.174  1.00  0.00    -0.119 C  
ATOM     19  O5*   T A   1      -7.463   5.684  73.454  1.00  0.00    -0.093 OA 
ATOM     20  H5*   T A   1      -6.837   5.018  73.713  1.00  0.00     0.000 HD 
ENDBRANCH  14  18
ENDBRANCH   4  11
TORSDOF 2
ENDMDL
MODEL      185
REMARK 921   NORMALIZED FREE ENERGY PREDICTED BY IDOCK:   -2.92 KCAL/MOL
REMARK 922        TOTAL FREE ENERGY PREDICTED BY IDOCK:   -3.59 KCAL/MOL
REMARK 923 INTER-LIGAND FREE ENERGY PREDICTED BY IDOCK:   -3.32 KCAL/MOL
REMARK 924 INTRA-LIGAND FREE ENERGY PREDICTED BY IDOCK:   -0.27 KCAL/MOL
REMARK 927      BINDING AFFINITY PREDICTED BY RF-SCORE:    0.00 PKD
ROOT
ATOM      1  C5M   T A   1      -7.986   4.385  69.689  1.00  0.00    -0.057 C  
ATOM      2  C5    T A   1      -8.320   5.669  70.374  1.00  0.00    -0.119 C  
ATOM      3  C6    T A   1      -8.587   6.821  69.747  1.00  0.00    -0.141 C  
ATOM      4  N1    T A   1      -8.851   8.011  70.417  1.00  0.00    -0.140 N  
ATOM      5  O4    T A   1      -7.965   4.699  72.505  1.00  0.00    -0.089 OA 
ATOM      6  C2    T A   1      -8.733   8.058  71.803  1.00  0.00    -0.137 C  
ATOM      7  O2    T A   1      -8.644   9.086  72.468  1.00  0.00    -0.328 OA 
ATOM      8  H3    T A   1      -8.933   6.823  73.426  1.00  0.00     0.000 HD 
ATOM      9  N3    T A   1      -8.680   6.848  72.438  1.00  0.00    -0.126 N  
ATOM     10  C4    T A   1      -8.317   5.674  71.852  1.00  0.00    -0.120 C  
ENDROOT
BRANCH   4  11
ATOM     11  C1*   T A   1      -8.912   9.262  69.640  1.00  0.00    -0.160 C  
ATOM     12  C2*   T A   1     -10.147  10.151  69.773  1.00  0.00    -0.269 C  
ATOM     13  C3*   T A   1     -11.098   9.540  68.777  1.00  0.00    -0.001 C  
ATOM     14  C4*   T A   1     -10.150   9.212  67.632  1.00  0.00    -0.220 C  
ATOM     15  O3*   T A   1     -12.136  10.428  68.387  1.00  0.00    -0.769 OA 
ATOM     16  H3*   T A   1     -12.735  10.042  67.759  1.00  0.00     0.000 HD 
ATOM     17  O4*   T A   1      -8.863   8.926  68.227  1.00  0.00    -0.133 OA 
BRANCH  14  18
ATOM     18  C5*   T A   1     -10.614   8.029  66.781  1.00  0.00    -0.155 C  
ATOM     19  O5*   T A   1      -9.519   7.401  66.117  1.00  0.00    -0.353 OA 
ATOM     20  H5*   T A   1      -9.807   6.667  65.588  1.00  0.00     0.000 HD 
ENDBRANCH  14  18
ENDBRANCH   4  11
TORSDOF 2
ENDMDL
MODEL      186
REMARK 921   NORMALIZED FREE ENERGY PREDICTED BY IDOCK:   -2.90 KCAL/MOL
REMARK 922        TOTAL FREE ENERGY PREDICTED BY IDOCK:   -3.57 KCAL/MOL
REMARK 923 INTER-LIGAND FREE ENERGY PREDICTED BY IDOCK:   -3.21 KCAL/MOL
REMARK 924 INTRA-LIGAND FREE ENERGY PREDICTED BY IDOCK:   -0.36 KCAL/MOL
REMARK 927      BINDING AFFINITY PREDICTED BY RF-SCORE:    0.00 PKD
ROOT
ATOM      1  C5M   T A   1     -11.031  12.728  69.300  1.00  0.00    -0.126 C  
ATOM      2  C5    T A   1     -10.642  14.151  69.074  1.00  0.00    -0.227 C  
ATOM      3  C6    T A   1      -9.390  14.618  69.132  1.00  0.00    -0.048 C  
ATOM      4  N1    T A   1      -9.067  15.961  68.960  1.00  0.00    -0.225 N  
ATOM      5  O4    T A   1     -12.910  14.802  68.856  1.00  0.00     0.347 OA 
ATOM      6  C2    T A   1     -10.086  16.899  68.827  1.00  0.00    -0.295 C  
ATOM      7  O2    T A   1      -9.952  18.111  68.969  1.00  0.00    -0.358 OA 
ATOM      8  H3    T A   1     -12.005  17.024  68.119  1.00  0.00     0.000 HD 
ATOM      9  N3    T A   1     -11.328  16.396  68.550  1.00  0.00    -0.348 N  
ATOM     10  C4    T A   1     -11.727  15.119  68.806  1.00  0.00    -0.342 C  
ENDROOT
BRANCH   4  11
ATOM     11  C1*   T A   1      -7.693  16.402  69.261  1.00  0.00    -0.171 C  
ATOM     12  C2*   T A   1      -6.890  17.104  68.168  1.00  0.00    -0.176 C  
ATOM     13  C3*   T A   1      -6.300  15.948  67.403  1.00  0.00    -0.161 C  
ATOM     14  C4*   T A   1      -5.938  15.001  68.539  1.00  0.00    -0.094 C  
ATOM     15  O3*   T A   1      -5.173  16.318  66.623  1.00  0.00    -0.304 OA 
ATOM     16  H3*   T A   1      -4.802  15.589  66.141  1.00  0.00     0.000 HD 
ATOM     17  O4*   T A   1      -6.899  15.232  69.595  1.00  0.00    -0.164 OA 
BRANCH  14  18
ATOM     18  C5*   T A   1      -5.949  13.528  68.127  1.00  0.00    -0.115 C  
ATOM     19  O5*   T A   1      -6.720  13.322  66.944  1.00  0.00    -0.400 OA 
ATOM     20  H5*   T A   1      -6.727  12.407  66.689  1.00  0.00     0.000 HD 
ENDBRANCH  14  18
ENDBRANCH   4  11
TORSDOF 2
ENDMDL
MODEL      187
REMARK 921   NORMALIZED FREE ENERGY PREDICTED BY IDOCK:   -2.89 KCAL/MOL
REMARK 922        TOTAL FREE ENERGY PREDICTED BY IDOCK:   -3.55 KCAL/MOL
REMARK 923 INTER-LIGAND FREE ENERGY PREDICTED BY IDOCK:   -3.58 KCAL/MOL
REMARK 924 INTRA-LIGAND FREE ENERGY PREDICTED BY IDOCK:    0.03 KCAL/MOL
REMARK 927      BINDING AFFINITY PREDICTED BY RF-SCORE:    0.00 PKD
ROOT
ATOM      1  C5M   T A   1      -9.730   4.488  67.455  1.00  0.00    -0.213 C  
ATOM      2  C5    T A   1      -9.342   5.915  67.251  1.00  0.00    -0.113 C  
ATOM      3  C6    T A   1      -9.519   6.890  68.150  1.00  0.00    -0.122 C  
ATOM      4  N1    T A   1      -9.186   8.219  67.910  1.00  0.00    -0.132 N  
ATOM      5  O4    T A   1      -8.674   5.479  65.020  1.00  0.00    -0.151 OA 
ATOM      6  C2    T A   1      -8.748   8.598  66.644  1.00  0.00    -0.123 C  
ATOM      7  O2    T A   1      -8.713   9.752  66.226  1.00  0.00    -0.135 OA 
ATOM      8  H3    T A   1      -7.740   7.809  65.043  1.00  0.00     0.000 HD 
ATOM      9  N3    T A   1      -8.366   7.579  65.815  1.00  0.00    -0.136 N  
ATOM     10  C4    T A   1      -8.758   6.281  65.943  1.00  0.00    -0.149 C  
ENDROOT
BRANCH   4  11
ATOM     11  C1*   T A   1      -9.622   9.243  68.876  1.00  0.00    -0.155 C  
ATOM     12  C2*   T A   1      -8.733   9.544  70.080  1.00  0.00    -0.258 C  
ATOM     13  C3*   T A   1      -9.160   8.493  71.072  1.00  0.00    -0.179 C  
ATOM     14  C4*   T A   1     -10.666   8.475  70.847  1.00  0.00    -0.224 C  
ATOM     15  O3*   T A   1      -8.813   8.821  72.409  1.00  0.00    -0.391 OA 
ATOM     16  H3*   T A   1      -9.083   8.158  73.034  1.00  0.00     0.000 HD 
ATOM     17  O4*   T A   1     -10.883   8.815  69.458  1.00  0.00    -0.222 OA 
BRANCH  14  18
ATOM     18  C5*   T A   1     -11.310   7.127  71.169  1.00  0.00    -0.275 C  
ATOM     19  O5*   T A   1     -12.392   6.840  70.284  1.00  0.00    -0.604 OA 
ATOM     20  H5*   T A   1     -12.793   6.002  70.484  1.00  0.00     0.000 HD 
ENDBRANCH  14  18
ENDBRANCH   4  11
TORSDOF 2
ENDMDL
MODEL      188
REMARK 921   NORMALIZED FREE ENERGY PREDICTED BY IDOCK:   -2.88 KCAL/MOL
REMARK 922        TOTAL FREE ENERGY PREDICTED BY IDOCK:   -3.54 KCAL/MOL
REMARK 923 INTER-LIGAND FREE ENERGY PREDICTED BY IDOCK:   -4.10 KCAL/MOL
REMARK 924 INTRA-LIGAND FREE ENERGY PREDICTED BY IDOCK:    0.56 KCAL/MOL
REMARK 927      BINDING AFFINITY PREDICTED BY RF-SCORE:    0.00 PKD
ROOT
ATOM      1  C5M   T A   1     -10.599  19.812  66.224  1.00  0.00    -0.572 C  
ATOM      2  C5    T A   1      -9.497  18.805  66.200  1.00  0.00    -0.199 C  
ATOM      3  C6    T A   1      -9.676  17.479  66.208  1.00  0.00    -0.258 C  
ATOM      4  N1    T A   1      -8.624  16.568  66.230  1.00  0.00    -0.315 N  
ATOM      5  O4    T A   1      -7.854  20.507  66.323  1.00  0.00    -0.146 OA 
ATOM      6  C2    T A   1      -7.319  17.031  66.359  1.00  0.00    -0.293 C  
ATOM      7  O2    T A   1      -6.356  16.344  66.687  1.00  0.00    -0.291 OA 
ATOM      8  H3    T A   1      -6.195  18.677  65.879  1.00  0.00     0.000 HD 
ATOM      9  N3    T A   1      -7.134  18.367  66.129  1.00  0.00    -0.246 N  
ATOM     10  C4    T A   1      -8.109  19.314  66.207  1.00  0.00    -0.312 C  
ENDROOT
BRANCH   4  11
ATOM     11  C1*   T A   1      -8.928  15.144  66.461  1.00  0.00    -0.291 C  
ATOM     12  C2*   T A   1     -10.062  14.780  67.417  1.00  0.00    -0.231 C  
ATOM     13  C3*   T A   1      -9.377  14.803  68.760  1.00  0.00    -0.198 C  
ATOM     14  C4*   T A   1      -8.038  14.166  68.415  1.00  0.00    -0.144 C  
ATOM     15  O3*   T A   1     -10.085  14.078  69.754  1.00  0.00    -0.196 OA 
ATOM     16  H3*   T A   1      -9.653  14.094  70.600  1.00  0.00     0.000 HD 
ATOM     17  O4*   T A   1      -7.753  14.514  67.040  1.00  0.00    -0.126 OA 
BRANCH  14  18
ATOM     18  C5*   T A   1      -6.897  14.624  69.324  1.00  0.00    -0.143 C  
ATOM     19  O5*   T A   1      -7.303  14.667  70.691  1.00  0.00    -0.138 OA 
ATOM     20  H5*   T A   1      -6.594  14.952  71.256  1.00  0.00     0.000 HD 
ENDBRANCH  14  18
ENDBRANCH   4  11
TORSDOF 2
ENDMDL
MODEL      189
REMARK 921   NORMALIZED FREE ENERGY PREDICTED BY IDOCK:   -2.88 KCAL/MOL
REMARK 922        TOTAL FREE ENERGY PREDICTED BY IDOCK:   -3.54 KCAL/MOL
REMARK 923 INTER-LIGAND FREE ENERGY PREDICTED BY IDOCK:   -3.42 KCAL/MOL
REMARK 924 INTRA-LIGAND FREE ENERGY PREDICTED BY IDOCK:   -0.11 KCAL/MOL
REMARK 927      BINDING AFFINITY PREDICTED BY RF-SCORE:    0.00 PKD
ROOT
ATOM      1  C5M   T A   1      -8.245   9.527  70.059  1.00  0.00    -0.181 C  
ATOM      2  C5    T A   1      -9.381   9.122  70.939  1.00  0.00    -0.335 C  
ATOM      3  C6    T A   1      -9.309   8.192  71.897  1.00  0.00    -0.190 C  
ATOM      4  N1    T A   1     -10.400   7.807  72.671  1.00  0.00    -0.265 N  
ATOM      5  O4    T A   1     -10.875  10.541  69.769  1.00  0.00    -0.256 OA 
ATOM      6  C2    T A   1     -11.660   8.320  72.381  1.00  0.00    -0.396 C  
ATOM      7  O2    T A   1     -12.723   7.847  72.775  1.00  0.00     0.023 OA 
ATOM      8  H3    T A   1     -12.512  10.012  71.597  1.00  0.00     0.000 HD 
ATOM      9  N3    T A   1     -11.685   9.416  71.561  1.00  0.00    -0.369 N  
ATOM     10  C4    T A   1     -10.689   9.771  70.703  1.00  0.00    -0.326 C  
ENDROOT
BRANCH   4  11
ATOM     11  C1*   T A   1     -10.268   6.626  73.542  1.00  0.00    -0.277 C  
ATOM     12  C2*   T A   1      -8.906   6.319  74.162  1.00  0.00    -0.143 C  
ATOM     13  C3*   T A   1      -8.221   5.534  73.073  1.00  0.00    -0.119 C  
ATOM     14  C4*   T A   1      -9.370   4.675  72.566  1.00  0.00    -0.131 C  
ATOM     15  O3*   T A   1      -7.131   4.760  73.552  1.00  0.00    -0.069 OA 
ATOM     16  H3*   T A   1      -6.700   4.266  72.865  1.00  0.00     0.000 HD 
ATOM     17  O4*   T A   1     -10.581   5.442  72.759  1.00  0.00    -0.203 OA 
BRANCH  14  18
ATOM     18  C5*   T A   1      -9.225   4.275  71.097  1.00  0.00    -0.139 C  
ATOM     19  O5*   T A   1      -7.900   3.834  70.804  1.00  0.00    -0.050 OA 
ATOM     20  H5*   T A   1      -7.810   3.586  69.891  1.00  0.00     0.000 HD 
ENDBRANCH  14  18
ENDBRANCH   4  11
TORSDOF 2
ENDMDL
MODEL      190
REMARK 921   NORMALIZED FREE ENERGY PREDICTED BY IDOCK:   -2.84 KCAL/MOL
REMARK 922        TOTAL FREE ENERGY PREDICTED BY IDOCK:   -3.50 KCAL/MOL
REMARK 923 INTER-LIGAND FREE ENERGY PREDICTED BY IDOCK:   -3.31 KCAL/MOL
REMARK 924 INTRA-LIGAND FREE ENERGY PREDICTED BY IDOCK:   -0.19 KCAL/MOL
REMARK 927      BINDING AFFINITY PREDICTED BY RF-SCORE:    0.00 PKD
ROOT
ATOM      1  C5M   T A   1      -9.690  10.336  64.991  1.00  0.00    -0.370 C  
ATOM      2  C5    T A   1     -10.115  10.293  66.422  1.00  0.00    -0.296 C  
ATOM      3  C6    T A   1     -10.165   9.184  67.169  1.00  0.00    -0.261 C  
ATOM      4  N1    T A   1     -10.607   9.172  68.489  1.00  0.00    -0.199 N  
ATOM      5  O4    T A   1     -10.650  12.601  66.399  1.00  0.00    -0.247 OA 
ATOM      6  C2    T A   1     -11.130  10.335  69.047  1.00  0.00    -0.230 C  
ATOM      7  O2    T A   1     -11.813  10.383  70.065  1.00  0.00    -0.267 OA 
ATOM      8  H3    T A   1     -10.930  12.368  68.883  1.00  0.00     0.000 HD 
ATOM      9  N3    T A   1     -10.873  11.492  68.363  1.00  0.00    -0.198 N  
ATOM     10  C4    T A   1     -10.548  11.563  67.043  1.00  0.00    -0.242 C  
ENDROOT
BRANCH   4  11
ATOM     11  C1*   T A   1     -10.832   7.873  69.148  1.00  0.00    -0.038 C  
ATOM     12  C2*   T A   1     -10.276   7.656  70.553  1.00  0.00    -0.201 C  
ATOM     13  C3*   T A   1      -8.860   7.220  70.281  1.00  0.00    -0.147 C  
ATOM     14  C4*   T A   1      -9.060   6.317  69.072  1.00  0.00    -0.129 C  
ATOM     15  O3*   T A   1      -8.271   6.538  71.378  1.00  0.00    -0.118 OA 
ATOM     16  H3*   T A   1      -7.378   6.263  71.205  1.00  0.00     0.000 HD 
ATOM     17  O4*   T A   1     -10.199   6.839  68.347  1.00  0.00    -0.161 OA 
BRANCH  14  18
ATOM     18  C5*   T A   1      -7.837   6.249  68.157  1.00  0.00    -0.104 C  
ATOM     19  O5*   T A   1      -7.973   5.219  67.178  1.00  0.00    -0.100 OA 
ATOM     20  H5*   T A   1      -7.213   5.176  66.610  1.00  0.00     0.000 HD 
ENDBRANCH  14  18
ENDBRANCH   4  11
TORSDOF 2
ENDMDL
MODEL      191
REMARK 921   NORMALIZED FREE ENERGY PREDICTED BY IDOCK:   -2.83 KCAL/MOL
REMARK 922        TOTAL FREE ENERGY PREDICTED BY IDOCK:   -3.49 KCAL/MOL
REMARK 923 INTER-LIGAND FREE ENERGY PREDICTED BY IDOCK:   -3.38 KCAL/MOL
REMARK 924 INTRA-LIGAND FREE ENERGY PREDICTED BY IDOCK:   -0.10 KCAL/MOL
REMARK 927      BINDING AFFINITY PREDICTED BY RF-SCORE:    0.00 PKD
ROOT
ATOM      1  C5M   T A   1      -9.097   3.046  71.531  1.00  0.00    -0.169 C  
ATOM      2  C5    T A   1      -8.954   4.183  70.573  1.00  0.00    -0.154 C  
ATOM      3  C6    T A   1      -8.569   5.420  70.910  1.00  0.00    -0.126 C  
ATOM      4  N1    T A   1      -8.489   6.468  69.998  1.00  0.00    -0.134 N  
ATOM      5  O4    T A   1      -9.779   2.864  68.787  1.00  0.00    -0.078 OA 
ATOM      6  C2    T A   1      -8.927   6.276  68.692  1.00  0.00    -0.127 C  
ATOM      7  O2    T A   1      -9.187   7.173  67.896  1.00  0.00    -0.131 OA 
ATOM      8  H3    T A   1      -9.089   4.772  67.308  1.00  0.00     0.000 HD 
ATOM      9  N3    T A   1      -9.106   4.975  68.308  1.00  0.00    -0.111 N  
ATOM     10  C4    T A   1      -9.302   3.930  69.159  1.00  0.00    -0.170 C  
ENDROOT
BRANCH   4  11
ATOM     11  C1*   T A   1      -8.270   7.834  70.509  1.00  0.00    -0.120 C  
ATOM     12  C2*   T A   1      -7.644   8.010  71.891  1.00  0.00    -0.101 C  
ATOM     13  C3*   T A   1      -8.837   7.909  72.805  1.00  0.00    -0.189 C  
ATOM     14  C4*   T A   1      -9.880   8.683  72.010  1.00  0.00    -0.325 C  
ATOM     15  O3*   T A   1      -8.601   8.474  74.086  1.00  0.00    -0.327 OA 
ATOM     16  H3*   T A   1      -9.353   8.410  74.662  1.00  0.00     0.000 HD 
ATOM     17  O4*   T A   1      -9.559   8.496  70.611  1.00  0.00    -0.162 OA 
BRANCH  14  18
ATOM     18  C5*   T A   1     -11.313   8.230  72.289  1.00  0.00    -0.378 C  
ATOM     19  O5*   T A   1     -11.364   7.282  73.354  1.00  0.00    -0.581 OA 
ATOM     20  H5*   T A   1     -12.255   7.000  73.527  1.00  0.00     0.000 HD 
ENDBRANCH  14  18
ENDBRANCH   4  11
TORSDOF 2
ENDMDL
MODEL      192
REMARK 921   NORMALIZED FREE ENERGY PREDICTED BY IDOCK:   -2.80 KCAL/MOL
REMARK 922        TOTAL FREE ENERGY PREDICTED BY IDOCK:   -3.45 KCAL/MOL
REMARK 923 INTER-LIGAND FREE ENERGY PREDICTED BY IDOCK:   -3.00 KCAL/MOL
REMARK 924 INTRA-LIGAND FREE ENERGY PREDICTED BY IDOCK:   -0.45 KCAL/MOL
REMARK 927      BINDING AFFINITY PREDICTED BY RF-SCORE:    0.00 PKD
ROOT
ATOM      1  C5M   T A   1     -12.446   7.075  71.285  1.00  0.00    -0.430 C  
ATOM      2  C5    T A   1     -10.953   7.089  71.253  1.00  0.00    -0.270 C  
ATOM      3  C6    T A   1     -10.215   7.121  70.138  1.00  0.00    -0.195 C  
ATOM      4  N1    T A   1      -8.823   7.089  70.143  1.00  0.00    -0.145 N  
ATOM      5  O4    T A   1     -10.838   6.865  73.609  1.00  0.00    -0.315 OA 
ATOM      6  C2    T A   1      -8.147   6.905  71.345  1.00  0.00    -0.109 C  
ATOM      7  O2    T A   1      -6.972   6.564  71.448  1.00  0.00    -0.071 OA 
ATOM      8  H3    T A   1      -8.381   7.302  73.342  1.00  0.00     0.000 HD 
ATOM      9  N3    T A   1      -8.886   7.092  72.481  1.00  0.00    -0.123 N  
ATOM     10  C4    T A   1     -10.244   7.021  72.549  1.00  0.00    -0.184 C  
ENDROOT
BRANCH   4  11
ATOM     11  C1*   T A   1      -8.116   6.907  68.863  1.00  0.00    -0.120 C  
ATOM     12  C2*   T A   1      -7.185   8.014  68.374  1.00  0.00    -0.089 C  
ATOM     13  C3*   T A   1      -8.131   8.947  67.664  1.00  0.00    -0.106 C  
ATOM     14  C4*   T A   1      -9.051   7.954  66.967  1.00  0.00    -0.137 C  
ATOM     15  O3*   T A   1      -7.473   9.812  66.751  1.00  0.00    -0.093 OA 
ATOM     16  H3*   T A   1      -8.070  10.400  66.304  1.00  0.00     0.000 HD 
ATOM     17  O4*   T A   1      -9.105   6.777  67.808  1.00  0.00    -0.120 OA 
BRANCH  14  18
ATOM     18  C5*   T A   1     -10.460   8.498  66.727  1.00  0.00    -0.238 C  
ATOM     19  O5*   T A   1     -10.618   9.802  67.284  1.00  0.00    -0.258 OA 
ATOM     20  H5*   T A   1     -11.493  10.141  67.135  1.00  0.00     0.000 HD 
ENDBRANCH  14  18
ENDBRANCH   4  11
TORSDOF 2
ENDMDL
MODEL      193
REMARK 921   NORMALIZED FREE ENERGY PREDICTED BY IDOCK:   -2.79 KCAL/MOL
REMARK 922        TOTAL FREE ENERGY PREDICTED BY IDOCK:   -3.44 KCAL/MOL
REMARK 923 INTER-LIGAND FREE ENERGY PREDICTED BY IDOCK:   -3.49 KCAL/MOL
REMARK 924 INTRA-LIGAND FREE ENERGY PREDICTED BY IDOCK:    0.05 KCAL/MOL
REMARK 927      BINDING AFFINITY PREDICTED BY RF-SCORE:    0.00 PKD
ROOT
ATOM      1  C5M   T A   1      -6.422   5.066  71.333  1.00  0.00    -0.031 C  
ATOM      2  C5    T A   1      -7.865   4.856  71.657  1.00  0.00    -0.106 C  
ATOM      3  C6    T A   1      -8.883   5.197  70.859  1.00  0.00    -0.134 C  
ATOM      4  N1    T A   1     -10.219   5.026  71.211  1.00  0.00    -0.211 N  
ATOM      5  O4    T A   1      -7.326   4.037  73.814  1.00  0.00    -0.067 OA 
ATOM      6  C2    T A   1     -10.539   4.584  72.490  1.00  0.00    -0.158 C  
ATOM      7  O2    T A   1     -11.646   4.679  73.013  1.00  0.00    -0.218 OA 
ATOM      8  H3    T A   1      -9.752   3.412  73.976  1.00  0.00     0.000 HD 
ATOM      9  N3    T A   1      -9.510   4.038  73.208  1.00  0.00    -0.111 N  
ATOM     10  C4    T A   1      -8.188   4.265  72.973  1.00  0.00    -0.091 C  
ENDROOT
BRANCH   4  11
ATOM     11  C1*   T A   1     -11.257   5.634  70.359  1.00  0.00    -0.016 C  
ATOM     12  C2*   T A   1     -10.838   6.658  69.306  1.00  0.00    -0.335 C  
ATOM     13  C3*   T A   1     -10.800   7.941  70.095  1.00  0.00    -0.243 C  
ATOM     14  C4*   T A   1     -12.028   7.776  70.979  1.00  0.00    -0.262 C  
ATOM     15  O3*   T A   1     -10.872   9.097  69.273  1.00  0.00    -0.321 OA 
ATOM     16  H3*   T A   1     -10.848   9.905  69.771  1.00  0.00     0.000 HD 
ATOM     17  O4*   T A   1     -12.184   6.356  71.213  1.00  0.00    -0.285 OA 
BRANCH  14  18
ATOM     18  C5*   T A   1     -11.922   8.523  72.309  1.00  0.00    -0.385 C  
ATOM     19  O5*   T A   1     -11.852   7.620  73.411  1.00  0.00    -0.514 OA 
ATOM     20  H5*   T A   1     -11.786   8.084  74.238  1.00  0.00     0.000 HD 
ENDBRANCH  14  18
ENDBRANCH   4  11
TORSDOF 2
ENDMDL
MODEL      194
REMARK 921   NORMALIZED FREE ENERGY PREDICTED BY IDOCK:   -2.78 KCAL/MOL
REMARK 922        TOTAL FREE ENERGY PREDICTED BY IDOCK:   -3.43 KCAL/MOL
REMARK 923 INTER-LIGAND FREE ENERGY PREDICTED BY IDOCK:   -3.06 KCAL/MOL
REMARK 924 INTRA-LIGAND FREE ENERGY PREDICTED BY IDOCK:   -0.37 KCAL/MOL
REMARK 927      BINDING AFFINITY PREDICTED BY RF-SCORE:    0.00 PKD
ROOT
ATOM      1  C5M   T A   1      -9.743   3.599  71.347  1.00  0.00    -0.241 C  
ATOM      2  C5    T A   1      -9.985   4.692  70.359  1.00  0.00    -0.300 C  
ATOM      3  C6    T A   1      -9.550   4.686  69.094  1.00  0.00    -0.175 C  
ATOM      4  N1    T A   1      -9.756   5.743  68.212  1.00  0.00    -0.123 N  
ATOM      5  O4    T A   1     -11.054   6.025  72.001  1.00  0.00    -0.250 OA 
ATOM      6  C2    T A   1     -10.345   6.916  68.673  1.00  0.00    -0.186 C  
ATOM      7  O2    T A   1     -10.308   7.998  68.094  1.00  0.00    -0.201 OA 
ATOM      8  H3    T A   1     -11.685   7.532  70.096  1.00  0.00     0.000 HD 
ATOM      9  N3    T A   1     -10.975   6.831  69.884  1.00  0.00    -0.270 N  
ATOM     10  C4    T A   1     -10.726   5.882  70.829  1.00  0.00    -0.277 C  
ENDROOT
BRANCH   4  11
ATOM     11  C1*   T A   1      -9.050   5.731  66.918  1.00  0.00    -0.118 C  
ATOM     12  C2*   T A   1      -9.846   5.437  65.648  1.00  0.00     0.064 C  
ATOM     13  C3*   T A   1      -9.849   3.931  65.606  1.00  0.00    -0.146 C  
ATOM     14  C4*   T A   1      -8.428   3.624  66.059  1.00  0.00    -0.111 C  
ATOM     15  O3*   T A   1     -10.132   3.414  64.315  1.00  0.00    -0.172 OA 
ATOM     16  H3*   T A   1     -10.134   2.465  64.289  1.00  0.00     0.000 HD 
ATOM     17  O4*   T A   1      -8.038   4.689  66.958  1.00  0.00    -0.102 OA 
BRANCH  14  18
ATOM     18  C5*   T A   1      -8.293   2.269  66.754  1.00  0.00    -0.091 C  
ATOM     19  O5*   T A   1      -9.557   1.619  66.882  1.00  0.00    -0.361 OA 
ATOM     20  H5*   T A   1      -9.473   0.777  67.315  1.00  0.00     0.000 HD 
ENDBRANCH  14  18
ENDBRANCH   4  11
TORSDOF 2
ENDMDL
MODEL      195
REMARK 921   NORMALIZED FREE ENERGY PREDICTED BY IDOCK:   -2.78 KCAL/MOL
REMARK 922        TOTAL FREE ENERGY PREDICTED BY IDOCK:   -3.42 KCAL/MOL
REMARK 923 INTER-LIGAND FREE ENERGY PREDICTED BY IDOCK:   -3.61 KCAL/MOL
REMARK 924 INTRA-LIGAND FREE ENERGY PREDICTED BY IDOCK:    0.19 KCAL/MOL
REMARK 927      BINDING AFFINITY PREDICTED BY RF-SCORE:    0.00 PKD
ROOT
ATOM      1  C5M   T A   1      -6.251  13.769  67.736  1.00  0.00    -0.159 C  
ATOM      2  C5    T A   1      -7.489  14.563  67.480  1.00  0.00    -0.216 C  
ATOM      3  C6    T A   1      -7.520  15.887  67.290  1.00  0.00    -0.210 C  
ATOM      4  N1    T A   1      -8.697  16.603  67.097  1.00  0.00    -0.190 N  
ATOM      5  O4    T A   1      -8.853  12.646  67.761  1.00  0.00    -0.161 OA 
ATOM      6  C2    T A   1      -9.922  15.952  67.210  1.00  0.00    -0.240 C  
ATOM      7  O2    T A   1     -11.006  16.508  67.360  1.00  0.00    -0.248 OA 
ATOM      8  H3    T A   1     -10.728  14.089  66.923  1.00  0.00     0.000 HD 
ATOM      9  N3    T A   1      -9.875  14.585  67.183  1.00  0.00    -0.241 N  
ATOM     10  C4    T A   1      -8.776  13.835  67.475  1.00  0.00    -0.194 C  
ENDROOT
BRANCH   4  11
ATOM     11  C1*   T A   1      -8.641  18.076  67.119  1.00  0.00    -0.239 C  
ATOM     12  C2*   T A   1      -7.845  18.797  66.033  1.00  0.00    -0.199 C  
ATOM     13  C3*   T A   1      -6.445  18.782  66.590  1.00  0.00    -0.189 C  
ATOM     14  C4*   T A   1      -6.714  19.057  68.063  1.00  0.00    -0.231 C  
ATOM     15  O3*   T A   1      -5.605  19.762  65.998  1.00  0.00    -0.166 OA 
ATOM     16  H3*   T A   1      -4.722  19.752  66.349  1.00  0.00     0.000 HD 
ATOM     17  O4*   T A   1      -8.012  18.491  68.361  1.00  0.00    -0.296 OA 
BRANCH  14  18
ATOM     18  C5*   T A   1      -5.653  18.467  68.993  1.00  0.00    -0.206 C  
ATOM     19  O5*   T A   1      -6.206  17.467  69.848  1.00  0.00    -0.226 OA 
ATOM     20  H5*   T A   1      -5.546  17.101  70.426  1.00  0.00     0.000 HD 
ENDBRANCH  14  18
ENDBRANCH   4  11
TORSDOF 2
ENDMDL
MODEL      196
REMARK 921   NORMALIZED FREE ENERGY PREDICTED BY IDOCK:   -2.75 KCAL/MOL
REMARK 922        TOTAL FREE ENERGY PREDICTED BY IDOCK:   -3.39 KCAL/MOL
REMARK 923 INTER-LIGAND FREE ENERGY PREDICTED BY IDOCK:   -3.53 KCAL/MOL
REMARK 924 INTRA-LIGAND FREE ENERGY PREDICTED BY IDOCK:    0.14 KCAL/MOL
REMARK 927      BINDING AFFINITY PREDICTED BY RF-SCORE:    0.00 PKD
ROOT
ATOM      1  C5M   T A   1      -9.993   5.901  66.754  1.00  0.00    -0.212 C  
ATOM      2  C5    T A   1      -9.221   7.159  66.979  1.00  0.00    -0.167 C  
ATOM      3  C6    T A   1      -9.373   7.969  68.033  1.00  0.00    -0.138 C  
ATOM      4  N1    T A   1      -8.667   9.158  68.190  1.00  0.00    -0.129 N  
ATOM      5  O4    T A   1      -8.134   6.941  64.885  1.00  0.00    -0.125 OA 
ATOM      6  C2    T A   1      -7.840   9.604  67.165  1.00  0.00    -0.091 C  
ATOM      7  O2    T A   1      -7.411  10.749  67.051  1.00  0.00    -0.103 OA 
ATOM      8  H3    T A   1      -6.686   8.843  65.651  1.00  0.00     0.000 HD 
ATOM      9  N3    T A   1      -7.525   8.679  66.206  1.00  0.00    -0.089 N  
ATOM     10  C4    T A   1      -8.249   7.557  65.938  1.00  0.00    -0.134 C  
ENDROOT
BRANCH   4  11
ATOM     11  C1*   T A   1      -9.067  10.080  69.269  1.00  0.00    -0.200 C  
ATOM     12  C2*   T A   1     -10.414   9.867  69.956  1.00  0.00    -0.331 C  
ATOM     13  C3*   T A   1     -11.364  10.599  69.043  1.00  0.00    -0.277 C  
ATOM     14  C4*   T A   1     -10.540  11.828  68.688  1.00  0.00    -0.223 C  
ATOM     15  O3*   T A   1     -12.592  10.930  69.674  1.00  0.00    -0.397 OA 
ATOM     16  H3*   T A   1     -13.191  11.391  69.099  1.00  0.00     0.000 HD 
ATOM     17  O4*   T A   1      -9.152  11.421  68.717  1.00  0.00    -0.167 OA 
BRANCH  14  18
ATOM     18  C5*   T A   1     -10.890  12.420  67.323  1.00  0.00    -0.243 C  
ATOM     19  O5*   T A   1     -11.921  11.673  66.679  1.00  0.00    -0.503 OA 
ATOM     20  H5*   T A   1     -12.139  12.041  65.830  1.00  0.00     0.000 HD 
ENDBRANCH  14  18
ENDBRANCH   4  11
TORSDOF 2
ENDMDL
MODEL      197
REMARK 921   NORMALIZED FREE ENERGY PREDICTED BY IDOCK:   -2.74 KCAL/MOL
REMARK 922        TOTAL FREE ENERGY PREDICTED BY IDOCK:   -3.38 KCAL/MOL
REMARK 923 INTER-LIGAND FREE ENERGY PREDICTED BY IDOCK:   -3.39 KCAL/MOL
REMARK 924 INTRA-LIGAND FREE ENERGY PREDICTED BY IDOCK:    0.01 KCAL/MOL
REMARK 927      BINDING AFFINITY PREDICTED BY RF-SCORE:    0.00 PKD
ROOT
ATOM      1  C5M   T A   1      -6.437   7.887  72.166  1.00  0.00    -0.056 C  
ATOM      2  C5    T A   1      -7.396   7.137  71.301  1.00  0.00    -0.079 C  
ATOM      3  C6    T A   1      -8.425   7.687  70.647  1.00  0.00    -0.127 C  
ATOM      4  N1    T A   1      -9.326   6.951  69.884  1.00  0.00    -0.151 N  
ATOM      5  O4    T A   1      -6.375   5.071  71.853  1.00  0.00    -0.028 OA 
ATOM      6  C2    T A   1      -9.239   5.563  69.871  1.00  0.00    -0.138 C  
ATOM      7  O2    T A   1     -10.128   4.804  69.496  1.00  0.00    -0.226 OA 
ATOM      8  H3    T A   1      -7.827   4.089  70.057  1.00  0.00     0.000 HD 
ATOM      9  N3    T A   1      -8.072   5.034  70.352  1.00  0.00    -0.084 N  
ATOM     10  C4    T A   1      -7.214   5.674  71.193  1.00  0.00    -0.076 C  
ENDROOT
BRANCH   4  11
ATOM     11  C1*   T A   1     -10.545   7.618  69.390  1.00  0.00    -0.215 C  
ATOM     12  C2*   T A   1     -10.524   9.132  69.191  1.00  0.00    -0.230 C  
ATOM     13  C3*   T A   1     -10.857   9.647  70.567  1.00  0.00    -0.309 C  
ATOM     14  C4*   T A   1     -11.924   8.651  71.001  1.00  0.00    -0.243 C  
ATOM     15  O3*   T A   1     -11.332  10.985  70.557  1.00  0.00    -0.447 OA 
ATOM     16  H3*   T A   1     -11.542  11.309  71.425  1.00  0.00     0.000 HD 
ATOM     17  O4*   T A   1     -11.610   7.397  70.353  1.00  0.00    -0.264 OA 
BRANCH  14  18
ATOM     18  C5*   T A   1     -11.995   8.461  72.516  1.00  0.00    -0.350 C  
ATOM     19  O5*   T A   1     -10.914   7.662  72.994  1.00  0.00    -0.371 OA 
ATOM     20  H5*   T A   1     -10.958   7.544  73.936  1.00  0.00     0.000 HD 
ENDBRANCH  14  18
ENDBRANCH   4  11
TORSDOF 2
ENDMDL
MODEL      198
REMARK 921   NORMALIZED FREE ENERGY PREDICTED BY IDOCK:   -2.72 KCAL/MOL
REMARK 922        TOTAL FREE ENERGY PREDICTED BY IDOCK:   -3.36 KCAL/MOL
REMARK 923 INTER-LIGAND FREE ENERGY PREDICTED BY IDOCK:   -3.01 KCAL/MOL
REMARK 924 INTRA-LIGAND FREE ENERGY PREDICTED BY IDOCK:   -0.35 KCAL/MOL
REMARK 927      BINDING AFFINITY PREDICTED BY RF-SCORE:    0.00 PKD
ROOT
ATOM      1  C5M   T A   1     -10.568   7.208  73.495  1.00  0.00    -0.416 C  
ATOM      2  C5    T A   1     -10.577   7.215  72.002  1.00  0.00    -0.237 C  
ATOM      3  C6    T A   1      -9.798   6.448  71.231  1.00  0.00    -0.181 C  
ATOM      4  N1    T A   1      -9.801   6.511  69.841  1.00  0.00    -0.166 N  
ATOM      5  O4    T A   1     -12.144   8.991  71.958  1.00  0.00    -0.354 OA 
ATOM      6  C2    T A   1     -10.562   7.485  69.201  1.00  0.00    -0.197 C  
ATOM      7  O2    T A   1     -10.421   7.835  68.033  1.00  0.00    -0.207 OA 
ATOM      8  H3    T A   1     -12.286   8.554  69.490  1.00  0.00     0.000 HD 
ATOM      9  N3    T A   1     -11.507   8.105  69.971  1.00  0.00    -0.015 N  
ATOM     10  C4    T A   1     -11.487   8.168  71.332  1.00  0.00    -0.263 C  
ENDROOT
BRANCH   4  11
ATOM     11  C1*   T A   1      -8.754   5.787  69.098  1.00  0.00    -0.113 C  
ATOM     12  C2*   T A   1      -9.174   4.755  68.053  1.00  0.00    -0.151 C  
ATOM     13  C3*   T A   1      -9.377   3.514  68.883  1.00  0.00    -0.168 C  
ATOM     14  C4*   T A   1      -8.210   3.621  69.856  1.00  0.00    -0.052 C  
ATOM     15  O3*   T A   1      -9.337   2.322  68.114  1.00  0.00    -0.190 OA 
ATOM     16  H3*   T A   1      -9.465   1.540  68.638  1.00  0.00     0.000 HD 
ATOM     17  O4*   T A   1      -7.957   5.032  70.049  1.00  0.00    -0.072 OA 
BRANCH  14  18
ATOM     18  C5*   T A   1      -8.478   2.943  71.200  1.00  0.00    -0.062 C  
ATOM     19  O5*   T A   1      -9.876   2.859  71.474  1.00  0.00    -0.162 OA 
ATOM     20  H5*   T A   1     -10.042   2.438  72.309  1.00  0.00     0.000 HD 
ENDBRANCH  14  18
ENDBRANCH   4  11
TORSDOF 2
ENDMDL
MODEL      199
REMARK 921   NORMALIZED FREE ENERGY PREDICTED BY IDOCK:   -2.70 KCAL/MOL
REMARK 922        TOTAL FREE ENERGY PREDICTED BY IDOCK:   -3.33 KCAL/MOL
REMARK 923 INTER-LIGAND FREE ENERGY PREDICTED BY IDOCK:   -3.44 KCAL/MOL
REMARK 924 INTRA-LIGAND FREE ENERGY PREDICTED BY IDOCK:    0.11 KCAL/MOL
REMARK 927      BINDING AFFINITY PREDICTED BY RF-SCORE:    0.00 PKD
ROOT
ATOM      1  C5M   T A   1      -9.809  11.944  68.342  1.00  0.00    -0.201 C  
ATOM      2  C5    T A   1      -9.991  10.513  67.953  1.00  0.00    -0.193 C  
ATOM      3  C6    T A   1     -10.377   9.540  68.786  1.00  0.00    -0.208 C  
ATOM      4  N1    T A   1     -10.494   8.208  68.402  1.00  0.00    -0.193 N  
ATOM      5  O4    T A   1      -9.208  10.944  65.759  1.00  0.00    -0.186 OA 
ATOM      6  C2    T A   1     -10.093   7.826  67.125  1.00  0.00    -0.258 C  
ATOM      7  O2    T A   1      -9.865   6.672  66.773  1.00  0.00    -0.166 OA 
ATOM      8  H3    T A   1      -9.958   8.607  65.235  1.00  0.00     0.000 HD 
ATOM      9  N3    T A   1      -9.914   8.842  66.227  1.00  0.00    -0.283 N  
ATOM     10  C4    T A   1      -9.683  10.143  66.556  1.00  0.00    -0.200 C  
ENDROOT
BRANCH   4  11
ATOM     11  C1*   T A   1     -10.709   7.187  69.443  1.00  0.00    -0.231 C  
ATOM     12  C2*   T A   1     -11.438   7.588  70.724  1.00  0.00    -0.305 C  
ATOM     13  C3*   T A   1     -10.325   8.149  71.571  1.00  0.00    -0.209 C  
ATOM     14  C4*   T A   1      -9.198   7.175  71.254  1.00  0.00    -0.151 C  
ATOM     15  O3*   T A   1     -10.644   8.181  72.954  1.00  0.00    -0.346 OA 
ATOM     16  H3*   T A   1      -9.942   8.535  73.487  1.00  0.00     0.000 HD 
ATOM     17  O4*   T A   1      -9.412   6.717  69.899  1.00  0.00    -0.156 OA 
BRANCH  14  18
ATOM     18  C5*   T A   1      -7.806   7.792  71.391  1.00  0.00    -0.090 C  
ATOM     19  O5*   T A   1      -6.803   6.791  71.551  1.00  0.00    -0.063 OA 
ATOM     20  H5*   T A   1      -5.938   7.175  71.636  1.00  0.00     0.000 HD 
ENDBRANCH  14  18
ENDBRANCH   4  11
TORSDOF 2
ENDMDL
MODEL      200
REMARK 921   NORMALIZED FREE ENERGY PREDICTED BY IDOCK:   -2.66 KCAL/MOL
REMARK 922        TOTAL FREE ENERGY PREDICTED BY IDOCK:   -3.29 KCAL/MOL
REMARK 923 INTER-LIGAND FREE ENERGY PREDICTED BY IDOCK:   -3.02 KCAL/MOL
REMARK 924 INTRA-LIGAND FREE ENERGY PREDICTED BY IDOCK:   -0.27 KCAL/MOL
REMARK 927      BINDING AFFINITY PREDICTED BY RF-SCORE:    0.00 PKD
ROOT
ATOM      1  C5M   T A   1     -10.409  15.326  65.041  1.00  0.00    -0.375 C  
ATOM      2  C5    T A   1      -9.911  14.072  65.680  1.00  0.00    -0.309 C  
ATOM      3  C6    T A   1      -8.800  13.982  66.420  1.00  0.00     0.089 C  
ATOM      4  N1    T A   1      -8.341  12.786  66.965  1.00  0.00    -0.158 N  
ATOM      5  O4    T A   1     -11.642  12.801  64.679  1.00  0.00    -0.312 OA 
ATOM      6  C2    T A   1      -8.989  11.596  66.650  1.00  0.00    -0.189 C  
ATOM      7  O2    T A   1      -8.521  10.473  66.812  1.00  0.00    -0.124 OA 
ATOM      8  H3    T A   1     -10.862  10.926  66.154  1.00  0.00     0.000 HD 
ATOM      9  N3    T A   1     -10.230  11.723  66.086  1.00  0.00    -0.214 N  
ATOM     10  C4    T A   1     -10.684  12.834  65.442  1.00  0.00    -0.284 C  
ENDROOT
BRANCH   4  11
ATOM     11  C1*   T A   1      -6.999  12.756  67.573  1.00  0.00    -0.149 C  
ATOM     12  C2*   T A   1      -6.878  12.850  69.092  1.00  0.00    -0.054 C  
ATOM     13  C3*   T A   1      -6.901  14.337  69.330  1.00  0.00    -0.122 C  
ATOM     14  C4*   T A   1      -6.050  14.832  68.169  1.00  0.00    -0.141 C  
ATOM     15  O3*   T A   1      -6.365  14.703  70.593  1.00  0.00    -0.170 OA 
ATOM     16  H3*   T A   1      -6.379  15.641  70.742  1.00  0.00     0.000 HD 
ATOM     17  O4*   T A   1      -6.248  13.899  67.081  1.00  0.00    -0.204 OA 
BRANCH  14  18
ATOM     18  C5*   T A   1      -6.402  16.250  67.720  1.00  0.00    -0.143 C  
ATOM     19  O5*   T A   1      -6.374  17.166  68.814  1.00  0.00    -0.160 OA 
ATOM     20  H5*   T A   1      -6.593  18.048  68.535  1.00  0.00     0.000 HD 
ENDBRANCH  14  18
ENDBRANCH   4  11
TORSDOF 2
ENDMDL
MODEL      201
REMARK 921   NORMALIZED FREE ENERGY PREDICTED BY IDOCK:   -2.65 KCAL/MOL
REMARK 922        TOTAL FREE ENERGY PREDICTED BY IDOCK:   -3.29 KCAL/MOL
REMARK 923 INTER-LIGAND FREE ENERGY PREDICTED BY IDOCK:   -3.88 KCAL/MOL
REMARK 924 INTRA-LIGAND FREE ENERGY PREDICTED BY IDOCK:    0.59 KCAL/MOL
REMARK 927      BINDING AFFINITY PREDICTED BY RF-SCORE:    0.00 PKD
ROOT
ATOM      1  C5M   T A   1      -9.341   8.641  69.660  1.00  0.00    -0.161 C  
ATOM      2  C5    T A   1      -9.040  10.051  69.270  1.00  0.00    -0.208 C  
ATOM      3  C6    T A   1      -9.947  11.030  69.191  1.00  0.00    -0.121 C  
ATOM      4  N1    T A   1      -9.639  12.324  68.782  1.00  0.00    -0.022 N  
ATOM      5  O4    T A   1      -6.774   9.512  68.836  1.00  0.00    -0.050 OA 
ATOM      6  C2    T A   1      -8.357  12.611  68.324  1.00  0.00    -0.165 C  
ATOM      7  O2    T A   1      -8.047  13.602  67.669  1.00  0.00    -0.149 OA 
ATOM      8  H3    T A   1      -6.425  11.987  68.608  1.00  0.00     0.000 HD 
ATOM      9  N3    T A   1      -7.398  11.680  68.614  1.00  0.00    -0.105 N  
ATOM     10  C4    T A   1      -7.643  10.373  68.909  1.00  0.00    -0.103 C  
ENDROOT
BRANCH   4  11
ATOM     11  C1*   T A   1     -10.744  13.264  68.517  1.00  0.00    -0.262 C  
ATOM     12  C2*   T A   1     -12.026  12.731  67.881  1.00  0.00    -0.320 C  
ATOM     13  C3*   T A   1     -11.701  12.772  66.410  1.00  0.00    -0.403 C  
ATOM     14  C4*   T A   1     -10.941  14.087  66.315  1.00  0.00    -0.300 C  
ATOM     15  O3*   T A   1     -12.859  12.751  65.588  1.00  0.00    -0.458 OA 
ATOM     16  H3*   T A   1     -12.654  12.777  64.661  1.00  0.00     0.000 HD 
ATOM     17  O4*   T A   1     -10.273  14.274  67.585  1.00  0.00    -0.234 OA 
BRANCH  14  18
ATOM     18  C5*   T A   1      -9.926  14.120  65.173  1.00  0.00    -0.229 C  
ATOM     19  O5*   T A   1     -10.138  13.048  64.255  1.00  0.00    -0.587 OA 
ATOM     20  H5*   T A   1      -9.506  13.069  63.545  1.00  0.00     0.000 HD 
ENDBRANCH  14  18
ENDBRANCH   4  11
TORSDOF 2
ENDMDL
MODEL      202
REMARK 921   NORMALIZED FREE ENERGY PREDICTED BY IDOCK:   -2.62 KCAL/MOL
REMARK 922        TOTAL FREE ENERGY PREDICTED BY IDOCK:   -3.25 KCAL/MOL
REMARK 923 INTER-LIGAND FREE ENERGY PREDICTED BY IDOCK:   -3.33 KCAL/MOL
REMARK 924 INTRA-LIGAND FREE ENERGY PREDICTED BY IDOCK:    0.08 KCAL/MOL
REMARK 927      BINDING AFFINITY PREDICTED BY RF-SCORE:    0.00 PKD
ROOT
ATOM      1  C5M   T A   1      -7.440   8.664  71.783  1.00  0.00    -0.114 C  
ATOM      2  C5    T A   1      -8.618   7.957  71.197  1.00  0.00    -0.136 C  
ATOM      3  C6    T A   1      -8.877   7.862  69.888  1.00  0.00    -0.141 C  
ATOM      4  N1    T A   1     -10.008   7.232  69.377  1.00  0.00    -0.167 N  
ATOM      5  O4    T A   1      -9.494   7.499  73.350  1.00  0.00    -0.204 OA 
ATOM      6  C2    T A   1     -10.986   6.767  70.250  1.00  0.00    -0.291 C  
ATOM      7  O2    T A   1     -12.136   6.477  69.932  1.00  0.00    -0.229 OA 
ATOM      8  H3    T A   1     -11.152   6.039  72.159  1.00  0.00     0.000 HD 
ATOM      9  N3    T A   1     -10.617   6.671  71.564  1.00  0.00    -0.220 N  
ATOM     10  C4    T A   1      -9.587   7.354  72.137  1.00  0.00    -0.146 C  
ENDROOT
BRANCH   4  11
ATOM     11  C1*   T A   1     -10.309   7.376  67.941  1.00  0.00    -0.204 C  
ATOM     12  C2*   T A   1     -11.144   6.297  67.254  1.00  0.00    -0.387 C  
ATOM     13  C3*   T A   1     -10.107   5.267  66.886  1.00  0.00    -0.219 C  
ATOM     14  C4*   T A   1      -8.956   6.158  66.440  1.00  0.00    -0.150 C  
ATOM     15  O3*   T A   1     -10.543   4.386  65.862  1.00  0.00    -0.454 OA 
ATOM     16  H3*   T A   1      -9.889   3.737  65.630  1.00  0.00     0.000 HD 
ATOM     17  O4*   T A   1      -9.054   7.380  67.209  1.00  0.00    -0.121 OA 
BRANCH  14  18
ATOM     18  C5*   T A   1      -7.582   5.517  66.638  1.00  0.00    -0.088 C  
ATOM     19  O5*   T A   1      -6.901   5.349  65.395  1.00  0.00    -0.057 OA 
ATOM     20  H5*   T A   1      -6.047   4.950  65.518  1.00  0.00     0.000 HD 
ENDBRANCH  14  18
ENDBRANCH   4  11
TORSDOF 2
ENDMDL
MODEL      203
REMARK 921   NORMALIZED FREE ENERGY PREDICTED BY IDOCK:   -2.62 KCAL/MOL
REMARK 922        TOTAL FREE ENERGY PREDICTED BY IDOCK:   -3.25 KCAL/MOL
REMARK 923 INTER-LIGAND FREE ENERGY PREDICTED BY IDOCK:   -2.95 KCAL/MOL
REMARK 924 INTRA-LIGAND FREE ENERGY PREDICTED BY IDOCK:   -0.31 KCAL/MOL
REMARK 927      BINDING AFFINITY PREDICTED BY RF-SCORE:    0.00 PKD
ROOT
ATOM      1  C5M   T A   1     -10.026  10.531  65.432  1.00  0.00    -0.353 C  
ATOM      2  C5    T A   1      -9.362  10.684  66.761  1.00  0.00    -0.179 C  
ATOM      3  C6    T A   1      -8.366  11.538  67.022  1.00  0.00    -0.165 C  
ATOM      4  N1    T A   1      -7.739  11.624  68.261  1.00  0.00    -0.121 N  
ATOM      5  O4    T A   1     -10.633   8.905  67.672  1.00  0.00    -0.258 OA 
ATOM      6  C2    T A   1      -8.072  10.716  69.261  1.00  0.00    -0.127 C  
ATOM      7  O2    T A   1      -7.400  10.495  70.265  1.00  0.00    -0.206 OA 
ATOM      8  H3    T A   1      -9.675   9.602  69.884  1.00  0.00     0.000 HD 
ATOM      9  N3    T A   1      -9.224  10.006  69.064  1.00  0.00    -0.167 N  
ATOM     10  C4    T A   1      -9.814   9.797  67.854  1.00  0.00    -0.149 C  
ENDROOT
BRANCH   4  11
ATOM     11  C1*   T A   1      -6.514  12.435  68.379  1.00  0.00    -0.058 C  
ATOM     12  C2*   T A   1      -6.296  13.256  69.649  1.00  0.00    -0.089 C  
ATOM     13  C3*   T A   1      -7.051  14.526  69.350  1.00  0.00    -0.140 C  
ATOM     14  C4*   T A   1      -6.703  14.734  67.883  1.00  0.00    -0.163 C  
ATOM     15  O3*   T A   1      -6.646  15.615  70.166  1.00  0.00    -0.104 OA 
ATOM     16  H3*   T A   1      -7.122  16.415  69.977  1.00  0.00     0.000 HD 
ATOM     17  O4*   T A   1      -6.511  13.419  67.310  1.00  0.00    -0.267 OA 
BRANCH  14  18
ATOM     18  C5*   T A   1      -7.778  15.497  67.108  1.00  0.00    -0.222 C  
ATOM     19  O5*   T A   1      -8.867  15.868  67.952  1.00  0.00    -0.177 OA 
ATOM     20  H5*   T A   1      -9.535  16.342  67.470  1.00  0.00     0.000 HD 
ENDBRANCH  14  18
ENDBRANCH   4  11
TORSDOF 2
ENDMDL
MODEL      204
REMARK 921   NORMALIZED FREE ENERGY PREDICTED BY IDOCK:   -2.62 KCAL/MOL
REMARK 922        TOTAL FREE ENERGY PREDICTED BY IDOCK:   -3.25 KCAL/MOL
REMARK 923 INTER-LIGAND FREE ENERGY PREDICTED BY IDOCK:   -2.95 KCAL/MOL
REMARK 924 INTRA-LIGAND FREE ENERGY PREDICTED BY IDOCK:   -0.30 KCAL/MOL
REMARK 927      BINDING AFFINITY PREDICTED BY RF-SCORE:    0.00 PKD
ROOT
ATOM      1  C5M   T A   1      -7.980   9.810  66.327  1.00  0.00    -0.109 C  
ATOM      2  C5    T A   1      -8.454   9.503  67.709  1.00  0.00    -0.119 C  
ATOM      3  C6    T A   1      -9.290   8.507  68.024  1.00  0.00    -0.136 C  
ATOM      4  N1    T A   1      -9.747   8.275  69.318  1.00  0.00    -0.174 N  
ATOM      5  O4    T A   1      -7.328  11.395  68.584  1.00  0.00    -0.090 OA 
ATOM      6  C2    T A   1      -9.420   9.171  70.331  1.00  0.00    -0.227 C  
ATOM      7  O2    T A   1      -9.989   9.248  71.416  1.00  0.00    -0.306 OA 
ATOM      8  H3    T A   1      -7.914  10.465  70.841  1.00  0.00     0.000 HD 
ATOM      9  N3    T A   1      -8.403  10.043  70.051  1.00  0.00    -0.168 N  
ATOM     10  C4    T A   1      -7.994  10.389  68.799  1.00  0.00    -0.122 C  
ENDROOT
BRANCH   4  11
ATOM     11  C1*   T A   1     -10.831   7.298  69.521  1.00  0.00    -0.209 C  
ATOM     12  C2*   T A   1     -10.790   6.400  70.756  1.00  0.00    -0.321 C  
ATOM     13  C3*   T A   1      -9.912   5.262  70.304  1.00  0.00    -0.240 C  
ATOM     14  C4*   T A   1     -10.396   5.071  68.873  1.00  0.00    -0.064 C  
ATOM     15  O3*   T A   1     -10.072   4.093  71.093  1.00  0.00    -0.169 OA 
ATOM     16  H3*   T A   1      -9.518   3.376  70.808  1.00  0.00     0.000 HD 
ATOM     17  O4*   T A   1     -10.826   6.370  68.402  1.00  0.00    -0.258 OA 
BRANCH  14  18
ATOM     18  C5*   T A   1      -9.326   4.499  67.943  1.00  0.00    -0.140 C  
ATOM     19  O5*   T A   1      -8.818   3.259  68.432  1.00  0.00    -0.096 OA 
ATOM     20  H5*   T A   1      -8.153   2.903  67.854  1.00  0.00     0.000 HD 
ENDBRANCH  14  18
ENDBRANCH   4  11
TORSDOF 2
ENDMDL
MODEL      205
REMARK 921   NORMALIZED FREE ENERGY PREDICTED BY IDOCK:   -2.58 KCAL/MOL
REMARK 922        TOTAL FREE ENERGY PREDICTED BY IDOCK:   -3.21 KCAL/MOL
REMARK 923 INTER-LIGAND FREE ENERGY PREDICTED BY IDOCK:   -3.16 KCAL/MOL
REMARK 924 INTRA-LIGAND FREE ENERGY PREDICTED BY IDOCK:   -0.05 KCAL/MOL
REMARK 927      BINDING AFFINITY PREDICTED BY RF-SCORE:    0.00 PKD
ROOT
ATOM      1  C5M   T A   1     -11.852   5.845  72.338  1.00  0.00    -0.263 C  
ATOM      2  C5    T A   1     -11.512   7.024  71.487  1.00  0.00    -0.306 C  
ATOM      3  C6    T A   1     -10.718   6.984  70.411  1.00  0.00    -0.234 C  
ATOM      4  N1    T A   1     -10.387   8.112  69.665  1.00  0.00    -0.217 N  
ATOM      5  O4    T A   1     -12.697   8.484  72.928  1.00  0.00    -0.259 OA 
ATOM      6  C2    T A   1     -10.799   9.367  70.101  1.00  0.00    -0.249 C  
ATOM      7  O2    T A   1     -10.332  10.436  69.717  1.00  0.00    -0.240 OA 
ATOM      8  H3    T A   1     -12.333  10.224  71.156  1.00  0.00     0.000 HD 
ATOM      9  N3    T A   1     -11.776   9.375  71.058  1.00  0.00    -0.302 N  
ATOM     10  C4    T A   1     -12.063   8.335  71.890  1.00  0.00    -0.332 C  
ENDROOT
BRANCH   4  11
ATOM     11  C1*   T A   1      -9.335   7.996  68.639  1.00  0.00    -0.146 C  
ATOM     12  C2*   T A   1      -9.319   6.763  67.738  1.00  0.00    -0.116 C  
ATOM     13  C3*   T A   1      -8.554   5.763  68.567  1.00  0.00    -0.109 C  
ATOM     14  C4*   T A   1      -7.471   6.650  69.166  1.00  0.00    -0.095 C  
ATOM     15  O3*   T A   1      -8.021   4.698  67.795  1.00  0.00    -0.091 OA 
ATOM     16  H3*   T A   1      -7.539   4.068  68.318  1.00  0.00     0.000 HD 
ATOM     17  O4*   T A   1      -8.045   7.971  69.306  1.00  0.00    -0.114 OA 
BRANCH  14  18
ATOM     18  C5*   T A   1      -6.957   6.150  70.517  1.00  0.00    -0.063 C  
ATOM     19  O5*   T A   1      -6.265   4.909  70.386  1.00  0.00    -0.020 OA 
ATOM     20  H5*   T A   1      -5.946   4.598  71.225  1.00  0.00     0.000 HD 
ENDBRANCH  14  18
ENDBRANCH   4  11
TORSDOF 2
ENDMDL
MODEL      206
REMARK 921   NORMALIZED FREE ENERGY PREDICTED BY IDOCK:   -2.58 KCAL/MOL
REMARK 922        TOTAL FREE ENERGY PREDICTED BY IDOCK:   -3.21 KCAL/MOL
REMARK 923 INTER-LIGAND FREE ENERGY PREDICTED BY IDOCK:   -3.03 KCAL/MOL
REMARK 924 INTRA-LIGAND FREE ENERGY PREDICTED BY IDOCK:   -0.18 KCAL/MOL
REMARK 927      BINDING AFFINITY PREDICTED BY RF-SCORE:    0.00 PKD
ROOT
ATOM      1  C5M   T A   1      -6.513   6.067  67.643  1.00  0.00    -0.046 C  
ATOM      2  C5    T A   1      -7.591   7.029  68.019  1.00  0.00    -0.111 C  
ATOM      3  C6    T A   1      -7.700   8.276  67.547  1.00  0.00    -0.099 C  
ATOM      4  N1    T A   1      -8.694   9.161  67.953  1.00  0.00    -0.128 N  
ATOM      5  O4    T A   1      -8.491   5.501  69.591  1.00  0.00    -0.100 OA 
ATOM      6  C2    T A   1      -9.562   8.795  68.976  1.00  0.00    -0.162 C  
ATOM      7  O2    T A   1     -10.264   9.571  69.617  1.00  0.00    -0.193 OA 
ATOM      8  H3    T A   1     -10.412   7.107  69.768  1.00  0.00     0.000 HD 
ATOM      9  N3    T A   1      -9.584   7.464  69.292  1.00  0.00    -0.154 N  
ATOM     10  C4    T A   1      -8.586   6.579  69.017  1.00  0.00    -0.125 C  
ENDROOT
BRANCH   4  11
ATOM     11  C1*   T A   1      -8.594  10.573  67.541  1.00  0.00    -0.121 C  
ATOM     12  C2*   T A   1      -9.877  11.386  67.384  1.00  0.00    -0.199 C  
ATOM     13  C3*   T A   1     -10.303  11.055  65.977  1.00  0.00    -0.254 C  
ATOM     14  C4*   T A   1      -8.960  11.049  65.259  1.00  0.00    -0.163 C  
ATOM     15  O3*   T A   1     -11.206  12.006  65.434  1.00  0.00    -0.316 OA 
ATOM     16  H3*   T A   1     -11.475  11.797  64.547  1.00  0.00     0.000 HD 
ATOM     17  O4*   T A   1      -7.973  10.624  66.228  1.00  0.00    -0.138 OA 
BRANCH  14  18
ATOM     18  C5*   T A   1      -8.931  10.132  64.037  1.00  0.00    -0.238 C  
ATOM     19  O5*   T A   1      -9.999  10.424  63.138  1.00  0.00    -0.486 OA 
ATOM     20  H5*   T A   1      -9.981   9.854  62.378  1.00  0.00     0.000 HD 
ENDBRANCH  14  18
ENDBRANCH   4  11
TORSDOF 2
ENDMDL
MODEL      207
REMARK 921   NORMALIZED FREE ENERGY PREDICTED BY IDOCK:   -2.57 KCAL/MOL
REMARK 922        TOTAL FREE ENERGY PREDICTED BY IDOCK:   -3.20 KCAL/MOL
REMARK 923 INTER-LIGAND FREE ENERGY PREDICTED BY IDOCK:   -3.33 KCAL/MOL
REMARK 924 INTRA-LIGAND FREE ENERGY PREDICTED BY IDOCK:    0.13 KCAL/MOL
REMARK 927      BINDING AFFINITY PREDICTED BY RF-SCORE:    0.00 PKD
ROOT
ATOM      1  C5M   T A   1      -9.236   9.605  66.828  1.00  0.00    -0.181 C  
ATOM      2  C5    T A   1      -8.937   8.514  67.803  1.00  0.00    -0.140 C  
ATOM      3  C6    T A   1      -9.853   7.885  68.548  1.00  0.00    -0.177 C  
ATOM      4  N1    T A   1      -9.534   6.901  69.479  1.00  0.00    -0.147 N  
ATOM      5  O4    T A   1      -6.608   8.738  67.434  1.00  0.00    -0.057 OA 
ATOM      6  C2    T A   1      -8.199   6.617  69.746  1.00  0.00    -0.127 C  
ATOM      7  O2    T A   1      -7.790   6.009  70.731  1.00  0.00    -0.099 OA 
ATOM      8  H3    T A   1      -6.381   6.644  68.799  1.00  0.00     0.000 HD 
ATOM      9  N3    T A   1      -7.294   7.097  68.838  1.00  0.00    -0.090 N  
ATOM     10  C4    T A   1      -7.520   8.132  67.983  1.00  0.00    -0.097 C  
ENDROOT
BRANCH   4  11
ATOM     11  C1*   T A   1     -10.586   6.432  70.399  1.00  0.00    -0.241 C  
ATOM     12  C2*   T A   1     -11.823   7.303  70.608  1.00  0.00    -0.290 C  
ATOM     13  C3*   T A   1     -11.373   8.257  71.683  1.00  0.00    -0.272 C  
ATOM     14  C4*   T A   1     -10.572   7.326  72.582  1.00  0.00    -0.266 C  
ATOM     15  O3*   T A   1     -12.456   8.873  72.364  1.00  0.00    -0.375 OA 
ATOM     16  H3*   T A   1     -12.172   9.474  73.042  1.00  0.00     0.000 HD 
ATOM     17  O4*   T A   1     -10.009   6.304  71.727  1.00  0.00    -0.171 OA 
BRANCH  14  18
ATOM     18  C5*   T A   1      -9.462   8.038  73.357  1.00  0.00    -0.237 C  
ATOM     19  O5*   T A   1      -8.508   8.631  72.477  1.00  0.00    -0.364 OA 
ATOM     20  H5*   T A   1      -7.818   9.073  72.958  1.00  0.00     0.000 HD 
ENDBRANCH  14  18
ENDBRANCH   4  11
TORSDOF 2
ENDMDL
MODEL      208
REMARK 921   NORMALIZED FREE ENERGY PREDICTED BY IDOCK:   -2.57 KCAL/MOL
REMARK 922        TOTAL FREE ENERGY PREDICTED BY IDOCK:   -3.19 KCAL/MOL
REMARK 923 INTER-LIGAND FREE ENERGY PREDICTED BY IDOCK:   -3.07 KCAL/MOL
REMARK 924 INTRA-LIGAND FREE ENERGY PREDICTED BY IDOCK:   -0.12 KCAL/MOL
REMARK 927      BINDING AFFINITY PREDICTED BY RF-SCORE:    0.00 PKD
ROOT
ATOM      1  C5M   T A   1      -9.192   9.885  65.041  1.00  0.00    -0.295 C  
ATOM      2  C5    T A   1      -8.219   9.277  65.997  1.00  0.00    -0.111 C  
ATOM      3  C6    T A   1      -8.529   8.357  66.918  1.00  0.00    -0.117 C  
ATOM      4  N1    T A   1      -7.606   7.843  67.824  1.00  0.00    -0.107 N  
ATOM      5  O4    T A   1      -6.479  10.683  65.219  1.00  0.00    -0.099 OA 
ATOM      6  C2    T A   1      -6.320   8.372  67.866  1.00  0.00    -0.056 C  
ATOM      7  O2    T A   1      -5.527   8.225  68.792  1.00  0.00    -0.034 OA 
ATOM      8  H3    T A   1      -4.957   9.258  66.617  1.00  0.00     0.000 HD 
ATOM      9  N3    T A   1      -5.955   9.140  66.794  1.00  0.00    -0.055 N  
ATOM     10  C4    T A   1      -6.822   9.758  65.946  1.00  0.00    -0.096 C  
ENDROOT
BRANCH   4  11
ATOM     11  C1*   T A   1      -8.095   7.005  68.933  1.00  0.00    -0.121 C  
ATOM     12  C2*   T A   1      -9.350   6.161  68.719  1.00  0.00    -0.123 C  
ATOM     13  C3*   T A   1     -10.456   7.137  69.031  1.00  0.00    -0.211 C  
ATOM     14  C4*   T A   1      -9.867   7.873  70.226  1.00  0.00    -0.184 C  
ATOM     15  O3*   T A   1     -11.686   6.498  69.336  1.00  0.00    -0.649 OA 
ATOM     16  H3*   T A   1     -12.383   7.114  69.532  1.00  0.00     0.000 HD 
ATOM     17  O4*   T A   1      -8.431   7.873  70.049  1.00  0.00    -0.130 OA 
BRANCH  14  18
ATOM     18  C5*   T A   1     -10.383   9.305  70.370  1.00  0.00    -0.240 C  
ATOM     19  O5*   T A   1     -11.463   9.564  69.474  1.00  0.00    -0.438 OA 
ATOM     20  H5*   T A   1     -11.783  10.454  69.563  1.00  0.00     0.000 HD 
ENDBRANCH  14  18
ENDBRANCH   4  11
TORSDOF 2
ENDMDL
MODEL      209
REMARK 921   NORMALIZED FREE ENERGY PREDICTED BY IDOCK:   -2.51 KCAL/MOL
REMARK 922        TOTAL FREE ENERGY PREDICTED BY IDOCK:   -3.13 KCAL/MOL
REMARK 923 INTER-LIGAND FREE ENERGY PREDICTED BY IDOCK:   -2.67 KCAL/MOL
REMARK 924 INTRA-LIGAND FREE ENERGY PREDICTED BY IDOCK:   -0.46 KCAL/MOL
REMARK 927      BINDING AFFINITY PREDICTED BY RF-SCORE:    0.00 PKD
ROOT
ATOM      1  C5M   T A   1      -6.463   4.151  71.251  1.00  0.00    -0.019 C  
ATOM      2  C5    T A   1      -7.821   4.736  71.043  1.00  0.00    -0.082 C  
ATOM      3  C6    T A   1      -8.075   5.841  70.332  1.00  0.00    -0.106 C  
ATOM      4  N1    T A   1      -9.349   6.384  70.195  1.00  0.00    -0.157 N  
ATOM      5  O4    T A   1      -8.804   3.122  72.472  1.00  0.00    -0.082 OA 
ATOM      6  C2    T A   1     -10.409   5.834  70.909  1.00  0.00    -0.237 C  
ATOM      7  O2    T A   1     -11.487   6.386  71.108  1.00  0.00    -0.304 OA 
ATOM      8  H3    T A   1     -11.004   4.026  71.669  1.00  0.00     0.000 HD 
ATOM      9  N3    T A   1     -10.187   4.595  71.446  1.00  0.00    -0.175 N  
ATOM     10  C4    T A   1      -8.960   4.065  71.705  1.00  0.00    -0.118 C  
ENDROOT
BRANCH   4  11
ATOM     11  C1*   T A   1      -9.487   7.716  69.580  1.00  0.00    -0.152 C  
ATOM     12  C2*   T A   1     -10.394   7.873  68.361  1.00  0.00    -0.235 C  
ATOM     13  C3*   T A   1      -9.480   7.495  67.224  1.00  0.00    -0.151 C  
ATOM     14  C4*   T A   1      -8.178   8.149  67.665  1.00  0.00    -0.127 C  
ATOM     15  O3*   T A   1      -9.933   7.976  65.967  1.00  0.00    -0.457 OA 
ATOM     16  H3*   T A   1      -9.357   7.737  65.251  1.00  0.00     0.000 HD 
ATOM     17  O4*   T A   1      -8.179   8.142  69.112  1.00  0.00    -0.119 OA 
BRANCH  14  18
ATOM     18  C5*   T A   1      -6.933   7.441  67.133  1.00  0.00    -0.083 C  
ATOM     19  O5*   T A   1      -7.276   6.348  66.283  1.00  0.00    -0.069 OA 
ATOM     20  H5*   T A   1      -6.502   5.907  65.952  1.00  0.00     0.000 HD 
ENDBRANCH  14  18
ENDBRANCH   4  11
TORSDOF 2
ENDMDL
MODEL      210
REMARK 921   NORMALIZED FREE ENERGY PREDICTED BY IDOCK:   -2.49 KCAL/MOL
REMARK 922        TOTAL FREE ENERGY PREDICTED BY IDOCK:   -3.10 KCAL/MOL
REMARK 923 INTER-LIGAND FREE ENERGY PREDICTED BY IDOCK:   -3.42 KCAL/MOL
REMARK 924 INTRA-LIGAND FREE ENERGY PREDICTED BY IDOCK:    0.32 KCAL/MOL
REMARK 927      BINDING AFFINITY PREDICTED BY RF-SCORE:    0.00 PKD
ROOT
ATOM      1  C5M   T A   1     -11.842  15.946  73.035  1.00  0.00    -0.535 C  
ATOM      2  C5    T A   1     -11.833  15.511  71.607  1.00  0.00    -0.486 C  
ATOM      3  C6    T A   1     -10.778  15.598  70.789  1.00  0.00    -0.143 C  
ATOM      4  N1    T A   1     -10.817  15.223  69.450  1.00  0.00    -0.248 N  
ATOM      5  O4    T A   1     -14.141  14.982  71.689  1.00  0.00    -0.429 OA 
ATOM      6  C2    T A   1     -12.028  14.839  68.881  1.00  0.00    -0.263 C  
ATOM      7  O2    T A   1     -12.253  14.779  67.676  1.00  0.00    -0.215 OA 
ATOM      8  H3    T A   1     -13.794  13.953  69.426  1.00  0.00     0.000 HD 
ATOM      9  N3    T A   1     -13.034  14.545  69.761  1.00  0.00     0.144 N  
ATOM     10  C4    T A   1     -13.097  14.983  71.049  1.00  0.00    -0.422 C  
ENDROOT
BRANCH   4  11
ATOM     11  C1*   T A   1      -9.672  15.563  68.586  1.00  0.00    -0.208 C  
ATOM     12  C2*   T A   1      -9.651  15.037  67.152  1.00  0.00    -0.222 C  
ATOM     13  C3*   T A   1      -9.057  13.663  67.318  1.00  0.00    -0.228 C  
ATOM     14  C4*   T A   1      -7.982  13.933  68.362  1.00  0.00    -0.144 C  
ATOM     15  O3*   T A   1      -8.524  13.142  66.110  1.00  0.00    -0.149 OA 
ATOM     16  H3*   T A   1      -8.149  12.275  66.215  1.00  0.00     0.000 HD 
ATOM     17  O4*   T A   1      -8.468  15.018  69.187  1.00  0.00    -0.195 OA 
BRANCH  14  18
ATOM     18  C5*   T A   1      -7.656  12.715  69.226  1.00  0.00     0.383 C  
ATOM     19  O5*   T A   1      -6.886  11.754  68.506  1.00  0.00    -0.064 OA 
ATOM     20  H5*   T A   1      -6.683  10.997  69.043  1.00  0.00     0.000 HD 
ENDBRANCH  14  18
ENDBRANCH   4  11
TORSDOF 2
ENDMDL
MODEL      211
REMARK 921   NORMALIZED FREE ENERGY PREDICTED BY IDOCK:   -2.47 KCAL/MOL
REMARK 922        TOTAL FREE ENERGY PREDICTED BY IDOCK:   -3.08 KCAL/MOL
REMARK 923 INTER-LIGAND FREE ENERGY PREDICTED BY IDOCK:   -3.15 KCAL/MOL
REMARK 924 INTRA-LIGAND FREE ENERGY PREDICTED BY IDOCK:    0.07 KCAL/MOL
REMARK 927      BINDING AFFINITY PREDICTED BY RF-SCORE:    0.00 PKD
ROOT
ATOM      1  C5M   T A   1      -6.952   4.921  69.801  1.00  0.00    -0.053 C  
ATOM      2  C5    T A   1      -8.028   5.435  68.903  1.00  0.00    -0.094 C  
ATOM      3  C6    T A   1      -8.025   6.640  68.321  1.00  0.00    -0.111 C  
ATOM      4  N1    T A   1      -9.067   7.105  67.524  1.00  0.00    -0.123 N  
ATOM      5  O4    T A   1      -9.342   3.497  69.264  1.00  0.00    -0.149 OA 
ATOM      6  C2    T A   1     -10.226   6.346  67.400  1.00  0.00    -0.178 C  
ATOM      7  O2    T A   1     -11.304   6.766  66.988  1.00  0.00    -0.337 OA 
ATOM      8  H3    T A   1     -10.813   4.382  67.433  1.00  0.00     0.000 HD 
ATOM      9  N3    T A   1     -10.133   5.043  67.808  1.00  0.00    -0.146 N  
ATOM     10  C4    T A   1      -9.200   4.562  68.676  1.00  0.00    -0.130 C  
ENDROOT
BRANCH   4  11
ATOM     11  C1*   T A   1      -9.066   8.521  67.115  1.00  0.00    -0.140 C  
ATOM     12  C2*   T A   1      -8.006   9.454  67.698  1.00  0.00    -0.099 C  
ATOM     13  C3*   T A   1      -8.627   9.880  69.003  1.00  0.00    -0.149 C  
ATOM     14  C4*   T A   1     -10.081  10.059  68.589  1.00  0.00    -0.172 C  
ATOM     15  O3*   T A   1      -8.058  11.072  69.522  1.00  0.00    -0.371 OA 
ATOM     16  H3*   T A   1      -8.450  11.341  70.345  1.00  0.00     0.000 HD 
ATOM     17  O4*   T A   1     -10.329   9.116  67.520  1.00  0.00    -0.228 OA 
BRANCH  14  18
ATOM     18  C5*   T A   1     -11.069   9.834  69.733  1.00  0.00    -0.237 C  
ATOM     19  O5*   T A   1     -11.588   8.505  69.721  1.00  0.00    -0.432 OA 
ATOM     20  H5*   T A   1     -12.203   8.365  70.433  1.00  0.00     0.000 HD 
ENDBRANCH  14  18
ENDBRANCH   4  11
TORSDOF 2
ENDMDL
MODEL      212
REMARK 921   NORMALIZED FREE ENERGY PREDICTED BY IDOCK:   -2.41 KCAL/MOL
REMARK 922        TOTAL FREE ENERGY PREDICTED BY IDOCK:   -3.01 KCAL/MOL
REMARK 923 INTER-LIGAND FREE ENERGY PREDICTED BY IDOCK:   -3.21 KCAL/MOL
REMARK 924 INTRA-LIGAND FREE ENERGY PREDICTED BY IDOCK:    0.19 KCAL/MOL
REMARK 927      BINDING AFFINITY PREDICTED BY RF-SCORE:    0.00 PKD
ROOT
ATOM      1  C5M   T A   1     -10.865  12.651  64.185  1.00  0.00    -0.431 C  
ATOM      2  C5    T A   1     -10.222  11.373  64.614  1.00  0.00    -0.347 C  
ATOM      3  C6    T A   1     -10.122  10.958  65.882  1.00  0.00    -0.252 C  
ATOM      4  N1    T A   1      -9.477   9.781  66.250  1.00  0.00    -0.181 N  
ATOM      5  O4    T A   1      -9.556  10.890  62.392  1.00  0.00    -0.220 OA 
ATOM      6  C2    T A   1      -8.801   9.039  65.287  1.00  0.00    -0.193 C  
ATOM      7  O2    T A   1      -7.963   8.174  65.522  1.00  0.00    -0.098 OA 
ATOM      8  H3    T A   1      -8.899   8.636  63.279  1.00  0.00     0.000 HD 
ATOM      9  N3    T A   1      -9.092   9.347  63.985  1.00  0.00    -0.149 N  
ATOM     10  C4    T A   1      -9.619  10.529  63.561  1.00  0.00    -0.326 C  
ENDROOT
BRANCH   4  11
ATOM     11  C1*   T A   1      -9.231   9.528  67.682  1.00  0.00    -0.124 C  
ATOM     12  C2*   T A   1      -9.232  10.711  68.648  1.00  0.00    -0.181 C  
ATOM     13  C3*   T A   1      -7.818  11.221  68.543  1.00  0.00    -0.138 C  
ATOM     14  C4*   T A   1      -7.042   9.913  68.473  1.00  0.00    -0.071 C  
ATOM     15  O3*   T A   1      -7.436  12.023  69.650  1.00  0.00    -0.294 OA 
ATOM     16  H3*   T A   1      -6.544  12.344  69.583  1.00  0.00     0.000 HD 
ATOM     17  O4*   T A   1      -7.905   8.951  67.823  1.00  0.00    -0.100 OA 
BRANCH  14  18
ATOM     18  C5*   T A   1      -5.719  10.034  67.716  1.00  0.00    -0.042 C  
ATOM     19  O5*   T A   1      -5.925  10.051  66.304  1.00  0.00    -0.060 OA 
ATOM     20  H5*   T A   1      -5.102  10.125  65.833  1.00  0.00     0.000 HD 
ENDBRANCH  14  18
ENDBRANCH   4  11
TORSDOF 2
ENDMDL
MODEL      213
REMARK 921   NORMALIZED FREE ENERGY PREDICTED BY IDOCK:   -2.41 KCAL/MOL
REMARK 922        TOTAL FREE ENERGY PREDICTED BY IDOCK:   -3.01 KCAL/MOL
REMARK 923 INTER-LIGAND FREE ENERGY PREDICTED BY IDOCK:   -2.60 KCAL/MOL
REMARK 924 INTRA-LIGAND FREE ENERGY PREDICTED BY IDOCK:   -0.41 KCAL/MOL
REMARK 927      BINDING AFFINITY PREDICTED BY RF-SCORE:    0.00 PKD
ROOT
ATOM      1  C5M   T A   1      -6.187   6.491  70.800  1.00  0.00    -0.035 C  
ATOM      2  C5    T A   1      -7.138   6.079  69.725  1.00  0.00    -0.072 C  
ATOM      3  C6    T A   1      -8.231   6.765  69.370  1.00  0.00    -0.128 C  
ATOM      4  N1    T A   1      -9.120   6.329  68.392  1.00  0.00    -0.115 N  
ATOM      5  O4    T A   1      -5.964   4.051  69.377  1.00  0.00    -0.021 OA 
ATOM      6  C2    T A   1      -8.947   5.074  67.819  1.00  0.00    -0.111 C  
ATOM      7  O2    T A   1      -9.805   4.462  67.187  1.00  0.00    -0.200 OA 
ATOM      8  H3    T A   1      -7.439   3.762  67.366  1.00  0.00     0.000 HD 
ATOM      9  N3    T A   1      -7.728   4.488  68.022  1.00  0.00    -0.080 N  
ATOM     10  C4    T A   1      -6.870   4.801  69.033  1.00  0.00    -0.051 C  
ENDROOT
BRANCH   4  11
ATOM     11  C1*   T A   1     -10.401   7.042  68.233  1.00  0.00    -0.194 C  
ATOM     12  C2*   T A   1     -10.620   7.890  66.982  1.00  0.00    -0.381 C  
ATOM     13  C3*   T A   1      -9.989   9.204  67.363  1.00  0.00    -0.206 C  
ATOM     14  C4*   T A   1     -10.429   9.328  68.815  1.00  0.00    -0.210 C  
ATOM     15  O3*   T A   1     -10.440  10.286  66.562  1.00  0.00    -0.223 OA 
ATOM     16  H3*   T A   1     -10.042  11.114  66.803  1.00  0.00     0.000 HD 
ATOM     17  O4*   T A   1     -10.541   7.982  69.332  1.00  0.00    -0.229 OA 
BRANCH  14  18
ATOM     18  C5*   T A   1      -9.464  10.147  69.672  1.00  0.00    -0.200 C  
ATOM     19  O5*   T A   1      -8.482  10.804  68.872  1.00  0.00    -0.144 OA 
ATOM     20  H5*   T A   1      -7.882  11.313  69.405  1.00  0.00     0.000 HD 
ENDBRANCH  14  18
ENDBRANCH   4  11
TORSDOF 2
ENDMDL
MODEL      214
REMARK 921   NORMALIZED FREE ENERGY PREDICTED BY IDOCK:   -2.40 KCAL/MOL
REMARK 922        TOTAL FREE ENERGY PREDICTED BY IDOCK:   -3.01 KCAL/MOL
REMARK 923 INTER-LIGAND FREE ENERGY PREDICTED BY IDOCK:   -3.14 KCAL/MOL
REMARK 924 INTRA-LIGAND FREE ENERGY PREDICTED BY IDOCK:    0.13 KCAL/MOL
REMARK 927      BINDING AFFINITY PREDICTED BY RF-SCORE:    0.00 PKD
ROOT
ATOM      1  C5M   T A   1      -7.220   8.932  72.083  1.00  0.00     0.087 C  
ATOM      2  C5    T A   1      -8.494   8.309  71.615  1.00  0.00    -0.193 C  
ATOM      3  C6    T A   1      -8.907   8.279  70.343  1.00  0.00    -0.141 C  
ATOM      4  N1    T A   1     -10.122   7.728  69.947  1.00  0.00    -0.199 N  
ATOM      5  O4    T A   1      -9.140   7.810  73.840  1.00  0.00    -0.268 OA 
ATOM      6  C2    T A   1     -11.017   7.278  70.913  1.00  0.00    -0.253 C  
ATOM      7  O2    T A   1     -12.209   7.058  70.722  1.00  0.00    -0.353 OA 
ATOM      8  H3    T A   1     -11.001   6.484  72.803  1.00  0.00     0.000 HD 
ATOM      9  N3    T A   1     -10.504   7.111  72.170  1.00  0.00    -0.203 N  
ATOM     10  C4    T A   1      -9.380   7.718  72.642  1.00  0.00    -0.188 C  
ENDROOT
BRANCH   4  11
ATOM     11  C1*   T A   1     -10.578   7.942  68.562  1.00  0.00    -0.106 C  
ATOM     12  C2*   T A   1      -9.734   7.389  67.416  1.00  0.00    -0.196 C  
ATOM     13  C3*   T A   1      -8.719   8.481  67.201  1.00  0.00    -0.129 C  
ATOM     14  C4*   T A   1      -9.584   9.721  67.374  1.00  0.00    -0.155 C  
ATOM     15  O3*   T A   1      -8.104   8.420  65.923  1.00  0.00    -0.100 OA 
ATOM     16  H3*   T A   1      -7.463   9.109  65.788  1.00  0.00     0.000 HD 
ATOM     17  O4*   T A   1     -10.628   9.373  68.313  1.00  0.00    -0.222 OA 
BRANCH  14  18
ATOM     18  C5*   T A   1      -8.805  10.938  67.876  1.00  0.00    -0.134 C  
ATOM     19  O5*   T A   1      -9.500  11.605  68.929  1.00  0.00    -0.384 OA 
ATOM     20  H5*   T A   1      -9.016  12.361  69.240  1.00  0.00     0.000 HD 
ENDBRANCH  14  18
ENDBRANCH   4  11
TORSDOF 2
ENDMDL
MODEL      215
REMARK 921   NORMALIZED FREE ENERGY PREDICTED BY IDOCK:   -2.40 KCAL/MOL
REMARK 922        TOTAL FREE ENERGY PREDICTED BY IDOCK:   -3.00 KCAL/MOL
REMARK 923 INTER-LIGAND FREE ENERGY PREDICTED BY IDOCK:   -3.10 KCAL/MOL
REMARK 924 INTRA-LIGAND FREE ENERGY PREDICTED BY IDOCK:    0.10 KCAL/MOL
REMARK 927      BINDING AFFINITY PREDICTED BY RF-SCORE:    0.00 PKD
ROOT
ATOM      1  C5M   T A   1      -9.521   3.954  72.209  1.00  0.00    -0.185 C  
ATOM      2  C5    T A   1      -9.097   5.206  71.514  1.00  0.00    -0.169 C  
ATOM      3  C6    T A   1      -9.856   5.895  70.654  1.00  0.00    -0.183 C  
ATOM      4  N1    T A   1      -9.413   7.034  69.989  1.00  0.00    -0.161 N  
ATOM      5  O4    T A   1      -6.922   5.059  72.442  1.00  0.00    -0.066 OA 
ATOM      6  C2    T A   1      -8.088   7.435  70.125  1.00  0.00    -0.131 C  
ATOM      7  O2    T A   1      -7.508   8.219  69.379  1.00  0.00    -0.085 OA 
ATOM      8  H3    T A   1      -6.569   7.359  71.500  1.00  0.00     0.000 HD 
ATOM      9  N3    T A   1      -7.395   6.866  71.159  1.00  0.00    -0.077 N  
ATOM     10  C4    T A   1      -7.724   5.693  71.767  1.00  0.00    -0.101 C  
ENDROOT
BRANCH   4  11
ATOM     11  C1*   T A   1     -10.243   7.587  68.904  1.00  0.00    -0.208 C  
ATOM     12  C2*   T A   1     -11.280   6.684  68.239  1.00  0.00    -0.208 C  
ATOM     13  C3*   T A   1     -10.467   5.971  67.190  1.00  0.00    -0.264 C  
ATOM     14  C4*   T A   1      -9.574   7.100  66.695  1.00  0.00    -0.170 C  
ATOM     15  O3*   T A   1     -11.265   5.413  66.157  1.00  0.00    -0.761 OA 
ATOM     16  H3*   T A   1     -10.752   4.964  65.496  1.00  0.00     0.000 HD 
ATOM     17  O4*   T A   1      -9.367   7.989  67.817  1.00  0.00    -0.136 OA 
BRANCH  14  18
ATOM     18  C5*   T A   1      -8.232   6.616  66.148  1.00  0.00    -0.124 C  
ATOM     19  O5*   T A   1      -7.160   7.457  66.572  1.00  0.00    -0.071 OA 
ATOM     20  H5*   T A   1      -6.326   7.156  66.232  1.00  0.00     0.000 HD 
ENDBRANCH  14  18
ENDBRANCH   4  11
TORSDOF 2
ENDMDL
MODEL      216
REMARK 921   NORMALIZED FREE ENERGY PREDICTED BY IDOCK:   -2.37 KCAL/MOL
REMARK 922        TOTAL FREE ENERGY PREDICTED BY IDOCK:   -2.97 KCAL/MOL
REMARK 923 INTER-LIGAND FREE ENERGY PREDICTED BY IDOCK:   -3.17 KCAL/MOL
REMARK 924 INTRA-LIGAND FREE ENERGY PREDICTED BY IDOCK:    0.20 KCAL/MOL
REMARK 927      BINDING AFFINITY PREDICTED BY RF-SCORE:    0.00 PKD
ROOT
ATOM      1  C5M   T A   1      -9.487   2.563  70.772  1.00  0.00    -0.210 C  
ATOM      2  C5    T A   1      -9.991   3.782  71.472  1.00  0.00    -0.195 C  
ATOM      3  C6    T A   1      -9.998   5.014  70.950  1.00  0.00    -0.216 C  
ATOM      4  N1    T A   1     -10.435   6.136  71.647  1.00  0.00    -0.216 N  
ATOM      5  O4    T A   1     -10.396   2.552  73.455  1.00  0.00    -0.106 OA 
ATOM      6  C2    T A   1     -10.783   6.016  72.988  1.00  0.00    -0.252 C  
ATOM      7  O2    T A   1     -10.890   6.952  73.776  1.00  0.00    -0.289 OA 
ATOM      8  H3    T A   1     -11.550   4.622  74.280  1.00  0.00     0.000 HD 
ATOM      9  N3    T A   1     -10.982   4.741  73.442  1.00  0.00    -0.295 N  
ATOM     10  C4    T A   1     -10.480   3.618  72.858  1.00  0.00    -0.156 C  
ENDROOT
BRANCH   4  11
ATOM     11  C1*   T A   1     -10.195   7.468  71.063  1.00  0.00    -0.190 C  
ATOM     12  C2*   T A   1     -11.009   7.893  69.843  1.00  0.00    -0.179 C  
ATOM     13  C3*   T A   1     -10.220   7.304  68.703  1.00  0.00    -0.182 C  
ATOM     14  C4*   T A   1      -8.795   7.568  69.168  1.00  0.00    -0.136 C  
ATOM     15  O3*   T A   1     -10.509   7.918  67.456  1.00  0.00    -0.241 OA 
ATOM     16  H3*   T A   1     -10.011   7.546  66.737  1.00  0.00     0.000 HD 
ATOM     17  O4*   T A   1      -8.815   7.530  70.614  1.00  0.00    -0.143 OA 
BRANCH  14  18
ATOM     18  C5*   T A   1      -7.784   6.557  68.625  1.00  0.00    -0.102 C  
ATOM     19  O5*   T A   1      -7.142   5.843  69.681  1.00  0.00    -0.064 OA 
ATOM     20  H5*   T A   1      -6.513   5.215  69.344  1.00  0.00     0.000 HD 
ENDBRANCH  14  18
ENDBRANCH   4  11
TORSDOF 2
ENDMDL
MODEL      217
REMARK 921   NORMALIZED FREE ENERGY PREDICTED BY IDOCK:   -2.33 KCAL/MOL
REMARK 922        TOTAL FREE ENERGY PREDICTED BY IDOCK:   -2.93 KCAL/MOL
REMARK 923 INTER-LIGAND FREE ENERGY PREDICTED BY IDOCK:   -2.93 KCAL/MOL
REMARK 924 INTRA-LIGAND FREE ENERGY PREDICTED BY IDOCK:   -0.00 KCAL/MOL
REMARK 927      BINDING AFFINITY PREDICTED BY RF-SCORE:    0.00 PKD
ROOT
ATOM      1  C5M   T A   1      -7.246   7.163  69.027  1.00  0.00    -0.086 C  
ATOM      2  C5    T A   1      -7.578   7.822  67.729  1.00  0.00    -0.113 C  
ATOM      3  C6    T A   1      -7.496   9.138  67.499  1.00  0.00    -0.088 C  
ATOM      4  N1    T A   1      -7.855   9.725  66.289  1.00  0.00    -0.105 N  
ATOM      5  O4    T A   1      -8.293   5.766  66.795  1.00  0.00    -0.108 OA 
ATOM      6  C2    T A   1      -8.432   8.943  65.293  1.00  0.00    -0.169 C  
ATOM      7  O2    T A   1      -9.054   9.377  64.328  1.00  0.00    -0.214 OA 
ATOM      8  H3    T A   1      -8.403   7.008  64.617  1.00  0.00     0.000 HD 
ATOM      9  N3    T A   1      -8.309   7.590  65.450  1.00  0.00    -0.137 N  
ATOM     10  C4    T A   1      -8.071   6.960  66.634  1.00  0.00    -0.110 C  
ENDROOT
BRANCH   4  11
ATOM     11  C1*   T A   1      -7.937  11.195  66.213  1.00  0.00    -0.125 C  
ATOM     12  C2*   T A   1      -7.143  12.028  67.217  1.00  0.00    -0.149 C  
ATOM     13  C3*   T A   1      -8.072  12.084  68.402  1.00  0.00    -0.154 C  
ATOM     14  C4*   T A   1      -9.417  12.260  67.710  1.00  0.00    -0.197 C  
ATOM     15  O3*   T A   1      -7.772  13.151  69.289  1.00  0.00    -0.311 OA 
ATOM     16  H3*   T A   1      -8.358  13.186  70.036  1.00  0.00     0.000 HD 
ATOM     17  O4*   T A   1      -9.318  11.588  66.432  1.00  0.00    -0.197 OA 
BRANCH  14  18
ATOM     18  C5*   T A   1     -10.590  11.700  68.514  1.00  0.00    -0.215 C  
ATOM     19  O5*   T A   1     -11.001  12.605  69.538  1.00  0.00    -0.447 OA 
ATOM     20  H5*   T A   1     -11.730  12.257  70.038  1.00  0.00     0.000 HD 
ENDBRANCH  14  18
ENDBRANCH   4  11
TORSDOF 2
ENDMDL
MODEL      218
REMARK 921   NORMALIZED FREE ENERGY PREDICTED BY IDOCK:   -2.29 KCAL/MOL
REMARK 922        TOTAL FREE ENERGY PREDICTED BY IDOCK:   -2.89 KCAL/MOL
REMARK 923 INTER-LIGAND FREE ENERGY PREDICTED BY IDOCK:   -3.34 KCAL/MOL
REMARK 924 INTRA-LIGAND FREE ENERGY PREDICTED BY IDOCK:    0.46 KCAL/MOL
REMARK 927      BINDING AFFINITY PREDICTED BY RF-SCORE:    0.00 PKD
ROOT
ATOM      1  C5M   T A   1      -9.814  10.970  68.969  1.00  0.00    -0.165 C  
ATOM      2  C5    T A   1      -9.883  12.227  68.166  1.00  0.00    -0.212 C  
ATOM      3  C6    T A   1      -8.821  12.924  67.748  1.00  0.00    -0.188 C  
ATOM      4  N1    T A   1      -8.922  14.117  67.039  1.00  0.00    -0.230 N  
ATOM      5  O4    T A   1     -12.249  12.252  68.292  1.00  0.00    -0.315 OA 
ATOM      6  C2    T A   1     -10.174  14.690  66.835  1.00  0.00    -0.262 C  
ATOM      7  O2    T A   1     -10.371  15.855  66.503  1.00  0.00    -0.284 OA 
ATOM      8  H3    T A   1     -12.131  14.120  66.621  1.00  0.00     0.000 HD 
ATOM      9  N3    T A   1     -11.248  13.874  67.067  1.00  0.00    -0.304 N  
ATOM     10  C4    T A   1     -11.226  12.758  67.847  1.00  0.00    -0.274 C  
ENDROOT
BRANCH   4  11
ATOM     11  C1*   T A   1      -7.702  14.915  66.820  1.00  0.00     0.284 C  
ATOM     12  C2*   T A   1      -6.546  14.776  67.808  1.00  0.00    -0.188 C  
ATOM     13  C3*   T A   1      -6.928  15.746  68.896  1.00  0.00    -0.135 C  
ATOM     14  C4*   T A   1      -7.486  16.901  68.075  1.00  0.00    -0.173 C  
ATOM     15  O3*   T A   1      -5.827  16.133  69.703  1.00  0.00    -0.143 OA 
ATOM     16  H3*   T A   1      -6.068  16.744  70.389  1.00  0.00     0.000 HD 
ATOM     17  O4*   T A   1      -8.059  16.322  66.879  1.00  0.00    -0.186 OA 
BRANCH  14  18
ATOM     18  C5*   T A   1      -8.536  17.723  68.822  1.00  0.00    -0.211 C  
ATOM     19  O5*   T A   1      -8.261  19.121  68.738  1.00  0.00    -0.358 OA 
ATOM     20  H5*   T A   1      -8.914  19.632  69.203  1.00  0.00     0.000 HD 
ENDBRANCH  14  18
ENDBRANCH   4  11
TORSDOF 2
ENDMDL
MODEL      219
REMARK 921   NORMALIZED FREE ENERGY PREDICTED BY IDOCK:   -2.25 KCAL/MOL
REMARK 922        TOTAL FREE ENERGY PREDICTED BY IDOCK:   -2.84 KCAL/MOL
REMARK 923 INTER-LIGAND FREE ENERGY PREDICTED BY IDOCK:   -2.39 KCAL/MOL
REMARK 924 INTRA-LIGAND FREE ENERGY PREDICTED BY IDOCK:   -0.45 KCAL/MOL
REMARK 927      BINDING AFFINITY PREDICTED BY RF-SCORE:    0.00 PKD
ROOT
ATOM      1  C5M   T A   1      -9.126   4.524  72.456  1.00  0.00    -0.140 C  
ATOM      2  C5    T A   1      -9.357   5.747  71.631  1.00  0.00    -0.162 C  
ATOM      3  C6    T A   1      -8.675   6.060  70.523  1.00  0.00    -0.138 C  
ATOM      4  N1    T A   1      -8.888   7.231  69.802  1.00  0.00    -0.142 N  
ATOM      5  O4    T A   1     -10.975   6.551  73.163  1.00  0.00    -0.258 OA 
ATOM      6  C2    T A   1      -9.769   8.189  70.294  1.00  0.00    -0.175 C  
ATOM      7  O2    T A   1      -9.816   9.359  69.925  1.00  0.00    -0.184 OA 
ATOM      8  H3    T A   1     -11.468   8.303  71.435  1.00  0.00     0.000 HD 
ATOM      9  N3    T A   1     -10.610   7.771  71.288  1.00  0.00    -0.217 N  
ATOM     10  C4    T A   1     -10.390   6.697  72.097  1.00  0.00    -0.200 C  
ENDROOT
BRANCH   4  11
ATOM     11  C1*   T A   1      -7.938   7.584  68.731  1.00  0.00    -0.126 C  
ATOM     12  C2*   T A   1      -8.449   7.672  67.295  1.00  0.00    -0.121 C  
ATOM     13  C3*   T A   1      -8.368   6.241  66.830  1.00  0.00    -0.109 C  
ATOM     14  C4*   T A   1      -7.053   5.804  67.460  1.00  0.00    -0.074 C  
ATOM     15  O3*   T A   1      -8.363   6.119  65.416  1.00  0.00    -0.143 OA 
ATOM     16  H3*   T A   1      -8.312   5.216  65.124  1.00  0.00     0.000 HD 
ATOM     17  O4*   T A   1      -6.904   6.564  68.682  1.00  0.00    -0.065 OA 
BRANCH  14  18
ATOM     18  C5*   T A   1      -6.991   4.306  67.757  1.00  0.00    -0.059 C  
ATOM     19  O5*   T A   1      -7.440   3.534  66.644  1.00  0.00    -0.074 OA 
ATOM     20  H5*   T A   1      -7.402   2.602  66.829  1.00  0.00     0.000 HD 
ENDBRANCH  14  18
ENDBRANCH   4  11
TORSDOF 2
ENDMDL
MODEL      220
REMARK 921   NORMALIZED FREE ENERGY PREDICTED BY IDOCK:   -2.23 KCAL/MOL
REMARK 922        TOTAL FREE ENERGY PREDICTED BY IDOCK:   -2.82 KCAL/MOL
REMARK 923 INTER-LIGAND FREE ENERGY PREDICTED BY IDOCK:   -2.80 KCAL/MOL
REMARK 924 INTRA-LIGAND FREE ENERGY PREDICTED BY IDOCK:   -0.02 KCAL/MOL
REMARK 927      BINDING AFFINITY PREDICTED BY RF-SCORE:    0.00 PKD
ROOT
ATOM      1  C5M   T A   1      -7.463   4.355  71.558  1.00  0.00    -0.068 C  
ATOM      2  C5    T A   1      -8.480   5.010  70.682  1.00  0.00    -0.111 C  
ATOM      3  C6    T A   1      -8.787   6.312  70.712  1.00  0.00    -0.144 C  
ATOM      4  N1    T A   1      -9.772   6.882  69.911  1.00  0.00    -0.162 N  
ATOM      5  O4    T A   1      -9.097   2.928  69.735  1.00  0.00    -0.100 OA 
ATOM      6  C2    T A   1     -10.563   6.064  69.112  1.00  0.00    -0.295 C  
ATOM      7  O2    T A   1     -11.632   6.393  68.606  1.00  0.00    -0.142 OA 
ATOM      8  H3    T A   1     -10.444   4.281  68.106  1.00  0.00     0.000 HD 
ATOM      9  N3    T A   1     -10.104   4.789  68.923  1.00  0.00    -0.127 N  
ATOM     10  C4    T A   1      -9.226   4.146  69.743  1.00  0.00    -0.143 C  
ENDROOT
BRANCH   4  11
ATOM     11  C1*   T A   1     -10.183   8.272  70.178  1.00  0.00    -0.199 C  
ATOM     12  C2*   T A   1     -10.631   9.144  69.007  1.00  0.00    -0.219 C  
ATOM     13  C3*   T A   1      -9.326   9.680  68.480  1.00  0.00    -0.137 C  
ATOM     14  C4*   T A   1      -8.579   9.955  69.778  1.00  0.00    -0.203 C  
ATOM     15  O3*   T A   1      -9.487  10.846  67.687  1.00  0.00    -0.157 OA 
ATOM     16  H3*   T A   1      -8.663  11.184  67.355  1.00  0.00     0.000 HD 
ATOM     17  O4*   T A   1      -9.049   8.984  70.742  1.00  0.00    -0.202 OA 
BRANCH  14  18
ATOM     18  C5*   T A   1      -7.059   9.865  69.634  1.00  0.00    -0.093 C  
ATOM     19  O5*   T A   1      -6.392  10.520  70.711  1.00  0.00    -0.298 OA 
ATOM     20  H5*   T A   1      -5.448  10.464  70.621  1.00  0.00     0.000 HD 
ENDBRANCH  14  18
ENDBRANCH   4  11
TORSDOF 2
ENDMDL
MODEL      221
REMARK 921   NORMALIZED FREE ENERGY PREDICTED BY IDOCK:   -2.23 KCAL/MOL
REMARK 922        TOTAL FREE ENERGY PREDICTED BY IDOCK:   -2.81 KCAL/MOL
REMARK 923 INTER-LIGAND FREE ENERGY PREDICTED BY IDOCK:   -2.97 KCAL/MOL
REMARK 924 INTRA-LIGAND FREE ENERGY PREDICTED BY IDOCK:    0.16 KCAL/MOL
REMARK 927      BINDING AFFINITY PREDICTED BY RF-SCORE:    0.00 PKD
ROOT
ATOM      1  C5M   T A   1      -9.876   7.879  73.120  1.00  0.00    -0.357 C  
ATOM      2  C5    T A   1     -10.310   7.303  71.812  1.00  0.00    -0.215 C  
ATOM      3  C6    T A   1     -10.046   6.058  71.403  1.00  0.00    -0.193 C  
ATOM      4  N1    T A   1     -10.428   5.567  70.158  1.00  0.00    -0.285 N  
ATOM      5  O4    T A   1     -11.227   9.379  71.132  1.00  0.00    -0.296 OA 
ATOM      6  C2    T A   1     -11.018   6.425  69.235  1.00  0.00    -0.356 C  
ATOM      7  O2    T A   1     -11.121   6.203  68.031  1.00  0.00    -0.329 OA 
ATOM      8  H3    T A   1     -12.192   8.105  69.197  1.00  0.00     0.000 HD 
ATOM      9  N3    T A   1     -11.476   7.614  69.733  1.00  0.00     0.057 N  
ATOM     10  C4    T A   1     -11.050   8.191  70.890  1.00  0.00    -0.258 C  
ENDROOT
BRANCH   4  11
ATOM     11  C1*   T A   1      -9.900   4.263  69.719  1.00  0.00    -0.187 C  
ATOM     12  C2*   T A   1      -8.864   3.558  70.593  1.00  0.00    -0.141 C  
ATOM     13  C3*   T A   1      -7.571   4.183  70.135  1.00  0.00    -0.045 C  
ATOM     14  C4*   T A   1      -7.806   4.270  68.633  1.00  0.00    -0.073 C  
ATOM     15  O3*   T A   1      -6.433   3.402  70.464  1.00  0.00    -0.030 OA 
ATOM     16  H3*   T A   1      -5.618   3.796  70.176  1.00  0.00     0.000 HD 
ATOM     17  O4*   T A   1      -9.229   4.446  68.444  1.00  0.00    -0.120 OA 
BRANCH  14  18
ATOM     18  C5*   T A   1      -7.037   5.410  67.965  1.00  0.00    -0.067 C  
ATOM     19  O5*   T A   1      -7.052   6.591  68.767  1.00  0.00    -0.077 OA 
ATOM     20  H5*   T A   1      -6.575   7.300  68.351  1.00  0.00     0.000 HD 
ENDBRANCH  14  18
ENDBRANCH   4  11
TORSDOF 2
ENDMDL
MODEL      222
REMARK 921   NORMALIZED FREE ENERGY PREDICTED BY IDOCK:   -2.15 KCAL/MOL
REMARK 922        TOTAL FREE ENERGY PREDICTED BY IDOCK:   -2.72 KCAL/MOL
REMARK 923 INTER-LIGAND FREE ENERGY PREDICTED BY IDOCK:   -2.67 KCAL/MOL
REMARK 924 INTRA-LIGAND FREE ENERGY PREDICTED BY IDOCK:   -0.05 KCAL/MOL
REMARK 927      BINDING AFFINITY PREDICTED BY RF-SCORE:    0.00 PKD
ROOT
ATOM      1  C5M   T A   1      -6.812   3.206  72.315  1.00  0.00    -0.026 C  
ATOM      2  C5    T A   1      -8.243   3.615  72.428  1.00  0.00    -0.084 C  
ATOM      3  C6    T A   1      -8.843   4.516  71.642  1.00  0.00    -0.120 C  
ATOM      4  N1    T A   1     -10.169   4.906  71.802  1.00  0.00    -0.201 N  
ATOM      5  O4    T A   1      -8.542   2.267  74.353  1.00  0.00    -0.064 OA 
ATOM      6  C2    T A   1     -10.895   4.434  72.891  1.00  0.00    -0.176 C  
ATOM      7  O2    T A   1     -11.942   4.922  73.306  1.00  0.00    -0.193 OA 
ATOM      8  H3    T A   1     -10.985   2.787  74.108  1.00  0.00     0.000 HD 
ATOM      9  N3    T A   1     -10.355   3.362  73.549  1.00  0.00    -0.139 N  
ATOM     10  C4    T A   1      -9.041   3.006  73.514  1.00  0.00    -0.085 C  
ENDROOT
BRANCH   4  11
ATOM     11  C1*   T A   1     -10.665   6.059  71.030  1.00  0.00    -0.265 C  
ATOM     12  C2*   T A   1     -10.081   6.321  69.643  1.00  0.00    -0.215 C  
ATOM     13  C3*   T A   1      -8.844   7.123  69.957  1.00  0.00    -0.142 C  
ATOM     14  C4*   T A   1      -9.354   8.019  71.076  1.00  0.00    -0.149 C  
ATOM     15  O3*   T A   1      -8.367   7.861  68.842  1.00  0.00    -0.125 OA 
ATOM     16  H3*   T A   1      -7.587   8.367  69.040  1.00  0.00     0.000 HD 
ATOM     17  O4*   T A   1     -10.374   7.270  71.777  1.00  0.00    -0.196 OA 
BRANCH  14  18
ATOM     18  C5*   T A   1      -8.258   8.458  72.048  1.00  0.00    -0.155 C  
ATOM     19  O5*   T A   1      -7.414   9.453  71.469  1.00  0.00    -0.337 OA 
ATOM     20  H5*   T A   1      -6.732   9.725  72.073  1.00  0.00     0.000 HD 
ENDBRANCH  14  18
ENDBRANCH   4  11
TORSDOF 2
ENDMDL
MODEL      223
REMARK 921   NORMALIZED FREE ENERGY PREDICTED BY IDOCK:   -2.15 KCAL/MOL
REMARK 922        TOTAL FREE ENERGY PREDICTED BY IDOCK:   -2.72 KCAL/MOL
REMARK 923 INTER-LIGAND FREE ENERGY PREDICTED BY IDOCK:   -2.63 KCAL/MOL
REMARK 924 INTRA-LIGAND FREE ENERGY PREDICTED BY IDOCK:   -0.09 KCAL/MOL
REMARK 927      BINDING AFFINITY PREDICTED BY RF-SCORE:    0.00 PKD
ROOT
ATOM      1  C5M   T A   1      -8.633  19.542  68.807  1.00  0.00    -0.336 C  
ATOM      2  C5    T A   1      -8.508  18.189  68.188  1.00  0.00    -0.282 C  
ATOM      3  C6    T A   1      -9.519  17.328  68.025  1.00  0.00    -0.271 C  
ATOM      4  N1    T A   1      -9.359  16.057  67.484  1.00  0.00    -0.216 N  
ATOM      5  O4    T A   1      -6.160  18.431  67.983  1.00  0.00    -0.181 OA 
ATOM      6  C2    T A   1      -8.081  15.593  67.189  1.00  0.00    -0.215 C  
ATOM      7  O2    T A   1      -7.783  14.418  66.999  1.00  0.00    -0.104 OA 
ATOM      8  H3    T A   1      -6.251  16.323  66.624  1.00  0.00     0.000 HD 
ATOM      9  N3    T A   1      -7.096  16.543  67.150  1.00  0.00    -0.173 N  
ATOM     10  C4    T A   1      -7.160  17.758  67.761  1.00  0.00    -0.195 C  
ENDROOT
BRANCH   4  11
ATOM     11  C1*   T A   1     -10.488  15.112  67.553  1.00  0.00    -0.258 C  
ATOM     12  C2*   T A   1     -11.886  15.656  67.841  1.00  0.00     0.025 C  
ATOM     13  C3*   T A   1     -11.907  15.718  69.347  1.00  0.00    -0.349 C  
ATOM     14  C4*   T A   1     -11.180  14.429  69.702  1.00  0.00    -0.232 C  
ATOM     15  O3*   T A   1     -13.222  15.766  69.879  1.00  0.00    -0.532 OA 
ATOM     16  H3*   T A   1     -13.235  15.806  70.828  1.00  0.00     0.000 HD 
ATOM     17  O4*   T A   1     -10.236  14.176  68.635  1.00  0.00    -0.234 OA 
BRANCH  14  18
ATOM     18  C5*   T A   1     -10.454  14.494  71.046  1.00  0.00     1.343 C  
ATOM     19  O5*   T A   1     -11.045  15.461  71.914  1.00  0.00    -0.420 OA 
ATOM     20  H5*   T A   1     -10.594  15.501  72.749  1.00  0.00     0.000 HD 
ENDBRANCH  14  18
ENDBRANCH   4  11
TORSDOF 2
ENDMDL
MODEL      224
REMARK 921   NORMALIZED FREE ENERGY PREDICTED BY IDOCK:   -2.08 KCAL/MOL
REMARK 922        TOTAL FREE ENERGY PREDICTED BY IDOCK:   -2.64 KCAL/MOL
REMARK 923 INTER-LIGAND FREE ENERGY PREDICTED BY IDOCK:   -2.22 KCAL/MOL
REMARK 924 INTRA-LIGAND FREE ENERGY PREDICTED BY IDOCK:   -0.42 KCAL/MOL
REMARK 927      BINDING AFFINITY PREDICTED BY RF-SCORE:    0.00 PKD
ROOT
ATOM      1  C5M   T A   1      -9.293   3.490  65.667  1.00  0.00    -0.158 C  
ATOM      2  C5    T A   1      -8.711   4.607  66.469  1.00  0.00    -0.111 C  
ATOM      3  C6    T A   1      -8.017   5.631  65.959  1.00  0.00    -0.106 C  
ATOM      4  N1    T A   1      -7.451   6.634  66.740  1.00  0.00    -0.078 N  
ATOM      5  O4    T A   1      -9.396   3.592  68.496  1.00  0.00    -0.149 OA 
ATOM      6  C2    T A   1      -7.501   6.532  68.127  1.00  0.00    -0.095 C  
ATOM      7  O2    T A   1      -6.799   7.169  68.907  1.00  0.00    -0.064 OA 
ATOM      8  H3    T A   1      -8.701   5.742  69.589  1.00  0.00     0.000 HD 
ATOM      9  N3    T A   1      -8.387   5.617  68.627  1.00  0.00    -0.106 N  
ATOM     10  C4    T A   1      -8.883   4.553  67.936  1.00  0.00    -0.107 C  
ENDROOT
BRANCH   4  11
ATOM     11  C1*   T A   1      -6.525   7.588  66.104  1.00  0.00    -0.045 C  
ATOM     12  C2*   T A   1      -6.713   9.081  66.367  1.00  0.00    -0.075 C  
ATOM     13  C3*   T A   1      -7.744   9.466  65.337  1.00  0.00    -0.103 C  
ATOM     14  C4*   T A   1      -7.275   8.654  64.138  1.00  0.00    -0.092 C  
ATOM     15  O3*   T A   1      -7.768  10.861  65.075  1.00  0.00    -0.355 OA 
ATOM     16  H3*   T A   1      -8.418  11.104  64.426  1.00  0.00     0.000 HD 
ATOM     17  O4*   T A   1      -6.653   7.458  64.663  1.00  0.00    -0.040 OA 
BRANCH  14  18
ATOM     18  C5*   T A   1      -8.406   8.285  63.178  1.00  0.00    -0.055 C  
ATOM     19  O5*   T A   1      -9.376   9.327  63.087  1.00  0.00    -0.481 OA 
ATOM     20  H5*   T A   1     -10.079   9.097  62.490  1.00  0.00     0.000 HD 
ENDBRANCH  14  18
ENDBRANCH   4  11
TORSDOF 2
ENDMDL
MODEL      225
REMARK 921   NORMALIZED FREE ENERGY PREDICTED BY IDOCK:   -2.01 KCAL/MOL
REMARK 922        TOTAL FREE ENERGY PREDICTED BY IDOCK:   -2.57 KCAL/MOL
REMARK 923 INTER-LIGAND FREE ENERGY PREDICTED BY IDOCK:   -3.93 KCAL/MOL
REMARK 924 INTRA-LIGAND FREE ENERGY PREDICTED BY IDOCK:    1.37 KCAL/MOL
REMARK 927      BINDING AFFINITY PREDICTED BY RF-SCORE:    0.00 PKD
ROOT
ATOM      1  C5M   T A   1      -5.916  17.292  70.221  1.00  0.00    -0.012 C  
ATOM      2  C5    T A   1      -6.670  16.309  69.387  1.00  0.00    -0.209 C  
ATOM      3  C6    T A   1      -7.822  16.568  68.758  1.00  0.00    -0.235 C  
ATOM      4  N1    T A   1      -8.521  15.615  68.023  1.00  0.00    -0.146 N  
ATOM      5  O4    T A   1      -5.138  14.583  69.924  1.00  0.00    -0.092 OA 
ATOM      6  C2    T A   1      -8.079  14.295  68.016  1.00  0.00    -0.145 C  
ATOM      7  O2    T A   1      -8.752  13.328  67.670  1.00  0.00    -0.171 OA 
ATOM      8  H3    T A   1      -6.331  13.236  68.174  1.00  0.00     0.000 HD 
ATOM      9  N3    T A   1      -6.805  14.090  68.469  1.00  0.00    -0.095 N  
ATOM     10  C4    T A   1      -6.119  14.940  69.283  1.00  0.00    -0.107 C  
ENDROOT
BRANCH   4  11
ATOM     11  C1*   T A   1      -9.881  15.939  67.558  1.00  0.00    -0.230 C  
ATOM     12  C2*   T A   1     -10.817  16.698  68.496  1.00  0.00    -0.356 C  
ATOM     13  C3*   T A   1     -11.416  15.592  69.325  1.00  0.00    -0.340 C  
ATOM     14  C4*   T A   1     -11.621  14.514  68.270  1.00  0.00    -0.329 C  
ATOM     15  O3*   T A   1     -12.628  15.971  69.960  1.00  0.00    -0.505 OA 
ATOM     16  H3*   T A   1     -13.005  15.273  70.483  1.00  0.00     0.000 HD 
ATOM     17  O4*   T A   1     -10.580  14.695  67.282  1.00  0.00    -0.277 OA 
BRANCH  14  18
ATOM     18  C5*   T A   1     -11.574  13.095  68.835  1.00  0.00    -0.311 C  
ATOM     19  O5*   T A   1     -10.315  12.818  69.446  1.00  0.00    -0.372 OA 
ATOM     20  H5*   T A   1     -10.285  11.935  69.798  1.00  0.00     0.000 HD 
ENDBRANCH  14  18
ENDBRANCH   4  11
TORSDOF 2
ENDMDL
MODEL      226
REMARK 921   NORMALIZED FREE ENERGY PREDICTED BY IDOCK:   -1.99 KCAL/MOL
REMARK 922        TOTAL FREE ENERGY PREDICTED BY IDOCK:   -2.54 KCAL/MOL
REMARK 923 INTER-LIGAND FREE ENERGY PREDICTED BY IDOCK:   -2.64 KCAL/MOL
REMARK 924 INTRA-LIGAND FREE ENERGY PREDICTED BY IDOCK:    0.09 KCAL/MOL
REMARK 927      BINDING AFFINITY PREDICTED BY RF-SCORE:    0.00 PKD
ROOT
ATOM      1  C5M   T A   1     -10.470   7.331  73.521  1.00  0.00    -0.421 C  
ATOM      2  C5    T A   1     -10.516   7.595  72.052  1.00  0.00    -0.258 C  
ATOM      3  C6    T A   1      -9.795   6.938  71.137  1.00  0.00    -0.177 C  
ATOM      4  N1    T A   1      -9.828   7.239  69.778  1.00  0.00    -0.176 N  
ATOM      5  O4    T A   1     -11.994   9.420  72.362  1.00  0.00    -0.171 OA 
ATOM      6  C2    T A   1     -10.555   8.341  69.339  1.00  0.00    -0.196 C  
ATOM      7  O2    T A   1     -10.427   8.879  68.243  1.00  0.00    -0.215 OA 
ATOM      8  H3    T A   1     -12.217   9.420  69.862  1.00  0.00     0.000 HD 
ATOM      9  N3    T A   1     -11.450   8.861  70.234  1.00  0.00    -0.171 N  
ATOM     10  C4    T A   1     -11.393   8.689  71.584  1.00  0.00    -0.307 C  
ENDROOT
BRANCH   4  11
ATOM     11  C1*   T A   1      -8.837   6.607  68.889  1.00  0.00    -0.131 C  
ATOM     12  C2*   T A   1      -7.875   5.576  69.476  1.00  0.00    -0.087 C  
ATOM     13  C3*   T A   1      -6.766   6.438  70.023  1.00  0.00    -0.053 C  
ATOM     14  C4*   T A   1      -6.650   7.492  68.931  1.00  0.00    -0.048 C  
ATOM     15  O3*   T A   1      -5.557   5.722  70.221  1.00  0.00    -0.011 OA 
ATOM     16  H3*   T A   1      -4.858   6.265  70.566  1.00  0.00     0.000 HD 
ATOM     17  O4*   T A   1      -7.970   7.646  68.359  1.00  0.00    -0.119 OA 
BRANCH  14  18
ATOM     18  C5*   T A   1      -6.132   8.837  69.440  1.00  0.00    -0.041 C  
ATOM     19  O5*   T A   1      -6.741   9.196  70.679  1.00  0.00    -0.057 OA 
ATOM     20  H5*   T A   1      -6.419  10.033  70.995  1.00  0.00     0.000 HD 
ENDBRANCH  14  18
ENDBRANCH   4  11
TORSDOF 2
ENDMDL
MODEL      227
REMARK 921   NORMALIZED FREE ENERGY PREDICTED BY IDOCK:   -1.95 KCAL/MOL
REMARK 922        TOTAL FREE ENERGY PREDICTED BY IDOCK:   -2.50 KCAL/MOL
REMARK 923 INTER-LIGAND FREE ENERGY PREDICTED BY IDOCK:   -2.61 KCAL/MOL
REMARK 924 INTRA-LIGAND FREE ENERGY PREDICTED BY IDOCK:    0.11 KCAL/MOL
REMARK 927      BINDING AFFINITY PREDICTED BY RF-SCORE:    0.00 PKD
ROOT
ATOM      1  C5M   T A   1      -5.549   6.183  69.782  1.00  0.00    -0.013 C  
ATOM      2  C5    T A   1      -6.647   5.224  69.458  1.00  0.00    -0.043 C  
ATOM      3  C6    T A   1      -7.877   5.576  69.067  1.00  0.00    -0.091 C  
ATOM      4  N1    T A   1      -8.890   4.656  68.815  1.00  0.00    -0.097 N  
ATOM      5  O4    T A   1      -5.305   3.376  70.090  1.00  0.00    -0.007 OA 
ATOM      6  C2    T A   1      -8.673   3.308  69.079  1.00  0.00    -0.089 C  
ATOM      7  O2    T A   1      -9.553   2.459  69.186  1.00  0.00    -0.114 OA 
ATOM      8  H3    T A   1      -7.132   1.956  69.119  1.00  0.00     0.000 HD 
ATOM      9  N3    T A   1      -7.368   2.938  69.262  1.00  0.00    -0.044 N  
ATOM     10  C4    T A   1      -6.361   3.782  69.621  1.00  0.00    -0.029 C  
ENDROOT
BRANCH   4  11
ATOM     11  C1*   T A   1     -10.261   5.155  68.606  1.00  0.00    -0.122 C  
ATOM     12  C2*   T A   1     -10.458   6.473  67.860  1.00  0.00    -0.273 C  
ATOM     13  C3*   T A   1     -10.304   7.495  68.957  1.00  0.00    -0.212 C  
ATOM     14  C4*   T A   1     -11.036   6.807  70.101  1.00  0.00    -0.315 C  
ATOM     15  O3*   T A   1     -10.873   8.753  68.625  1.00  0.00    -0.415 OA 
ATOM     16  H3*   T A   1     -10.775   9.396  69.316  1.00  0.00     0.000 HD 
ATOM     17  O4*   T A   1     -10.869   5.383  69.906  1.00  0.00    -0.298 OA 
BRANCH  14  18
ATOM     18  C5*   T A   1     -10.523   7.216  71.482  1.00  0.00    -0.203 C  
ATOM     19  O5*   T A   1     -11.081   6.400  72.510  1.00  0.00    -0.242 OA 
ATOM     20  H5*   T A   1     -10.762   6.654  73.368  1.00  0.00     0.000 HD 
ENDBRANCH  14  18
ENDBRANCH   4  11
TORSDOF 2
ENDMDL
MODEL      228
REMARK 921   NORMALIZED FREE ENERGY PREDICTED BY IDOCK:   -1.93 KCAL/MOL
REMARK 922        TOTAL FREE ENERGY PREDICTED BY IDOCK:   -2.48 KCAL/MOL
REMARK 923 INTER-LIGAND FREE ENERGY PREDICTED BY IDOCK:   -2.27 KCAL/MOL
REMARK 924 INTRA-LIGAND FREE ENERGY PREDICTED BY IDOCK:   -0.21 KCAL/MOL
REMARK 927      BINDING AFFINITY PREDICTED BY RF-SCORE:    0.00 PKD
ROOT
ATOM      1  C5M   T A   1      -8.467   5.563  67.173  1.00  0.00    -0.110 C  
ATOM      2  C5    T A   1      -8.749   6.683  68.120  1.00  0.00    -0.117 C  
ATOM      3  C6    T A   1      -8.165   7.885  68.075  1.00  0.00    -0.127 C  
ATOM      4  N1    T A   1      -8.418   8.892  69.001  1.00  0.00    -0.131 N  
ATOM      5  O4    T A   1     -10.204   5.318  69.398  1.00  0.00    -0.223 OA 
ATOM      6  C2    T A   1      -9.232   8.625  70.098  1.00  0.00    -0.159 C  
ATOM      7  O2    T A   1      -9.290   9.308  71.116  1.00  0.00    -0.254 OA 
ATOM      8  H3    T A   1     -10.817   7.430  70.608  1.00  0.00     0.000 HD 
ATOM      9  N3    T A   1      -9.987   7.487  70.018  1.00  0.00    -0.184 N  
ATOM     10  C4    T A   1      -9.715   6.425  69.209  1.00  0.00    -0.136 C  
ENDROOT
BRANCH   4  11
ATOM     11  C1*   T A   1      -7.563  10.093  68.993  1.00  0.00    -0.096 C  
ATOM     12  C2*   T A   1      -8.228  11.468  68.992  1.00  0.00     0.061 C  
ATOM     13  C3*   T A   1      -8.491  11.703  67.527  1.00  0.00    -0.150 C  
ATOM     14  C4*   T A   1      -7.218  11.142  66.908  1.00  0.00    -0.138 C  
ATOM     15  O3*   T A   1      -8.692  13.073  67.213  1.00  0.00    -0.192 OA 
ATOM     16  H3*   T A   1      -8.858  13.220  66.290  1.00  0.00     0.000 HD 
ATOM     17  O4*   T A   1      -6.766  10.078  67.778  1.00  0.00    -0.070 OA 
BRANCH  14  18
ATOM     18  C5*   T A   1      -7.415  10.616  65.486  1.00  0.00    -0.063 C  
ATOM     19  O5*   T A   1      -6.168  10.427  64.821  1.00  0.00    -0.183 OA 
ATOM     20  H5*   T A   1      -6.290  10.100  63.937  1.00  0.00     0.000 HD 
ENDBRANCH  14  18
ENDBRANCH   4  11
TORSDOF 2
ENDMDL
MODEL      229
REMARK 921   NORMALIZED FREE ENERGY PREDICTED BY IDOCK:   -1.91 KCAL/MOL
REMARK 922        TOTAL FREE ENERGY PREDICTED BY IDOCK:   -2.46 KCAL/MOL
REMARK 923 INTER-LIGAND FREE ENERGY PREDICTED BY IDOCK:   -2.51 KCAL/MOL
REMARK 924 INTRA-LIGAND FREE ENERGY PREDICTED BY IDOCK:    0.05 KCAL/MOL
REMARK 927      BINDING AFFINITY PREDICTED BY RF-SCORE:    0.00 PKD
ROOT
ATOM      1  C5M   T A   1      -6.528   5.264  67.264  1.00  0.00    -0.052 C  
ATOM      2  C5    T A   1      -7.753   6.108  67.125  1.00  0.00    -0.101 C  
ATOM      3  C6    T A   1      -7.932   7.043  66.186  1.00  0.00    -0.110 C  
ATOM      4  N1    T A   1      -9.069   7.842  66.112  1.00  0.00    -0.177 N  
ATOM      5  O4    T A   1      -8.694   5.174  69.088  1.00  0.00    -0.092 OA 
ATOM      6  C2    T A   1     -10.031   7.760  67.114  1.00  0.00    -0.230 C  
ATOM      7  O2    T A   1     -10.904   8.597  67.324  1.00  0.00    -0.217 OA 
ATOM      8  H3    T A   1     -10.791   6.389  68.435  1.00  0.00     0.000 HD 
ATOM      9  N3    T A   1      -9.948   6.666  67.932  1.00  0.00    -0.127 N  
ATOM     10  C4    T A   1      -8.826   5.919  68.125  1.00  0.00    -0.110 C  
ENDROOT
BRANCH   4  11
ATOM     11  C1*   T A   1      -9.071   8.985  65.181  1.00  0.00    -0.143 C  
ATOM     12  C2*   T A   1      -7.802   9.289  64.388  1.00  0.00    -0.123 C  
ATOM     13  C3*   T A   1      -7.009  10.135  65.350  1.00  0.00    -0.139 C  
ATOM     14  C4*   T A   1      -8.110  10.995  65.956  1.00  0.00    -0.110 C  
ATOM     15  O3*   T A   1      -6.005  10.906  64.710  1.00  0.00    -0.372 OA 
ATOM     16  H3*   T A   1      -5.505  11.440  65.318  1.00  0.00     0.000 HD 
ATOM     17  O4*   T A   1      -9.316  10.197  65.944  1.00  0.00    -0.157 OA 
BRANCH  14  18
ATOM     18  C5*   T A   1      -7.799  11.464  67.377  1.00  0.00    -0.135 C  
ATOM     19  O5*   T A   1      -6.570  12.186  67.433  1.00  0.00    -0.117 OA 
ATOM     20  H5*   T A   1      -6.376  12.477  68.317  1.00  0.00     0.000 HD 
ENDBRANCH  14  18
ENDBRANCH   4  11
TORSDOF 2
ENDMDL
MODEL      230
REMARK 921   NORMALIZED FREE ENERGY PREDICTED BY IDOCK:   -1.89 KCAL/MOL
REMARK 922        TOTAL FREE ENERGY PREDICTED BY IDOCK:   -2.44 KCAL/MOL
REMARK 923 INTER-LIGAND FREE ENERGY PREDICTED BY IDOCK:   -2.37 KCAL/MOL
REMARK 924 INTRA-LIGAND FREE ENERGY PREDICTED BY IDOCK:   -0.06 KCAL/MOL
REMARK 927      BINDING AFFINITY PREDICTED BY RF-SCORE:    0.00 PKD
ROOT
ATOM      1  C5M   T A   1      -8.067   3.207  68.846  1.00  0.00    -0.072 C  
ATOM      2  C5    T A   1      -8.041   4.233  69.930  1.00  0.00    -0.061 C  
ATOM      3  C6    T A   1      -8.718   5.386  69.905  1.00  0.00    -0.121 C  
ATOM      4  N1    T A   1      -8.637   6.341  70.914  1.00  0.00    -0.134 N  
ATOM      5  O4    T A   1      -6.425   2.998  71.146  1.00  0.00    -0.018 OA 
ATOM      6  C2    T A   1      -7.734   6.161  71.957  1.00  0.00    -0.097 C  
ATOM      7  O2    T A   1      -7.357   7.042  72.724  1.00  0.00    -0.077 OA 
ATOM      8  H3    T A   1      -6.841   4.639  73.000  1.00  0.00     0.000 HD 
ATOM      9  N3    T A   1      -7.219   4.900  72.089  1.00  0.00    -0.078 N  
ATOM     10  C4    T A   1      -7.172   3.969  71.097  1.00  0.00    -0.033 C  
ENDROOT
BRANCH   4  11
ATOM     11  C1*   T A   1      -9.246   7.664  70.686  1.00  0.00    -0.162 C  
ATOM     12  C2*   T A   1      -9.599   8.529  71.895  1.00  0.00    -0.353 C  
ATOM     13  C3*   T A   1     -10.965   8.018  72.273  1.00  0.00    -0.314 C  
ATOM     14  C4*   T A   1     -11.591   7.812  70.901  1.00  0.00    -0.274 C  
ATOM     15  O3*   T A   1     -11.696   8.935  73.073  1.00  0.00     0.300 OA 
ATOM     16  H3*   T A   1     -12.557   8.613  73.311  1.00  0.00     0.000 HD 
ATOM     17  O4*   T A   1     -10.511   7.473  69.998  1.00  0.00    -0.217 OA 
BRANCH  14  18
ATOM     18  C5*   T A   1     -12.661   6.720  70.880  1.00  0.00    -0.137 C  
ATOM     19  O5*   T A   1     -13.526   6.815  72.010  1.00  0.00    -0.525 OA 
ATOM     20  H5*   T A   1     -14.191   6.136  71.997  1.00  0.00     0.000 HD 
ENDBRANCH  14  18
ENDBRANCH   4  11
TORSDOF 2
ENDMDL
MODEL      231
REMARK 921   NORMALIZED FREE ENERGY PREDICTED BY IDOCK:   -1.87 KCAL/MOL
REMARK 922        TOTAL FREE ENERGY PREDICTED BY IDOCK:   -2.42 KCAL/MOL
REMARK 923 INTER-LIGAND FREE ENERGY PREDICTED BY IDOCK:   -2.12 KCAL/MOL
REMARK 924 INTRA-LIGAND FREE ENERGY PREDICTED BY IDOCK:   -0.30 KCAL/MOL
REMARK 927      BINDING AFFINITY PREDICTED BY RF-SCORE:    0.00 PKD
ROOT
ATOM      1  C5M   T A   1      -9.068   2.900  67.910  1.00  0.00    -0.224 C  
ATOM      2  C5    T A   1      -8.489   3.610  69.089  1.00  0.00    -0.098 C  
ATOM      3  C6    T A   1      -8.396   4.939  69.209  1.00  0.00    -0.084 C  
ATOM      4  N1    T A   1      -7.810   5.568  70.304  1.00  0.00    -0.091 N  
ATOM      5  O4    T A   1      -7.876   1.558  70.102  1.00  0.00    -0.042 OA 
ATOM      6  C2    T A   1      -7.187   4.800  71.282  1.00  0.00    -0.056 C  
ATOM      7  O2    T A   1      -6.393   5.227  72.115  1.00  0.00    -0.036 OA 
ATOM      8  H3    T A   1      -7.330   2.938  72.127  1.00  0.00     0.000 HD 
ATOM      9  N3    T A   1      -7.476   3.462  71.265  1.00  0.00    -0.036 N  
ATOM     10  C4    T A   1      -7.943   2.779  70.183  1.00  0.00    -0.042 C  
ENDROOT
BRANCH   4  11
ATOM     11  C1*   T A   1      -7.561   7.019  70.236  1.00  0.00    -0.087 C  
ATOM     12  C2*   T A   1      -7.936   7.886  71.437  1.00  0.00    -0.099 C  
ATOM     13  C3*   T A   1      -9.395   8.172  71.190  1.00  0.00    -0.154 C  
ATOM     14  C4*   T A   1      -9.398   8.393  69.684  1.00  0.00    -0.161 C  
ATOM     15  O3*   T A   1      -9.865   9.303  71.908  1.00  0.00    -0.235 OA 
ATOM     16  H3*   T A   1     -10.784   9.483  71.752  1.00  0.00     0.000 HD 
ATOM     17  O4*   T A   1      -8.342   7.567  69.140  1.00  0.00    -0.131 OA 
BRANCH  14  18
ATOM     18  C5*   T A   1     -10.733   8.048  69.024  1.00  0.00    -0.088 C  
ATOM     19  O5*   T A   1     -11.387   6.974  69.698  1.00  0.00    -0.456 OA 
ATOM     20  H5*   T A   1     -12.217   6.759  69.287  1.00  0.00     0.000 HD 
ENDBRANCH  14  18
ENDBRANCH   4  11
TORSDOF 2
ENDMDL
MODEL      232
REMARK 921   NORMALIZED FREE ENERGY PREDICTED BY IDOCK:   -1.85 KCAL/MOL
REMARK 922        TOTAL FREE ENERGY PREDICTED BY IDOCK:   -2.39 KCAL/MOL
REMARK 923 INTER-LIGAND FREE ENERGY PREDICTED BY IDOCK:   -2.62 KCAL/MOL
REMARK 924 INTRA-LIGAND FREE ENERGY PREDICTED BY IDOCK:    0.23 KCAL/MOL
REMARK 927      BINDING AFFINITY PREDICTED BY RF-SCORE:    0.00 PKD
ROOT
ATOM      1  C5M   T A   1      -9.796   8.009  71.935  1.00  0.00    -0.251 C  
ATOM      2  C5    T A   1      -9.298   8.054  70.527  1.00  0.00    -0.155 C  
ATOM      3  C6    T A   1      -8.180   8.673  70.134  1.00  0.00    -0.123 C  
ATOM      4  N1    T A   1      -7.768   8.733  68.806  1.00  0.00    -0.095 N  
ATOM      5  O4    T A   1     -11.224   6.918  69.743  1.00  0.00    -0.283 OA 
ATOM      6  C2    T A   1      -8.595   8.228  67.808  1.00  0.00    -0.131 C  
ATOM      7  O2    T A   1      -8.494   8.483  66.612  1.00  0.00    -0.109 OA 
ATOM      8  H3    T A   1     -10.013   6.771  67.550  1.00  0.00     0.000 HD 
ATOM      9  N3    T A   1      -9.611   7.415  68.230  1.00  0.00    -0.149 N  
ATOM     10  C4    T A   1     -10.126   7.400  69.491  1.00  0.00    -0.187 C  
ENDROOT
BRANCH   4  11
ATOM     11  C1*   T A   1      -6.646   9.622  68.453  1.00  0.00    -0.053 C  
ATOM     12  C2*   T A   1      -6.199  10.678  69.463  1.00  0.00    -0.059 C  
ATOM     13  C3*   T A   1      -7.135  11.822  69.175  1.00  0.00    -0.071 C  
ATOM     14  C4*   T A   1      -7.198  11.772  67.655  1.00  0.00    -0.111 C  
ATOM     15  O3*   T A   1      -6.653  13.066  69.660  1.00  0.00    -0.267 OA 
ATOM     16  H3*   T A   1      -7.244  13.788  69.478  1.00  0.00     0.000 HD 
ATOM     17  O4*   T A   1      -7.020  10.387  67.276  1.00  0.00    -0.083 OA 
BRANCH  14  18
ATOM     18  C5*   T A   1      -8.509  12.313  67.084  1.00  0.00    -0.184 C  
ATOM     19  O5*   T A   1      -8.497  13.738  67.007  1.00  0.00    -0.312 OA 
ATOM     20  H5*   T A   1      -9.312  14.075  66.653  1.00  0.00     0.000 HD 
ENDBRANCH  14  18
ENDBRANCH   4  11
TORSDOF 2
ENDMDL
MODEL      233
REMARK 921   NORMALIZED FREE ENERGY PREDICTED BY IDOCK:   -1.85 KCAL/MOL
REMARK 922        TOTAL FREE ENERGY PREDICTED BY IDOCK:   -2.38 KCAL/MOL
REMARK 923 INTER-LIGAND FREE ENERGY PREDICTED BY IDOCK:   -2.15 KCAL/MOL
REMARK 924 INTRA-LIGAND FREE ENERGY PREDICTED BY IDOCK:   -0.23 KCAL/MOL
REMARK 927      BINDING AFFINITY PREDICTED BY RF-SCORE:    0.00 PKD
ROOT
ATOM      1  C5M   T A   1      -6.867   7.975  72.489  1.00  0.00    -0.088 C  
ATOM      2  C5    T A   1      -7.366   7.946  71.082  1.00  0.00    -0.063 C  
ATOM      3  C6    T A   1      -7.550   9.027  70.316  1.00  0.00    -0.087 C  
ATOM      4  N1    T A   1      -8.059   8.968  69.022  1.00  0.00    -0.105 N  
ATOM      5  O4    T A   1      -7.701   5.603  71.182  1.00  0.00    -0.099 OA 
ATOM      6  C2    T A   1      -8.509   7.752  68.518  1.00  0.00    -0.129 C  
ATOM      7  O2    T A   1      -9.237   7.620  67.538  1.00  0.00    -0.131 OA 
ATOM      8  H3    T A   1      -8.127   5.747  68.713  1.00  0.00     0.000 HD 
ATOM      9  N3    T A   1      -8.119   6.638  69.210  1.00  0.00    -0.115 N  
ATOM     10  C4    T A   1      -7.721   6.628  70.512  1.00  0.00    -0.104 C  
ENDROOT
BRANCH   4  11
ATOM     11  C1*   T A   1      -8.428  10.227  68.349  1.00  0.00    -0.124 C  
ATOM     12  C2*   T A   1      -7.990  10.442  66.902  1.00  0.00    -0.114 C  
ATOM     13  C3*   T A   1      -6.595  10.990  67.060  1.00  0.00    -0.100 C  
ATOM     14  C4*   T A   1      -6.779  11.911  68.258  1.00  0.00    -0.063 C  
ATOM     15  O3*   T A   1      -6.138  11.680  65.907  1.00  0.00    -0.463 OA 
ATOM     16  H3*   T A   1      -5.259  12.025  66.008  1.00  0.00     0.000 HD 
ATOM     17  O4*   T A   1      -7.821  11.329  69.076  1.00  0.00    -0.135 OA 
BRANCH  14  18
ATOM     18  C5*   T A   1      -5.503  12.098  69.080  1.00  0.00    -0.064 C  
ATOM     19  O5*   T A   1      -5.790  12.194  70.475  1.00  0.00    -0.167 OA 
ATOM     20  H5*   T A   1      -4.997  12.311  70.986  1.00  0.00     0.000 HD 
ENDBRANCH  14  18
ENDBRANCH   4  11
TORSDOF 2
ENDMDL
MODEL      234
REMARK 921   NORMALIZED FREE ENERGY PREDICTED BY IDOCK:   -1.84 KCAL/MOL
REMARK 922        TOTAL FREE ENERGY PREDICTED BY IDOCK:   -2.38 KCAL/MOL
REMARK 923 INTER-LIGAND FREE ENERGY PREDICTED BY IDOCK:   -2.51 KCAL/MOL
REMARK 924 INTRA-LIGAND FREE ENERGY PREDICTED BY IDOCK:    0.12 KCAL/MOL
REMARK 927      BINDING AFFINITY PREDICTED BY RF-SCORE:    0.00 PKD
ROOT
ATOM      1  C5M   T A   1      -9.272   7.431  71.319  1.00  0.00    -0.153 C  
ATOM      2  C5    T A   1      -9.781   6.771  70.080  1.00  0.00    -0.170 C  
ATOM      3  C6    T A   1      -9.592   5.484  69.768  1.00  0.00    -0.163 C  
ATOM      4  N1    T A   1     -10.043   4.911  68.583  1.00  0.00    -0.128 N  
ATOM      5  O4    T A   1     -10.625   8.826  69.257  1.00  0.00    -0.225 OA 
ATOM      6  C2    T A   1     -10.626   5.718  67.611  1.00  0.00    -0.239 C  
ATOM      7  O2    T A   1     -10.784   5.403  66.435  1.00  0.00    -0.297 OA 
ATOM      8  H3    T A   1     -11.720   7.445  67.470  1.00  0.00     0.000 HD 
ATOM      9  N3    T A   1     -11.009   6.966  68.021  1.00  0.00    -0.198 N  
ATOM     10  C4    T A   1     -10.513   7.615  69.111  1.00  0.00    -0.214 C  
ENDROOT
BRANCH   4  11
ATOM     11  C1*   T A   1      -9.594   3.550  68.239  1.00  0.00    -0.095 C  
ATOM     12  C2*   T A   1      -8.311   3.018  68.875  1.00  0.00    -0.083 C  
ATOM     13  C3*   T A   1      -7.244   3.552  67.955  1.00  0.00    -0.051 C  
ATOM     14  C4*   T A   1      -7.909   3.365  66.598  1.00  0.00    -0.081 C  
ATOM     15  O3*   T A   1      -6.017   2.846  68.062  1.00  0.00    -0.023 OA 
ATOM     16  H3*   T A   1      -5.345   3.183  67.482  1.00  0.00     0.000 HD 
ATOM     17  O4*   T A   1      -9.334   3.501  66.811  1.00  0.00    -0.175 OA 
BRANCH  14  18
ATOM     18  C5*   T A   1      -7.432   4.368  65.547  1.00  0.00    -0.081 C  
ATOM     19  O5*   T A   1      -8.524   4.895  64.794  1.00  0.00    -0.132 OA 
ATOM     20  H5*   T A   1      -8.228   5.517  64.141  1.00  0.00     0.000 HD 
ENDBRANCH  14  18
ENDBRANCH   4  11
TORSDOF 2
ENDMDL
MODEL      235
REMARK 921   NORMALIZED FREE ENERGY PREDICTED BY IDOCK:   -1.82 KCAL/MOL
REMARK 922        TOTAL FREE ENERGY PREDICTED BY IDOCK:   -2.35 KCAL/MOL
REMARK 923 INTER-LIGAND FREE ENERGY PREDICTED BY IDOCK:   -2.40 KCAL/MOL
REMARK 924 INTRA-LIGAND FREE ENERGY PREDICTED BY IDOCK:    0.05 KCAL/MOL
REMARK 927      BINDING AFFINITY PREDICTED BY RF-SCORE:    0.00 PKD
ROOT
ATOM      1  C5M   T A   1      -8.758  19.968  66.616  1.00  0.00    -0.397 C  
ATOM      2  C5    T A   1      -7.828  19.177  67.477  1.00  0.00    -0.272 C  
ATOM      3  C6    T A   1      -8.168  18.075  68.155  1.00  0.00    -0.271 C  
ATOM      4  N1    T A   1      -7.288  17.387  68.984  1.00  0.00    -0.237 N  
ATOM      5  O4    T A   1      -6.082  20.741  67.135  1.00  0.00    -0.203 OA 
ATOM      6  C2    T A   1      -6.021  17.910  69.222  1.00  0.00    -0.229 C  
ATOM      7  O2    T A   1      -5.280  17.574  70.141  1.00  0.00    -0.184 OA 
ATOM      8  H3    T A   1      -4.610  19.063  68.284  1.00  0.00     0.000 HD 
ATOM      9  N3    T A   1      -5.612  18.898  68.368  1.00  0.00    -0.194 N  
ATOM     10  C4    T A   1      -6.444  19.676  67.620  1.00  0.00    -0.213 C  
ENDROOT
BRANCH   4  11
ATOM     11  C1*   T A   1      -7.820  16.321  69.851  1.00  0.00     0.703 C  
ATOM     12  C2*   T A   1      -6.869  15.233  70.347  1.00  0.00     0.204 C  
ATOM     13  C3*   T A   1      -6.880  14.246  69.208  1.00  0.00    -0.124 C  
ATOM     14  C4*   T A   1      -8.351  14.268  68.817  1.00  0.00    -0.095 C  
ATOM     15  O3*   T A   1      -6.438  12.954  69.592  1.00  0.00    -0.220 OA 
ATOM     16  H3*   T A   1      -6.445  12.332  68.873  1.00  0.00     0.000 HD 
ATOM     17  O4*   T A   1      -8.841  15.597  69.113  1.00  0.00    -0.216 OA 
BRANCH  14  18
ATOM     18  C5*   T A   1      -8.593  13.931  67.346  1.00  0.00    -0.200 C  
ATOM     19  O5*   T A   1      -9.033  15.073  66.613  1.00  0.00    -0.254 OA 
ATOM     20  H5*   T A   1      -9.183  14.863  65.698  1.00  0.00     0.000 HD 
ENDBRANCH  14  18
ENDBRANCH   4  11
TORSDOF 2
ENDMDL
MODEL      236
REMARK 921   NORMALIZED FREE ENERGY PREDICTED BY IDOCK:   -1.79 KCAL/MOL
REMARK 922        TOTAL FREE ENERGY PREDICTED BY IDOCK:   -2.33 KCAL/MOL
REMARK 923 INTER-LIGAND FREE ENERGY PREDICTED BY IDOCK:   -2.96 KCAL/MOL
REMARK 924 INTRA-LIGAND FREE ENERGY PREDICTED BY IDOCK:    0.64 KCAL/MOL
REMARK 927      BINDING AFFINITY PREDICTED BY RF-SCORE:    0.00 PKD
ROOT
ATOM      1  C5M   T A   1      -9.933   7.646  72.618  1.00  0.00    -0.279 C  
ATOM      2  C5    T A   1      -9.842   7.930  71.154  1.00  0.00    -0.190 C  
ATOM      3  C6    T A   1      -9.302   9.033  70.624  1.00  0.00    -0.234 C  
ATOM      4  N1    T A   1      -9.272   9.287  69.256  1.00  0.00    -0.148 N  
ATOM      5  O4    T A   1     -11.049   5.959  70.633  1.00  0.00    -0.301 OA 
ATOM      6  C2    T A   1      -9.925   8.420  68.384  1.00  0.00    -0.187 C  
ATOM      7  O2    T A   1     -10.226   8.681  67.223  1.00  0.00    -0.221 OA 
ATOM      8  H3    T A   1     -10.433   6.439  68.247  1.00  0.00     0.000 HD 
ATOM      9  N3    T A   1     -10.275   7.203  68.903  1.00  0.00    -0.181 N  
ATOM     10  C4    T A   1     -10.428   6.936  70.230  1.00  0.00    -0.204 C  
ENDROOT
BRANCH   4  11
ATOM     11  C1*   T A   1      -8.857  10.623  68.793  1.00  0.00    -0.161 C  
ATOM     12  C2*   T A   1      -8.978  10.957  67.307  1.00  0.00    -0.139 C  
ATOM     13  C3*   T A   1      -7.690  10.413  66.745  1.00  0.00    -0.114 C  
ATOM     14  C4*   T A   1      -6.707  10.802  67.840  1.00  0.00    -0.064 C  
ATOM     15  O3*   T A   1      -7.355  10.978  65.486  1.00  0.00    -0.361 OA 
ATOM     16  H3*   T A   1      -6.543  10.635  65.132  1.00  0.00     0.000 HD 
ATOM     17  O4*   T A   1      -7.444  10.790  69.085  1.00  0.00    -0.103 OA 
BRANCH  14  18
ATOM     18  C5*   T A   1      -5.500   9.868  67.929  1.00  0.00    -0.039 C  
ATOM     19  O5*   T A   1      -5.407   9.022  66.785  1.00  0.00    -0.038 OA 
ATOM     20  H5*   T A   1      -4.657   8.441  66.841  1.00  0.00     0.000 HD 
ENDBRANCH  14  18
ENDBRANCH   4  11
TORSDOF 2
ENDMDL
MODEL      237
REMARK 921   NORMALIZED FREE ENERGY PREDICTED BY IDOCK:   -1.75 KCAL/MOL
REMARK 922        TOTAL FREE ENERGY PREDICTED BY IDOCK:   -2.27 KCAL/MOL
REMARK 923 INTER-LIGAND FREE ENERGY PREDICTED BY IDOCK:   -1.92 KCAL/MOL
REMARK 924 INTRA-LIGAND FREE ENERGY PREDICTED BY IDOCK:   -0.36 KCAL/MOL
REMARK 927      BINDING AFFINITY PREDICTED BY RF-SCORE:    0.00 PKD
ROOT
ATOM      1  C5M   T A   1      -7.799   6.046  65.065  1.00  0.00    -0.108 C  
ATOM      2  C5    T A   1      -8.367   6.285  66.426  1.00  0.00    -0.118 C  
ATOM      3  C6    T A   1      -8.620   5.329  67.326  1.00  0.00    -0.105 C  
ATOM      4  N1    T A   1      -9.191   5.583  68.569  1.00  0.00    -0.117 N  
ATOM      5  O4    T A   1      -8.627   8.597  65.978  1.00  0.00    -0.137 OA 
ATOM      6  C2    T A   1      -9.629   6.868  68.872  1.00  0.00    -0.139 C  
ATOM      7  O2    T A   1     -10.401   7.153  69.783  1.00  0.00    -0.202 OA 
ATOM      8  H3    T A   1      -9.180   8.815  68.417  1.00  0.00     0.000 HD 
ATOM      9  N3    T A   1      -9.173   7.863  68.051  1.00  0.00    -0.132 N  
ATOM     10  C4    T A   1      -8.711   7.678  66.784  1.00  0.00    -0.133 C  
ENDROOT
BRANCH   4  11
ATOM     11  C1*   T A   1      -9.629   4.441  69.393  1.00  0.00    -0.199 C  
ATOM     12  C2*   T A   1      -9.365   4.476  70.897  1.00  0.00    -0.219 C  
ATOM     13  C3*   T A   1      -7.958   3.945  70.994  1.00  0.00    -0.063 C  
ATOM     14  C4*   T A   1      -7.991   2.837  69.951  1.00  0.00    -0.042 C  
ATOM     15  O3*   T A   1      -7.637   3.464  72.290  1.00  0.00    -0.055 OA 
ATOM     16  H3*   T A   1      -6.750   3.130  72.351  1.00  0.00     0.000 HD 
ATOM     17  O4*   T A   1      -8.933   3.252  68.933  1.00  0.00    -0.103 OA 
BRANCH  14  18
ATOM     18  C5*   T A   1      -6.626   2.552  69.325  1.00  0.00    -0.033 C  
ATOM     19  O5*   T A   1      -5.575   3.184  70.055  1.00  0.00    -0.015 OA 
ATOM     20  H5*   T A   1      -4.726   3.007  69.666  1.00  0.00     0.000 HD 
ENDBRANCH  14  18
ENDBRANCH   4  11
TORSDOF 2
ENDMDL
MODEL      238
REMARK 921   NORMALIZED FREE ENERGY PREDICTED BY IDOCK:   -1.73 KCAL/MOL
REMARK 922        TOTAL FREE ENERGY PREDICTED BY IDOCK:   -2.25 KCAL/MOL
REMARK 923 INTER-LIGAND FREE ENERGY PREDICTED BY IDOCK:   -2.37 KCAL/MOL
REMARK 924 INTRA-LIGAND FREE ENERGY PREDICTED BY IDOCK:    0.12 KCAL/MOL
REMARK 927      BINDING AFFINITY PREDICTED BY RF-SCORE:    0.00 PKD
ROOT
ATOM      1  C5M   T A   1      -9.123   3.575  65.983  1.00  0.00    -0.155 C  
ATOM      2  C5    T A   1      -9.027   4.469  67.175  1.00  0.00    -0.122 C  
ATOM      3  C6    T A   1      -8.573   5.728  67.150  1.00  0.00    -0.109 C  
ATOM      4  N1    T A   1      -8.455   6.520  68.288  1.00  0.00    -0.116 N  
ATOM      5  O4    T A   1      -9.737   2.729  68.617  1.00  0.00    -0.085 OA 
ATOM      6  C2    T A   1      -8.713   5.965  69.538  1.00  0.00    -0.116 C  
ATOM      7  O2    T A   1      -8.364   6.450  70.611  1.00  0.00    -0.129 OA 
ATOM      8  H3    T A   1      -9.874   4.504  70.385  1.00  0.00     0.000 HD 
ATOM      9  N3    T A   1      -9.377   4.769  69.535  1.00  0.00    -0.120 N  
ATOM     10  C4    T A   1      -9.426   3.906  68.483  1.00  0.00    -0.148 C  
ENDROOT
BRANCH   4  11
ATOM     11  C1*   T A   1      -7.741   7.805  68.185  1.00  0.00    -0.119 C  
ATOM     12  C2*   T A   1      -7.989   8.871  69.250  1.00  0.00    -0.104 C  
ATOM     13  C3*   T A   1      -9.221   9.568  68.735  1.00  0.00    -0.140 C  
ATOM     14  C4*   T A   1      -8.927   9.612  67.242  1.00  0.00    -0.134 C  
ATOM     15  O3*   T A   1      -9.399  10.861  69.294  1.00  0.00    -0.377 OA 
ATOM     16  H3*   T A   1     -10.176  11.300  68.968  1.00  0.00     0.000 HD 
ATOM     17  O4*   T A   1      -8.128   8.445  66.940  1.00  0.00    -0.098 OA 
BRANCH  14  18
ATOM     18  C5*   T A   1     -10.188   9.630  66.376  1.00  0.00    -0.217 C  
ATOM     19  O5*   T A   1     -10.120   8.657  65.335  1.00  0.00    -0.076 OA 
ATOM     20  H5*   T A   1     -10.904   8.668  64.797  1.00  0.00     0.000 HD 
ENDBRANCH  14  18
ENDBRANCH   4  11
TORSDOF 2
ENDMDL
MODEL      239
REMARK 921   NORMALIZED FREE ENERGY PREDICTED BY IDOCK:   -1.71 KCAL/MOL
REMARK 922        TOTAL FREE ENERGY PREDICTED BY IDOCK:   -2.23 KCAL/MOL
REMARK 923 INTER-LIGAND FREE ENERGY PREDICTED BY IDOCK:   -3.75 KCAL/MOL
REMARK 924 INTRA-LIGAND FREE ENERGY PREDICTED BY IDOCK:    1.52 KCAL/MOL
REMARK 927      BINDING AFFINITY PREDICTED BY RF-SCORE:    0.00 PKD
ROOT
ATOM      1  C5M   T A   1     -10.131   9.476  65.928  1.00  0.00    -0.284 C  
ATOM      2  C5    T A   1      -9.874   8.793  67.230  1.00  0.00    -0.260 C  
ATOM      3  C6    T A   1     -10.621   8.940  68.330  1.00  0.00    -0.152 C  
ATOM      4  N1    T A   1     -10.327   8.322  69.541  1.00  0.00    -0.215 N  
ATOM      5  O4    T A   1      -7.877   7.825  66.399  1.00  0.00    -0.090 OA 
ATOM      6  C2    T A   1      -9.147   7.597  69.672  1.00  0.00    -0.147 C  
ATOM      7  O2    T A   1      -8.635   7.268  70.738  1.00  0.00    -0.141 OA 
ATOM      8  H3    T A   1      -7.866   6.484  68.521  1.00  0.00     0.000 HD 
ATOM      9  N3    T A   1      -8.513   7.272  68.503  1.00  0.00    -0.125 N  
ATOM     10  C4    T A   1      -8.682   7.921  67.317  1.00  0.00    -0.131 C  
ENDROOT
BRANCH   4  11
ATOM     11  C1*   T A   1     -11.082   8.723  70.742  1.00  0.00    -0.260 C  
ATOM     12  C2*   T A   1     -10.320   8.958  72.044  1.00  0.00    -0.378 C  
ATOM     13  C3*   T A   1     -10.228   7.570  72.624  1.00  0.00    -0.245 C  
ATOM     14  C4*   T A   1     -11.609   7.023  72.290  1.00  0.00    -0.269 C  
ATOM     15  O3*   T A   1      -9.966   7.570  74.019  1.00  0.00    -0.395 OA 
ATOM     16  H3*   T A   1      -9.908   6.695  74.384  1.00  0.00     0.000 HD 
ATOM     17  O4*   T A   1     -12.026   7.667  71.063  1.00  0.00    -0.299 OA 
BRANCH  14  18
ATOM     18  C5*   T A   1     -11.635   5.503  72.125  1.00  0.00    -0.058 C  
ATOM     19  O5*   T A   1     -11.219   4.841  73.319  1.00  0.00    -0.302 OA 
ATOM     20  H5*   T A   1     -11.234   3.896  73.216  1.00  0.00     0.000 HD 
ENDBRANCH  14  18
ENDBRANCH   4  11
TORSDOF 2
ENDMDL
MODEL      240
REMARK 921   NORMALIZED FREE ENERGY PREDICTED BY IDOCK:   -1.60 KCAL/MOL
REMARK 922        TOTAL FREE ENERGY PREDICTED BY IDOCK:   -2.11 KCAL/MOL
REMARK 923 INTER-LIGAND FREE ENERGY PREDICTED BY IDOCK:   -2.51 KCAL/MOL
REMARK 924 INTRA-LIGAND FREE ENERGY PREDICTED BY IDOCK:    0.40 KCAL/MOL
REMARK 927      BINDING AFFINITY PREDICTED BY RF-SCORE:    0.00 PKD
ROOT
ATOM      1  C5M   T A   1      -7.915  10.114  69.657  1.00  0.00    -0.181 C  
ATOM      2  C5    T A   1      -8.769   9.001  69.145  1.00  0.00    -0.135 C  
ATOM      3  C6    T A   1      -8.411   8.146  68.180  1.00  0.00    -0.129 C  
ATOM      4  N1    T A   1      -9.249   7.147  67.696  1.00  0.00    -0.126 N  
ATOM      5  O4    T A   1     -10.578   9.674  70.519  1.00  0.00    -0.262 OA 
ATOM      6  C2    T A   1     -10.565   7.081  68.142  1.00  0.00    -0.204 C  
ATOM      7  O2    T A   1     -11.468   6.460  67.588  1.00  0.00    -0.142 OA 
ATOM      8  H3    T A   1     -11.669   7.528  69.811  1.00  0.00     0.000 HD 
ATOM      9  N3    T A   1     -10.851   7.804  69.268  1.00  0.00    -0.142 N  
ATOM     10  C4    T A   1     -10.124   8.863  69.721  1.00  0.00    -0.199 C  
ENDROOT
BRANCH   4  11
ATOM     11  C1*   T A   1      -8.843   6.407  66.488  1.00  0.00    -0.136 C  
ATOM     12  C2*   T A   1      -9.653   5.182  66.069  1.00  0.00    -0.176 C  
ATOM     13  C3*   T A   1      -9.034   4.083  66.893  1.00  0.00    -0.132 C  
ATOM     14  C4*   T A   1      -7.560   4.454  66.814  1.00  0.00    -0.086 C  
ATOM     15  O3*   T A   1      -9.298   2.788  66.376  1.00  0.00    -0.317 OA 
ATOM     16  H3*   T A   1      -8.908   2.096  66.896  1.00  0.00     0.000 HD 
ATOM     17  O4*   T A   1      -7.499   5.895  66.695  1.00  0.00    -0.084 OA 
BRANCH  14  18
ATOM     18  C5*   T A   1      -6.751   3.988  68.024  1.00  0.00    -0.047 C  
ATOM     19  O5*   T A   1      -5.348   4.048  67.771  1.00  0.00    -0.014 OA 
ATOM     20  H5*   T A   1      -4.846   3.758  68.523  1.00  0.00     0.000 HD 
ENDBRANCH  14  18
ENDBRANCH   4  11
TORSDOF 2
ENDMDL
MODEL      241
REMARK 921   NORMALIZED FREE ENERGY PREDICTED BY IDOCK:   -1.56 KCAL/MOL
REMARK 922        TOTAL FREE ENERGY PREDICTED BY IDOCK:   -2.06 KCAL/MOL
REMARK 923 INTER-LIGAND FREE ENERGY PREDICTED BY IDOCK:   -2.96 KCAL/MOL
REMARK 924 INTRA-LIGAND FREE ENERGY PREDICTED BY IDOCK:    0.90 KCAL/MOL
REMARK 927      BINDING AFFINITY PREDICTED BY RF-SCORE:    0.00 PKD
ROOT
ATOM      1  C5M   T A   1      -5.324  13.651  68.892  1.00  0.00    -0.074 C  
ATOM      2  C5    T A   1      -6.723  13.364  68.455  1.00  0.00    -0.096 C  
ATOM      3  C6    T A   1      -7.707  14.269  68.404  1.00  0.00    -0.134 C  
ATOM      4  N1    T A   1      -9.012  13.959  68.033  1.00  0.00    -0.177 N  
ATOM      5  O4    T A   1      -6.246  11.055  68.227  1.00  0.00    -0.049 OA 
ATOM      6  C2    T A   1      -9.361  12.632  67.806  1.00  0.00    -0.198 C  
ATOM      7  O2    T A   1     -10.511  12.201  67.772  1.00  0.00    -0.198 OA 
ATOM      8  H3    T A   1      -8.509  10.885  67.155  1.00  0.00     0.000 HD 
ATOM      9  N3    T A   1      -8.320  11.759  67.646  1.00  0.00    -0.138 N  
ATOM     10  C4    T A   1      -7.050  11.969  68.092  1.00  0.00    -0.086 C  
ENDROOT
BRANCH   4  11
ATOM     11  C1*   T A   1     -10.061  14.976  68.222  1.00  0.00    -0.222 C  
ATOM     12  C2*   T A   1     -11.520  14.574  68.013  1.00  0.00    -0.345 C  
ATOM     13  C3*   T A   1     -11.694  14.739  66.526  1.00  0.00    -0.271 C  
ATOM     14  C4*   T A   1     -10.902  16.016  66.279  1.00  0.00    -0.166 C  
ATOM     15  O3*   T A   1     -13.054  14.858  66.138  1.00  0.00     0.179 OA 
ATOM     16  H3*   T A   1     -13.163  14.962  65.200  1.00  0.00     0.000 HD 
ATOM     17  O4*   T A   1      -9.842  16.044  67.263  1.00  0.00    -0.231 OA 
BRANCH  14  18
ATOM     18  C5*   T A   1     -10.319  16.105  64.869  1.00  0.00     0.115 C  
ATOM     19  O5*   T A   1     -10.995  17.087  64.085  1.00  0.00    -0.865 OA 
ATOM     20  H5*   T A   1     -10.633  17.142  63.208  1.00  0.00     0.000 HD 
ENDBRANCH  14  18
ENDBRANCH   4  11
TORSDOF 2
ENDMDL
MODEL      242
REMARK 921   NORMALIZED FREE ENERGY PREDICTED BY IDOCK:   -1.20 KCAL/MOL
REMARK 922        TOTAL FREE ENERGY PREDICTED BY IDOCK:   -1.67 KCAL/MOL
REMARK 923 INTER-LIGAND FREE ENERGY PREDICTED BY IDOCK:   -1.89 KCAL/MOL
REMARK 924 INTRA-LIGAND FREE ENERGY PREDICTED BY IDOCK:    0.22 KCAL/MOL
REMARK 927      BINDING AFFINITY PREDICTED BY RF-SCORE:    0.00 PKD
ROOT
ATOM      1  C5M   T A   1      -7.513   6.435  71.676  1.00  0.00    -0.093 C  
ATOM      2  C5    T A   1      -8.028   7.086  70.434  1.00  0.00    -0.113 C  
ATOM      3  C6    T A   1      -8.932   6.546  69.609  1.00  0.00    -0.141 C  
ATOM      4  N1    T A   1      -9.358   7.162  68.436  1.00  0.00    -0.136 N  
ATOM      5  O4    T A   1      -6.549   8.916  70.705  1.00  0.00    -0.043 OA 
ATOM      6  C2    T A   1      -8.752   8.345  68.024  1.00  0.00    -0.139 C  
ATOM      7  O2    T A   1      -8.819   8.814  66.892  1.00  0.00    -0.124 OA 
ATOM      8  H3    T A   1      -7.831   9.988  68.832  1.00  0.00     0.000 HD 
ATOM      9  N3    T A   1      -8.002   8.991  68.968  1.00  0.00    -0.100 N  
ATOM     10  C4    T A   1      -7.466   8.406  70.075  1.00  0.00    -0.063 C  
ENDROOT
BRANCH   4  11
ATOM     11  C1*   T A   1     -10.185   6.389  67.492  1.00  0.00    -0.170 C  
ATOM     12  C2*   T A   1     -10.161   4.864  67.572  1.00  0.00    -0.184 C  
ATOM     13  C3*   T A   1      -8.959   4.512  66.735  1.00  0.00    -0.115 C  
ATOM     14  C4*   T A   1      -9.096   5.509  65.593  1.00  0.00    -0.122 C  
ATOM     15  O3*   T A   1      -8.973   3.165  66.287  1.00  0.00    -0.136 OA 
ATOM     16  H3*   T A   1      -8.214   2.944  65.759  1.00  0.00     0.000 HD 
ATOM     17  O4*   T A   1      -9.736   6.685  66.142  1.00  0.00    -0.061 OA 
BRANCH  14  18
ATOM     18  C5*   T A   1      -7.760   5.884  64.951  1.00  0.00    -0.097 C  
ATOM     19  O5*   T A   1      -7.242   4.816  64.161  1.00  0.00    -0.049 OA 
ATOM     20  H5*   T A   1      -6.411   5.049  63.762  1.00  0.00     0.000 HD 
ENDBRANCH  14  18
ENDBRANCH   4  11
TORSDOF 2
ENDMDL
MODEL      243
REMARK 921   NORMALIZED FREE ENERGY PREDICTED BY IDOCK:   -0.49 KCAL/MOL
REMARK 922        TOTAL FREE ENERGY PREDICTED BY IDOCK:   -0.87 KCAL/MOL
REMARK 923 INTER-LIGAND FREE ENERGY PREDICTED BY IDOCK:   -1.53 KCAL/MOL
REMARK 924 INTRA-LIGAND FREE ENERGY PREDICTED BY IDOCK:    0.66 KCAL/MOL
REMARK 927      BINDING AFFINITY PREDICTED BY RF-SCORE:    0.00 PKD
ROOT
ATOM      1  C5M   T A   1     -13.139   6.873  71.909  1.00  0.00    -0.239 C  
ATOM      2  C5    T A   1     -11.716   6.621  71.531  1.00  0.00    -0.369 C  
ATOM      3  C6    T A   1     -11.073   5.461  71.707  1.00  0.00    -0.081 C  
ATOM      4  N1    T A   1      -9.733   5.274  71.383  1.00  0.00    -0.158 N  
ATOM      5  O4    T A   1     -11.427   8.879  70.873  1.00  0.00    -0.275 OA 
ATOM      6  C2    T A   1      -8.974   6.359  70.955  1.00  0.00    -0.146 C  
ATOM      7  O2    T A   1      -7.747   6.395  70.930  1.00  0.00    -0.097 OA 
ATOM      8  H3    T A   1      -9.215   8.131  69.953  1.00  0.00     0.000 HD 
ATOM      9  N3    T A   1      -9.679   7.467  70.573  1.00  0.00    -0.179 N  
ATOM     10  C4    T A   1     -10.955   7.751  70.956  1.00  0.00    -0.244 C  
ENDROOT
BRANCH   4  11
ATOM     11  C1*   T A   1      -9.066   4.034  71.820  1.00  0.00    -0.122 C  
ATOM     12  C2*   T A   1      -7.575   3.863  71.538  1.00  0.00    -0.060 C  
ATOM     13  C3*   T A   1      -7.568   3.317  70.134  1.00  0.00    -0.044 C  
ATOM     14  C4*   T A   1      -8.751   2.360  70.188  1.00  0.00    -0.065 C  
ATOM     15  O3*   T A   1      -6.353   2.663  69.801  1.00  0.00    -0.027 OA 
ATOM     16  H3*   T A   1      -6.350   2.318  68.916  1.00  0.00     0.000 HD 
ATOM     17  O4*   T A   1      -9.692   2.914  71.138  1.00  0.00    -0.156 OA 
BRANCH  14  18
ATOM     18  C5*   T A   1      -9.428   2.155  68.832  1.00  0.00    -0.100 C  
ATOM     19  O5*   T A   1     -10.344   3.209  68.541  1.00  0.00     0.837 OA 
ATOM     20  H5*   T A   1     -10.765   3.081  67.698  1.00  0.00     0.000 HD 
ENDBRANCH  14  18
ENDBRANCH   4  11
TORSDOF 2
ENDMDL
MODEL      244
REMARK 921   NORMALIZED FREE ENERGY PREDICTED BY IDOCK:   -0.33 KCAL/MOL
REMARK 922        TOTAL FREE ENERGY PREDICTED BY IDOCK:   -0.69 KCAL/MOL
REMARK 923 INTER-LIGAND FREE ENERGY PREDICTED BY IDOCK:   -0.81 KCAL/MOL
REMARK 924 INTRA-LIGAND FREE ENERGY PREDICTED BY IDOCK:    0.12 KCAL/MOL
REMARK 927      BINDING AFFINITY PREDICTED BY RF-SCORE:    0.00 PKD
ROOT
ATOM      1  C5M   T A   1      -9.050  19.823  70.919  1.00  0.00     2.104 C  
ATOM      2  C5    T A   1      -8.107  19.862  69.761  1.00  0.00     0.597 C  
ATOM      3  C6    T A   1      -8.445  19.597  68.494  1.00  0.00    -0.296 C  
ATOM      4  N1    T A   1      -7.531  19.600  67.444  1.00  0.00    -0.246 N  
ATOM      5  O4    T A   1      -6.272  20.312  71.189  1.00  0.00    -0.518 OA 
ATOM      6  C2    T A   1      -6.178  19.776  67.714  1.00  0.00    -0.205 C  
ATOM      7  O2    T A   1      -5.263  19.504  66.942  1.00  0.00    -0.162 OA 
ATOM      8  H3    T A   1      -4.971  20.712  69.080  1.00  0.00     0.000 HD 
ATOM      9  N3    T A   1      -5.876  20.258  68.958  1.00  0.00    -0.287 N  
ATOM     10  C4    T A   1      -6.691  20.177  70.046  1.00  0.00    -0.142 C  
ENDROOT
BRANCH   4  11
ATOM     11  C1*   T A   1      -7.960  19.081  66.132  1.00  0.00    -0.255 C  
ATOM     12  C2*   T A   1      -9.455  18.980  65.835  1.00  0.00     0.049 C  
ATOM     13  C3*   T A   1      -9.816  17.643  66.429  1.00  0.00    -0.309 C  
ATOM     14  C4*   T A   1      -8.601  16.813  66.039  1.00  0.00    -0.178 C  
ATOM     15  O3*   T A   1     -11.027  17.116  65.907  1.00  0.00    -0.076 OA 
ATOM     16  H3*   T A   1     -11.254  16.273  66.282  1.00  0.00     0.000 HD 
ATOM     17  O4*   T A   1      -7.474  17.719  65.998  1.00  0.00    -0.388 OA 
BRANCH  14  18
ATOM     18  C5*   T A   1      -8.320  15.661  67.003  1.00  0.00    -0.228 C  
ATOM     19  O5*   T A   1      -6.953  15.255  66.948  1.00  0.00    -0.275 OA 
ATOM     20  H5*   T A   1      -6.778  14.538  67.547  1.00  0.00     0.000 HD 
ENDBRANCH  14  18
ENDBRANCH   4  11
TORSDOF 2
ENDMDL
MODEL      245
REMARK 921   NORMALIZED FREE ENERGY PREDICTED BY IDOCK:   -0.06 KCAL/MOL
REMARK 922        TOTAL FREE ENERGY PREDICTED BY IDOCK:   -0.39 KCAL/MOL
REMARK 923 INTER-LIGAND FREE ENERGY PREDICTED BY IDOCK:   -2.69 KCAL/MOL
REMARK 924 INTRA-LIGAND FREE ENERGY PREDICTED BY IDOCK:    2.29 KCAL/MOL
REMARK 927      BINDING AFFINITY PREDICTED BY RF-SCORE:    0.00 PKD
ROOT
ATOM      1  C5M   T A   1     -10.305   7.293  72.688  1.00  0.00    -0.264 C  
ATOM      2  C5    T A   1     -10.266   7.483  71.207  1.00  0.00    -0.198 C  
ATOM      3  C6    T A   1      -9.237   8.009  70.533  1.00  0.00    -0.154 C  
ATOM      4  N1    T A   1      -9.252   8.213  69.156  1.00  0.00    -0.151 N  
ATOM      5  O4    T A   1     -12.499   6.724  70.988  1.00  0.00    -0.367 OA 
ATOM      6  C2    T A   1     -10.418   7.967  68.440  1.00  0.00    -0.163 C  
ATOM      7  O2    T A   1     -10.651   8.382  67.308  1.00  0.00    -0.302 OA 
ATOM      8  H3    T A   1     -12.068   6.753  68.516  1.00  0.00     0.000 HD 
ATOM      9  N3    T A   1     -11.374   7.234  69.088  1.00  0.00     0.117 N  
ATOM     10  C4    T A   1     -11.470   7.098  70.440  1.00  0.00    -0.278 C  
ENDROOT
BRANCH   4  11
ATOM     11  C1*   T A   1      -8.163   8.997  68.547  1.00  0.00    -0.112 C  
ATOM     12  C2*   T A   1      -8.475  10.392  68.007  1.00  0.00    -0.119 C  
ATOM     13  C3*   T A   1      -8.979  10.100  66.618  1.00  0.00    -0.140 C  
ATOM     14  C4*   T A   1      -8.030   8.988  66.191  1.00  0.00    -0.103 C  
ATOM     15  O3*   T A   1      -8.917  11.228  65.759  1.00  0.00    -0.205 OA 
ATOM     16  H3*   T A   1      -9.235  11.043  64.883  1.00  0.00     0.000 HD 
ATOM     17  O4*   T A   1      -7.665   8.269  67.392  1.00  0.00    -0.099 OA 
BRANCH  14  18
ATOM     18  C5*   T A   1      -8.639   8.031  65.166  1.00  0.00    -0.051 C  
ATOM     19  O5*   T A   1      -7.738   6.976  64.836  1.00  0.00    -0.099 OA 
ATOM     20  H5*   T A   1      -8.117   6.381  64.199  1.00  0.00     0.000 HD 
ENDBRANCH  14  18
ENDBRANCH   4  11
TORSDOF 2
ENDMDL
MODEL      246
REMARK 921   NORMALIZED FREE ENERGY PREDICTED BY IDOCK:    0.31 KCAL/MOL
REMARK 922        TOTAL FREE ENERGY PREDICTED BY IDOCK:    0.02 KCAL/MOL
REMARK 923 INTER-LIGAND FREE ENERGY PREDICTED BY IDOCK:   -0.93 KCAL/MOL
REMARK 924 INTRA-LIGAND FREE ENERGY PREDICTED BY IDOCK:    0.95 KCAL/MOL
REMARK 927      BINDING AFFINITY PREDICTED BY RF-SCORE:    0.00 PKD
ROOT
ATOM      1  C5M   T A   1     -11.766   4.399  72.041  1.00  0.00     1.518 C  
ATOM      2  C5    T A   1     -10.914   5.620  72.161  1.00  0.00    -0.307 C  
ATOM      3  C6    T A   1      -9.757   5.680  72.830  1.00  0.00    -0.155 C  
ATOM      4  N1    T A   1      -9.010   6.846  72.959  1.00  0.00    -0.126 N  
ATOM      5  O4    T A   1     -12.514   6.927  71.001  1.00  0.00    -0.382 OA 
ATOM      6  C2    T A   1      -9.521   8.045  72.472  1.00  0.00    -0.232 C  
ATOM      7  O2    T A   1      -9.116   9.162  72.781  1.00  0.00     0.045 OA 
ATOM      8  H3    T A   1     -10.759   8.721  70.985  1.00  0.00     0.000 HD 
ATOM      9  N3    T A   1     -10.579   7.937  71.611  1.00  0.00    -0.217 N  
ATOM     10  C4    T A   1     -11.410   6.860  71.527  1.00  0.00    -0.266 C  
ENDROOT
BRANCH   4  11
ATOM     11  C1*   T A   1      -7.872   6.857  73.896  1.00  0.00    -0.105 C  
ATOM     12  C2*   T A   1      -7.300   8.201  74.343  1.00  0.00    -0.237 C  
ATOM     13  C3*   T A   1      -6.331   8.528  73.236  1.00  0.00    -0.094 C  
ATOM     14  C4*   T A   1      -5.725   7.158  72.965  1.00  0.00    -0.045 C  
ATOM     15  O3*   T A   1      -5.358   9.488  73.619  1.00  0.00    -0.199 OA 
ATOM     16  H3*   T A   1      -4.748   9.693  72.921  1.00  0.00     0.000 HD 
ATOM     17  O4*   T A   1      -6.751   6.182  73.263  1.00  0.00    -0.072 OA 
BRANCH  14  18
ATOM     18  C5*   T A   1      -5.233   6.986  71.527  1.00  0.00    -0.027 C  
ATOM     19  O5*   T A   1      -5.337   8.204  70.791  1.00  0.00    -0.026 OA 
ATOM     20  H5*   T A   1      -5.032   8.098  69.897  1.00  0.00     0.000 HD 
ENDBRANCH  14  18
ENDBRANCH   4  11
TORSDOF 2
ENDMDL
MODEL      247
REMARK 921   NORMALIZED FREE ENERGY PREDICTED BY IDOCK:    7.76 KCAL/MOL
REMARK 922        TOTAL FREE ENERGY PREDICTED BY IDOCK:    8.35 KCAL/MOL
REMARK 923 INTER-LIGAND FREE ENERGY PREDICTED BY IDOCK:    8.43 KCAL/MOL
REMARK 924 INTRA-LIGAND FREE ENERGY PREDICTED BY IDOCK:   -0.08 KCAL/MOL
REMARK 927      BINDING AFFINITY PREDICTED BY RF-SCORE:    0.00 PKD
ROOT
ATOM      1  C5M   T A   1      -8.432  15.127  71.220  1.00  0.00     3.513 C  
ATOM      2  C5    T A   1      -9.709  15.268  70.459  1.00  0.00     0.626 C  
ATOM      3  C6    T A   1      -9.838  15.925  69.301  1.00  0.00    -0.259 C  
ATOM      4  N1    T A   1     -11.053  16.075  68.639  1.00  0.00    -0.329 N  
ATOM      5  O4    T A   1     -10.922  14.160  72.166  1.00  0.00     1.929 OA 
ATOM      6  C2    T A   1     -12.222  15.624  69.244  1.00  0.00    -0.142 C  
ATOM      7  O2    T A   1     -13.359  15.956  68.918  1.00  0.00     1.666 OA 
ATOM      8  H3    T A   1     -12.841  14.168  70.548  1.00  0.00     0.000 HD 
ATOM      9  N3    T A   1     -12.057  14.773  70.303  1.00  0.00    -0.301 N  
ATOM     10  C4    T A   1     -10.925  14.671  71.053  1.00  0.00     0.297 C  
ENDROOT
BRANCH   4  11
ATOM     11  C1*   T A   1     -11.125  16.998  67.493  1.00  0.00    -0.004 C  
ATOM     12  C2*   T A   1     -11.078  16.420  66.080  1.00  0.00     0.157 C  
ATOM     13  C3*   T A   1      -9.598  16.296  65.827  1.00  0.00    -0.231 C  
ATOM     14  C4*   T A   1      -9.085  17.581  66.462  1.00  0.00    -0.263 C  
ATOM     15  O3*   T A   1      -9.279  16.205  64.447  1.00  0.00     2.429 OA 
ATOM     16  H3*   T A   1      -8.345  16.127  64.288  1.00  0.00     0.000 HD 
ATOM     17  O4*   T A   1      -9.982  17.893  67.553  1.00  0.00    -0.299 OA 
BRANCH  14  18
ATOM     18  C5*   T A   1      -7.648  17.473  66.973  1.00  0.00    -0.207 C  
ATOM     19  O5*   T A   1      -7.307  16.125  67.292  1.00  0.00    -0.153 OA 
ATOM     20  H5*   T A   1      -6.414  16.058  67.610  1.00  0.00     0.000 HD 
ENDBRANCH  14  18
ENDBRANCH   4  11
TORSDOF 2
ENDMDL
MODEL      248
REMARK 921   NORMALIZED FREE ENERGY PREDICTED BY IDOCK:   24.22 KCAL/MOL
REMARK 922        TOTAL FREE ENERGY PREDICTED BY IDOCK:   26.72 KCAL/MOL
REMARK 923 INTER-LIGAND FREE ENERGY PREDICTED BY IDOCK:   25.42 KCAL/MOL
REMARK 924 INTRA-LIGAND FREE ENERGY PREDICTED BY IDOCK:    1.30 KCAL/MOL
REMARK 927      BINDING AFFINITY PREDICTED BY RF-SCORE:    0.00 PKD
ROOT
ATOM      1  C5M   T A   1      -9.093  13.845  73.808  1.00  0.00    11.284 C  
ATOM      2  C5    T A   1      -9.449  14.511  72.520  1.00  0.00     7.154 C  
ATOM      3  C6    T A   1      -8.567  15.062  71.677  1.00  0.00     4.751 C  
ATOM      4  N1    T A   1      -8.937  15.714  70.505  1.00  0.00     1.139 N  
ATOM      5  O4    T A   1     -11.763  14.235  72.944  1.00  0.00     0.389 OA 
ATOM      6  C2    T A   1     -10.286  15.912  70.227  1.00  0.00    -0.077 C  
ATOM      7  O2    T A   1     -10.728  16.712  69.408  1.00  0.00    -0.321 OA 
ATOM      8  H3    T A   1     -12.097  15.021  70.584  1.00  0.00     0.000 HD 
ATOM      9  N3    T A   1     -11.163  15.166  70.966  1.00  0.00    -0.309 N  
ATOM     10  C4    T A   1     -10.883  14.602  72.174  1.00  0.00     1.641 C  
ENDROOT
BRANCH   4  11
ATOM     11  C1*   T A   1      -7.913  16.473  69.765  1.00  0.00     0.671 C  
ATOM     12  C2*   T A   1      -8.351  17.670  68.923  1.00  0.00    -0.139 C  
ATOM     13  C3*   T A   1      -8.747  17.025  67.620  1.00  0.00    -0.215 C  
ATOM     14  C4*   T A   1      -7.659  15.970  67.474  1.00  0.00    -0.155 C  
ATOM     15  O3*   T A   1      -8.769  17.940  66.534  1.00  0.00    -0.255 OA 
ATOM     16  H3*   T A   1      -9.018  17.533  65.713  1.00  0.00     0.000 HD 
ATOM     17  O4*   T A   1      -7.278  15.578  68.813  1.00  0.00    -0.121 OA 
BRANCH  14  18
ATOM     18  C5*   T A   1      -8.104  14.748  66.670  1.00  0.00     0.231 C  
ATOM     19  O5*   T A   1      -9.506  14.517  66.802  1.00  0.00    -0.245 OA 
ATOM     20  H5*   T A   1      -9.782  13.757  66.303  1.00  0.00     0.000 HD 
ENDBRANCH  14  18
ENDBRANCH   4  11
TORSDOF 2
ENDMDL
