MODEL        1
REMARK 921   NORMALIZED FREE ENERGY PREDICTED BY IDOCK:   -5.25 KCAL/MOL
REMARK 922        TOTAL FREE ENERGY PREDICTED BY IDOCK:   -7.92 KCAL/MOL
REMARK 923 INTER-LIGAND FREE ENERGY PREDICTED BY IDOCK:   -8.31 KCAL/MOL
REMARK 924 INTRA-LIGAND FREE ENERGY PREDICTED BY IDOCK:    0.40 KCAL/MOL
REMARK 927      BINDING AFFINITY PREDICTED BY RF-SCORE:    0.00 PKD
ROOT
HETATM    1  C   UNL     1      -9.881  10.821  69.125  1.00  0.00    -0.175 C  
HETATM    2  C   UNL     1     -10.964   9.808  69.862  1.00  0.00    -0.299 C  
HETATM    3  C   UNL     1     -10.632   8.885  71.103  1.00  0.00    -0.265 C  
HETATM    4  C   UNL     1     -12.360   9.500  69.248  1.00  0.00     1.463 C  
HETATM    5  C   UNL     1     -10.747   7.336  71.131  1.00  0.00    -0.244 C  
HETATM    6  O   UNL     1     -10.374   9.435  72.186  1.00  0.00     0.056 OA 
HETATM    7  C   UNL     1      -9.368   6.698  71.759  1.00  0.00    -0.148 C  
HETATM    8  C   UNL     1     -11.393   6.783  69.872  1.00  0.00    -0.374 C  
HETATM    9  C   UNL     1      -9.093   5.110  71.490  1.00  0.00    -0.144 C  
HETATM   10  C   UNL     1      -8.327   5.171  70.050  1.00  0.00    -0.089 C  
HETATM   11  O   UNL     1     -10.462   4.677  71.790  1.00  0.00    -0.171 OA 
HETATM   12  C   UNL     1      -8.361   3.901  72.113  1.00  0.00    -0.094 C  
HETATM   13  C   UNL     1     -10.754   4.729  73.233  1.00  0.00    -0.248 C  
HETATM   14  C   UNL     1      -7.902   9.667  67.420  1.00  0.00    -0.095 C  
HETATM   15  C   UNL     1      -6.857   4.783  69.575  1.00  0.00    -0.049 C  
HETATM   16  C   UNL     1      -6.570   3.361  69.101  1.00  0.00    -0.034 C  
HETATM   17  O   UNL     1      -9.569  14.014  68.125  1.00  0.00    -0.207 OA 
HETATM   18  C   UNL     1      -6.456   5.767  68.433  1.00  0.00    -0.046 C  
HETATM   19  O   UNL     1      -6.407   5.390  67.256  1.00  0.00    -0.037 OA 
HETATM   20  N   UNL     1     -10.609  11.944  68.467  1.00  0.00    -0.216 N  
HETATM   21  C   UNL     1      -6.231   7.232  68.796  1.00  0.00    -0.031 C  
HETATM   22  C   UNL     1      -5.965   8.158  67.645  1.00  0.00    -0.047 C  
HETATM   23  C   UNL     1      -5.135   7.431  69.838  1.00  0.00    -0.019 C  
HETATM   24  C   UNL     1      -9.597  12.801  68.057  1.00  0.00    -0.217 C  
HETATM   25  O   UNL     1      -8.675  12.029  67.432  1.00  0.00    -0.156 OA 
HETATM   26  C   UNL     1      -7.241  11.553  69.056  1.00  0.00    -0.106 C  
HETATM   27  O   UNL     1      -5.126   8.000  66.757  1.00  0.00    -0.026 OA 
HETATM   28  O   UNL     1      -6.543   9.363  67.911  1.00  0.00    -0.062 OA 
HETATM   29  C   UNL     1      -8.445  10.866  68.302  1.00  0.00    -0.134 C  
ENDROOT
BRANCH  10  30
HETATM   30  O   UNL     1      -9.162   5.558  69.014  1.00  0.00    -0.116 OA 
BRANCH  30  31
HETATM   31  C   UNL     1      -9.801   4.603  68.191  1.00  0.00    -0.107 C  
HETATM   32  C   UNL     1      -9.091   4.315  66.814  1.00  0.00    -0.134 C  
HETATM   33  C   UNL     1      -9.327   2.847  66.353  1.00  0.00    -0.040 C  
HETATM   34  O   UNL     1      -9.847   3.578  69.152  1.00  0.00    -0.052 OA 
HETATM   35  C   UNL     1      -9.896   2.234  68.790  1.00  0.00     0.338 C  
HETATM   36  H   UNL     1      -9.161   5.079  65.004  1.00  0.00     0.000 HD 
HETATM   37  C   UNL     1      -9.125   1.885  67.532  1.00  0.00    -0.182 C  
HETATM   38  O   UNL     1      -9.589   5.253  65.833  1.00  0.00    -0.159 OA 
HETATM   39  C   UNL     1      -9.270   1.520  69.994  1.00  0.00    -0.161 C  
BRANCH  33  40
HETATM   40  N   UNL     1      -8.649   2.292  65.147  1.00  0.00    -0.104 NA 
HETATM   41  C   UNL     1      -7.251   2.613  64.868  1.00  0.00    -0.058 C  
HETATM   42  C   UNL     1      -9.406   2.258  63.903  1.00  0.00    -0.114 C  
ENDBRANCH  33  40
ENDBRANCH  30  31
ENDBRANCH  10  30
BRANCH  14  43
HETATM   43  C   UNL     1      -7.629   9.944  65.916  1.00  0.00    -0.108 C  
HETATM   44  C   UNL     1      -8.518   9.264  64.901  1.00  0.00    -0.182 C  
ENDBRANCH  14  43
BRANCH  20  45
HETATM   45  C   UNL     1     -11.423  11.649  67.280  1.00  0.00    -0.277 C  
BRANCH  45  46
HETATM   46  C   UNL     1     -10.733  12.009  65.963  1.00  0.00    -0.317 C  
BRANCH  46  47
HETATM   47  C   UNL     1     -11.718  12.434  64.874  1.00  0.00    -0.418 C  
BRANCH  47  48
HETATM   48  C   UNL     1     -12.683  13.500  65.378  1.00  0.00    -0.442 C  
BRANCH  48  49
HETATM   49  N   UNL     1     -12.093  14.819  65.327  1.00  0.00    -0.255 NA 
HETATM   50  C   UNL     1     -11.963  15.613  64.226  1.00  0.00    -0.115 A  
HETATM   51  N   UNL     1     -11.310  16.717  64.513  1.00  0.00    -0.993 NA 
HETATM   52  C   UNL     1     -10.996  16.623  65.850  1.00  0.00     0.060 A  
HETATM   53  C   UNL     1     -11.511  15.461  66.376  1.00  0.00     0.001 A  
BRANCH  52  54
HETATM   54  C   UNL     1     -10.219  17.621  66.553  1.00  0.00    -0.355 A  
HETATM   55  C   UNL     1     -10.218  18.951  66.127  1.00  0.00    -0.485 A  
HETATM   56  C   UNL     1      -9.409  19.879  66.777  1.00  0.00    -0.494 A  
HETATM   57  C   UNL     1      -8.614  19.449  67.829  1.00  0.00    -0.311 A  
HETATM   58  N   UNL     1      -8.619  18.187  68.304  1.00  0.00    -0.281 NA 
HETATM   59  C   UNL     1      -9.419  17.308  67.649  1.00  0.00    -0.246 A  
ENDBRANCH  52  54
ENDBRANCH  48  49
ENDBRANCH  47  48
ENDBRANCH  46  47
ENDBRANCH  45  46
ENDBRANCH  20  45
TORSDOF 10
ENDMDL
MODEL        2
REMARK 921   NORMALIZED FREE ENERGY PREDICTED BY IDOCK:   -5.15 KCAL/MOL
REMARK 922        TOTAL FREE ENERGY PREDICTED BY IDOCK:   -7.77 KCAL/MOL
REMARK 923 INTER-LIGAND FREE ENERGY PREDICTED BY IDOCK:   -5.18 KCAL/MOL
REMARK 924 INTRA-LIGAND FREE ENERGY PREDICTED BY IDOCK:   -2.59 KCAL/MOL
REMARK 927      BINDING AFFINITY PREDICTED BY RF-SCORE:    0.00 PKD
ROOT
HETATM    1  C   UNL     1      -7.243   7.682  71.882  1.00  0.00    -0.065 C  
HETATM    2  C   UNL     1      -6.153   8.409  70.870  1.00  0.00    -0.034 C  
HETATM    3  C   UNL     1      -6.011   9.973  70.676  1.00  0.00    -0.094 C  
HETATM    4  C   UNL     1      -5.315   7.602  69.838  1.00  0.00    -0.023 C  
HETATM    5  C   UNL     1      -6.192  10.735  69.333  1.00  0.00    -0.059 C  
HETATM    6  O   UNL     1      -5.604  10.646  71.636  1.00  0.00    -0.311 OA 
HETATM    7  C   UNL     1      -7.187  12.021  69.567  1.00  0.00     0.246 C  
HETATM    8  C   UNL     1      -6.353   9.791  68.153  1.00  0.00    -0.055 C  
HETATM    9  C   UNL     1      -7.852  12.698  68.236  1.00  0.00    -0.144 C  
HETATM   10  C   UNL     1      -9.192  11.782  68.063  1.00  0.00    -0.181 C  
HETATM   11  O   UNL     1      -6.619  12.690  67.442  1.00  0.00    -0.146 OA 
HETATM   12  C   UNL     1      -8.405  14.050  67.731  1.00  0.00    -0.176 C  
HETATM   13  C   UNL     1      -5.662  13.713  67.898  1.00  0.00    -0.120 C  
HETATM   14  C   UNL     1      -9.977   7.576  71.064  1.00  0.00    -0.186 C  
HETATM   15  C   UNL     1     -10.751  12.098  68.140  1.00  0.00    -0.238 C  
HETATM   16  C   UNL     1     -11.494  12.531  66.880  1.00  0.00    -0.416 C  
HETATM   17  O   UNL     1      -7.390   5.389  74.334  1.00  0.00    -0.082 OA 
HETATM   18  C   UNL     1     -11.460  10.831  68.710  1.00  0.00    -0.295 C  
HETATM   19  O   UNL     1     -12.142  10.100  67.982  1.00  0.00     0.368 OA 
HETATM   20  N   UNL     1      -6.727   6.347  72.303  1.00  0.00    -0.066 N  
HETATM   21  C   UNL     1     -11.200  10.460  70.169  1.00  0.00    -0.393 C  
HETATM   22  C   UNL     1     -11.809   9.170  70.634  1.00  0.00    -0.175 C  
HETATM   23  C   UNL     1     -11.595  11.560  71.148  1.00  0.00     0.866 C  
HETATM   24  C   UNL     1      -7.628   5.934  73.275  1.00  0.00    -0.098 C  
HETATM   25  O   UNL     1      -8.865   6.137  72.758  1.00  0.00    -0.124 OA 
HETATM   26  C   UNL     1      -9.394   8.154  73.512  1.00  0.00    -0.210 C  
HETATM   27  O   UNL     1     -12.986   8.827  70.506  1.00  0.00     0.364 OA 
HETATM   28  O   UNL     1     -10.959   8.580  71.521  1.00  0.00    -0.237 OA 
HETATM   29  C   UNL     1      -8.860   7.491  72.184  1.00  0.00    -0.125 C  
ENDROOT
BRANCH  10  30
HETATM   30  O   UNL     1      -8.905  10.481  67.683  1.00  0.00    -0.130 OA 
BRANCH  30  31
HETATM   31  C   UNL     1      -9.377   9.952  66.460  1.00  0.00    -0.164 C  
HETATM   32  C   UNL     1      -8.534  10.338  65.186  1.00  0.00    -0.168 C  
HETATM   33  C   UNL     1      -8.583   9.212  64.113  1.00  0.00    -0.170 C  
HETATM   34  O   UNL     1      -9.396   8.608  66.872  1.00  0.00    -0.152 OA 
HETATM   35  C   UNL     1      -9.281   7.559  65.963  1.00  0.00    -0.049 C  
HETATM   36  H   UNL     1      -8.536  11.816  63.888  1.00  0.00     0.000 HD 
HETATM   37  C   UNL     1      -8.380   7.842  64.776  1.00  0.00    -0.066 C  
HETATM   38  O   UNL     1      -9.044  11.583  64.656  1.00  0.00    -0.027 OA 
HETATM   39  C   UNL     1      -8.684   6.424  66.804  1.00  0.00    -0.119 C  
BRANCH  33  40
HETATM   40  N   UNL     1      -7.758   9.282  62.872  1.00  0.00    -0.117 NA 
HETATM   41  C   UNL     1      -6.832   8.204  62.536  1.00  0.00    -0.087 C  
HETATM   42  C   UNL     1      -7.169  10.568  62.527  1.00  0.00    -0.122 C  
ENDBRANCH  33  40
ENDBRANCH  30  31
ENDBRANCH  10  30
BRANCH  14  43
HETATM   43  C   UNL     1     -10.885   6.333  70.855  1.00  0.00    -0.329 C  
HETATM   44  C   UNL     1     -10.270   5.107  70.222  1.00  0.00    -0.342 C  
ENDBRANCH  14  43
BRANCH  20  45
HETATM   45  C   UNL     1      -6.661   5.275  71.301  1.00  0.00    -0.043 C  
BRANCH  45  46
HETATM   46  C   UNL     1      -5.456   4.349  71.479  1.00  0.00    -0.011 C  
BRANCH  46  47
HETATM   47  C   UNL     1      -5.753   2.906  71.073  1.00  0.00    -0.013 C  
BRANCH  47  48
HETATM   48  C   UNL     1      -7.167   2.758  70.527  1.00  0.00    -0.033 C  
BRANCH  48  49
HETATM   49  N   UNL     1      -7.167   2.547  69.097  1.00  0.00    -0.044 NA 
HETATM   50  C   UNL     1      -6.260   1.824  68.379  1.00  0.00    -0.025 A  
HETATM   51  N   UNL     1      -6.507   1.901  67.090  1.00  0.00    -0.027 NA 
HETATM   52  C   UNL     1      -7.610   2.716  66.974  1.00  0.00    -0.070 A  
HETATM   53  C   UNL     1      -8.052   3.095  68.221  1.00  0.00    -0.069 A  
BRANCH  52  54
HETATM   54  C   UNL     1      -8.178   3.104  65.701  1.00  0.00    -0.091 A  
HETATM   55  C   UNL     1      -7.351   3.454  64.631  1.00  0.00    -0.071 A  
HETATM   56  C   UNL     1      -7.922   3.889  63.438  1.00  0.00    -0.083 A  
HETATM   57  C   UNL     1      -9.304   3.974  63.351  1.00  0.00    -0.139 A  
HETATM   58  N   UNL     1     -10.140   3.602  64.341  1.00  0.00    -0.198 NA 
HETATM   59  C   UNL     1      -9.552   3.180  65.490  1.00  0.00    -0.014 A  
ENDBRANCH  52  54
ENDBRANCH  48  49
ENDBRANCH  47  48
ENDBRANCH  46  47
ENDBRANCH  45  46
ENDBRANCH  20  45
TORSDOF 10
ENDMDL
MODEL        3
REMARK 921   NORMALIZED FREE ENERGY PREDICTED BY IDOCK:   -4.80 KCAL/MOL
REMARK 922        TOTAL FREE ENERGY PREDICTED BY IDOCK:   -7.20 KCAL/MOL
REMARK 923 INTER-LIGAND FREE ENERGY PREDICTED BY IDOCK:   -7.11 KCAL/MOL
REMARK 924 INTRA-LIGAND FREE ENERGY PREDICTED BY IDOCK:   -0.09 KCAL/MOL
REMARK 927      BINDING AFFINITY PREDICTED BY RF-SCORE:    0.00 PKD
ROOT
HETATM    1  C   UNL     1      -8.028  11.064  68.125  1.00  0.00    -0.119 C  
HETATM    2  C   UNL     1      -7.959  10.320  69.603  1.00  0.00    -0.164 C  
HETATM    3  C   UNL     1      -6.775   9.390  70.087  1.00  0.00    -0.066 C  
HETATM    4  C   UNL     1      -9.176  10.287  70.571  1.00  0.00     0.770 C  
HETATM    5  C   UNL     1      -6.912   7.899  70.503  1.00  0.00    -0.045 C  
HETATM    6  O   UNL     1      -5.662   9.909  70.270  1.00  0.00    -0.041 OA 
HETATM    7  C   UNL     1      -5.758   7.011  69.742  1.00  0.00    -0.023 C  
HETATM    8  C   UNL     1      -8.363   7.451  70.570  1.00  0.00    -0.132 C  
HETATM    9  C   UNL     1      -5.976   5.393  69.690  1.00  0.00    -0.017 C  
HETATM   10  C   UNL     1      -6.880   5.248  68.338  1.00  0.00    -0.056 C  
HETATM   11  O   UNL     1      -6.385   5.261  71.093  1.00  0.00    -0.028 OA 
HETATM   12  C   UNL     1      -5.169   4.079  69.594  1.00  0.00    -0.008 C  
HETATM   13  C   UNL     1      -5.248   5.418  72.016  1.00  0.00    -0.012 C  
HETATM   14  C   UNL     1      -8.681   9.474  65.845  1.00  0.00    -0.147 C  
HETATM   15  C   UNL     1      -6.635   4.550  66.928  1.00  0.00    -0.050 C  
HETATM   16  C   UNL     1      -7.017   3.086  66.736  1.00  0.00    -0.053 C  
HETATM   17  O   UNL     1      -8.538  14.091  66.757  1.00  0.00    -0.173 OA 
HETATM   18  C   UNL     1      -7.383   5.393  65.849  1.00  0.00    -0.077 C  
HETATM   19  O   UNL     1      -8.423   4.977  65.324  1.00  0.00    -0.128 OA 
HETATM   20  N   UNL     1      -8.871  12.292  68.218  1.00  0.00    -0.188 N  
HETATM   21  C   UNL     1      -6.855   6.792  65.541  1.00  0.00    -0.052 C  
HETATM   22  C   UNL     1      -7.679   7.606  64.585  1.00  0.00    -0.121 C  
HETATM   23  C   UNL     1      -5.410   6.794  65.054  1.00  0.00    -0.027 C  
HETATM   24  C   UNL     1      -8.696  12.908  66.987  1.00  0.00    -0.195 C  
HETATM   25  O   UNL     1      -8.867  11.943  66.051  1.00  0.00    -0.135 OA 
HETATM   26  C   UNL     1      -6.799  11.235  65.682  1.00  0.00     0.413 C  
HETATM   27  O   UNL     1      -8.078   7.250  63.475  1.00  0.00    -0.100 OA 
HETATM   28  O   UNL     1      -7.632   8.912  64.971  1.00  0.00    -0.095 OA 
HETATM   29  C   UNL     1      -8.076  10.786  66.494  1.00  0.00    -0.146 C  
ENDROOT
BRANCH  10  30
HETATM   30  O   UNL     1      -8.156   5.765  68.490  1.00  0.00    -0.106 OA 
BRANCH  30  31
HETATM   31  C   UNL     1      -9.225   4.962  68.949  1.00  0.00    -0.119 C  
HETATM   32  C   UNL     1      -8.935   4.136  70.260  1.00  0.00    -0.093 C  
HETATM   33  C   UNL     1     -10.231   3.936  71.098  1.00  0.00     0.145 C  
HETATM   34  O   UNL     1     -10.179   5.993  69.000  1.00  0.00    -0.161 OA 
HETATM   35  C   UNL     1     -11.278   5.935  69.855  1.00  0.00    -0.268 C  
HETATM   36  H   UNL     1      -8.182   2.368  70.675  1.00  0.00     0.000 HD 
HETATM   37  C   UNL     1     -11.014   5.253  71.184  1.00  0.00    -0.049 C  
HETATM   38  O   UNL     1      -8.357   2.866  69.885  1.00  0.00    -0.044 OA 
HETATM   39  C   UNL     1     -11.620   7.411  70.092  1.00  0.00    -0.092 C  
BRANCH  33  40
HETATM   40  N   UNL     1     -10.194   3.299  72.447  1.00  0.00    -0.152 NA 
HETATM   41  C   UNL     1      -9.176   3.685  73.420  1.00  0.00    -0.101 C  
HETATM   42  C   UNL     1     -10.434   1.865  72.522  1.00  0.00    -0.148 C  
ENDBRANCH  33  40
ENDBRANCH  30  31
ENDBRANCH  10  30
BRANCH  14  43
HETATM   43  C   UNL     1      -9.857   9.640  64.844  1.00  0.00    -0.067 C  
HETATM   44  C   UNL     1      -9.661  10.574  63.673  1.00  0.00    -0.370 C  
ENDBRANCH  14  43
BRANCH  20  45
HETATM   45  C   UNL     1     -10.318  12.133  68.413  1.00  0.00    -0.229 C  
BRANCH  45  46
HETATM   46  C   UNL     1     -10.962  13.299  69.167  1.00  0.00    -0.208 C  
BRANCH  46  47
HETATM   47  C   UNL     1     -11.683  14.277  68.239  1.00  0.00    -0.377 C  
BRANCH  47  48
HETATM   48  C   UNL     1     -11.497  15.719  68.693  1.00  0.00    -0.386 C  
BRANCH  48  49
HETATM   49  N   UNL     1     -10.694  16.472  67.757  1.00  0.00    -0.337 NA 
HETATM   50  C   UNL     1     -10.740  16.396  66.396  1.00  0.00    -0.161 A  
HETATM   51  N   UNL     1      -9.821  17.160  65.847  1.00  0.00    -0.532 NA 
HETATM   52  C   UNL     1      -9.148  17.740  66.899  1.00  0.00    -0.258 A  
HETATM   53  C   UNL     1      -9.707  17.348  68.093  1.00  0.00    -0.291 A  
BRANCH  52  54
HETATM   54  C   UNL     1      -8.011  18.618  66.724  1.00  0.00    -0.266 A  
HETATM   55  C   UNL     1      -6.771  18.106  66.336  1.00  0.00    -0.263 A  
HETATM   56  C   UNL     1      -5.676  18.962  66.241  1.00  0.00    -0.178 A  
HETATM   57  C   UNL     1      -5.849  20.304  66.548  1.00  0.00    -0.172 A  
HETATM   58  N   UNL     1      -7.037  20.848  66.879  1.00  0.00    -0.291 NA 
HETATM   59  C   UNL     1      -8.084  19.988  66.962  1.00  0.00    -0.318 A  
ENDBRANCH  52  54
ENDBRANCH  48  49
ENDBRANCH  47  48
ENDBRANCH  46  47
ENDBRANCH  45  46
ENDBRANCH  20  45
TORSDOF 10
ENDMDL
MODEL        4
REMARK 921   NORMALIZED FREE ENERGY PREDICTED BY IDOCK:   -4.60 KCAL/MOL
REMARK 922        TOTAL FREE ENERGY PREDICTED BY IDOCK:   -6.89 KCAL/MOL
REMARK 923 INTER-LIGAND FREE ENERGY PREDICTED BY IDOCK:   -5.37 KCAL/MOL
REMARK 924 INTRA-LIGAND FREE ENERGY PREDICTED BY IDOCK:   -1.52 KCAL/MOL
REMARK 927      BINDING AFFINITY PREDICTED BY RF-SCORE:    0.00 PKD
ROOT
HETATM    1  C   UNL     1      -8.884   8.626  68.078  1.00  0.00    -0.141 C  
HETATM    2  C   UNL     1      -8.982   9.740  69.300  1.00  0.00    -0.177 C  
HETATM    3  C   UNL     1     -10.271  10.592  69.638  1.00  0.00    -0.168 C  
HETATM    4  C   UNL     1      -7.729  10.216  70.088  1.00  0.00    -0.086 C  
HETATM    5  C   UNL     1     -10.357  12.144  69.621  1.00  0.00     0.757 C  
HETATM    6  O   UNL     1     -11.269   9.994  70.072  1.00  0.00    -0.254 OA 
HETATM    7  C   UNL     1     -11.688  12.607  68.775  1.00  0.00    -0.364 C  
HETATM    8  C   UNL     1      -8.998  12.793  69.410  1.00  0.00     1.279 C  
HETATM    9  C   UNL     1     -11.743  14.159  68.267  1.00  0.00    -0.348 C  
HETATM   10  C   UNL     1     -10.963  14.042  66.838  1.00  0.00    -0.298 C  
HETATM   11  O   UNL     1     -11.275  14.738  69.531  1.00  0.00    -0.256 OA 
HETATM   12  C   UNL     1     -12.761  15.264  67.907  1.00  0.00     1.477 C  
HETATM   13  C   UNL     1     -12.310  14.689  70.578  1.00  0.00    -0.337 C  
HETATM   14  C   UNL     1      -8.648   9.583  65.398  1.00  0.00    -0.155 C  
HETATM   15  C   UNL     1     -11.408  14.271  65.327  1.00  0.00    -0.336 C  
HETATM   16  C   UNL     1     -11.286  15.660  64.708  1.00  0.00    -0.391 C  
HETATM   17  O   UNL     1      -7.968   5.440  67.529  1.00  0.00    -0.100 OA 
HETATM   18  C   UNL     1     -10.600  13.272  64.441  1.00  0.00    -0.419 C  
HETATM   19  O   UNL     1      -9.678  13.665  63.716  1.00  0.00     0.881 OA 
HETATM   20  N   UNL     1      -7.846   7.607  68.408  1.00  0.00    -0.119 N  
HETATM   21  C   UNL     1     -10.908  11.783  64.579  1.00  0.00    -0.377 C  
HETATM   22  C   UNL     1     -10.023  10.857  63.795  1.00  0.00    -0.351 C  
HETATM   23  C   UNL     1     -12.360  11.439  64.267  1.00  0.00     0.423 C  
HETATM   24  C   UNL     1      -7.994   6.649  67.414  1.00  0.00    -0.114 C  
HETATM   25  O   UNL     1      -8.044   7.324  66.240  1.00  0.00    -0.111 OA 
HETATM   26  C   UNL     1     -10.220   7.600  65.917  1.00  0.00     0.961 C  
HETATM   27  O   UNL     1      -9.758  10.937  62.595  1.00  0.00    -0.276 OA 
HETATM   28  O   UNL     1      -9.828   9.720  64.522  1.00  0.00    -0.189 OA 
HETATM   29  C   UNL     1      -8.986   8.435  66.437  1.00  0.00    -0.171 C  
ENDROOT
BRANCH  10  30
HETATM   30  O   UNL     1      -9.611  13.774  66.986  1.00  0.00    -0.235 OA 
BRANCH  30  31
HETATM   31  C   UNL     1      -8.636  14.775  66.770  1.00  0.00    -0.193 C  
HETATM   32  C   UNL     1      -8.873  16.128  67.542  1.00  0.00    -0.189 C  
HETATM   33  C   UNL     1      -7.524  16.820  67.894  1.00  0.00    -0.160 C  
HETATM   34  O   UNL     1      -7.528  13.984  67.121  1.00  0.00    -0.104 OA 
HETATM   35  C   UNL     1      -6.346  14.548  67.597  1.00  0.00    -0.107 C  
HETATM   36  H   UNL     1      -9.842  17.802  67.188  1.00  0.00     0.000 HD 
HETATM   37  C   UNL     1      -6.531  15.790  68.448  1.00  0.00    -0.113 C  
HETATM   38  O   UNL     1      -9.699  16.986  66.722  1.00  0.00    -0.248 OA 
HETATM   39  C   UNL     1      -5.735  13.427  68.446  1.00  0.00    -0.087 C  
BRANCH  33  40
HETATM   40  N   UNL     1      -7.478  18.048  68.738  1.00  0.00    -0.276 NA 
HETATM   41  C   UNL     1      -8.097  19.288  68.277  1.00  0.00    -0.332 C  
HETATM   42  C   UNL     1      -6.231  18.345  69.430  1.00  0.00    -0.259 C  
ENDBRANCH  33  40
ENDBRANCH  30  31
ENDBRANCH  10  30
BRANCH  14  43
HETATM   43  C   UNL     1      -7.526   9.308  64.360  1.00  0.00    -0.106 C  
HETATM   44  C   UNL     1      -6.194   9.992  64.563  1.00  0.00    -0.126 C  
ENDBRANCH  14  43
BRANCH  20  45
HETATM   45  C   UNL     1      -6.436   8.017  68.398  1.00  0.00    -0.058 C  
BRANCH  45  46
HETATM   46  C   UNL     1      -5.621   7.424  69.550  1.00  0.00    -0.023 C  
BRANCH  46  47
HETATM   47  C   UNL     1      -6.390   6.359  70.332  1.00  0.00    -0.036 C  
BRANCH  47  48
HETATM   48  C   UNL     1      -7.034   6.939  71.584  1.00  0.00    -0.070 C  
BRANCH  48  49
HETATM   49  N   UNL     1      -8.453   6.668  71.628  1.00  0.00    -0.120 NA 
HETATM   50  C   UNL     1      -9.078   5.523  71.230  1.00  0.00    -0.142 A  
HETATM   51  N   UNL     1     -10.384   5.637  71.332  1.00  0.00    -0.220 NA 
HETATM   52  C   UNL     1     -10.607   6.912  71.802  1.00  0.00    -0.212 A  
HETATM   53  C   UNL     1      -9.410   7.550  72.026  1.00  0.00    -0.133 A  
BRANCH  52  54
HETATM   54  C   UNL     1     -11.931   7.460  72.002  1.00  0.00    -0.333 A  
HETATM   55  C   UNL     1     -13.062   6.769  71.561  1.00  0.00    -0.248 A  
HETATM   56  C   UNL     1     -14.320   7.350  71.703  1.00  0.00    -0.614 A  
HETATM   57  C   UNL     1     -14.411   8.612  72.271  1.00  0.00    -0.396 A  
HETATM   58  N   UNL     1     -13.353   9.294  72.753  1.00  0.00    -0.278 NA 
HETATM   59  C   UNL     1     -12.142   8.700  72.601  1.00  0.00    -0.197 A  
ENDBRANCH  52  54
ENDBRANCH  48  49
ENDBRANCH  47  48
ENDBRANCH  46  47
ENDBRANCH  45  46
ENDBRANCH  20  45
TORSDOF 10
ENDMDL
MODEL        5
REMARK 921   NORMALIZED FREE ENERGY PREDICTED BY IDOCK:   -4.42 KCAL/MOL
REMARK 922        TOTAL FREE ENERGY PREDICTED BY IDOCK:   -6.61 KCAL/MOL
REMARK 923 INTER-LIGAND FREE ENERGY PREDICTED BY IDOCK:   -8.08 KCAL/MOL
REMARK 924 INTRA-LIGAND FREE ENERGY PREDICTED BY IDOCK:    1.47 KCAL/MOL
REMARK 927      BINDING AFFINITY PREDICTED BY RF-SCORE:    0.00 PKD
ROOT
HETATM    1  C   UNL     1      -8.138   8.336  67.353  1.00  0.00    -0.121 C  
HETATM    2  C   UNL     1      -9.568   8.809  66.664  1.00  0.00    -0.283 C  
HETATM    3  C   UNL     1      -9.698   9.889  65.515  1.00  0.00    -0.302 C  
HETATM    4  C   UNL     1     -10.947   8.392  67.250  1.00  0.00     0.111 C  
HETATM    5  C   UNL     1     -10.506  11.213  65.611  1.00  0.00    -0.308 C  
HETATM    6  O   UNL     1      -9.224   9.617  64.401  1.00  0.00    -0.249 OA 
HETATM    7  C   UNL     1      -9.572  12.460  65.089  1.00  0.00     0.026 C  
HETATM    8  C   UNL     1     -11.327  11.296  66.888  1.00  0.00    -0.231 C  
HETATM    9  C   UNL     1     -10.049  13.969  65.498  1.00  0.00    -0.320 C  
HETATM   10  C   UNL     1      -9.332  14.133  66.955  1.00  0.00    -0.264 C  
HETATM   11  O   UNL     1     -11.467  13.758  65.185  1.00  0.00    -0.308 OA 
HETATM   12  C   UNL     1      -9.951  15.430  65.004  1.00  0.00    -0.115 C  
HETATM   13  C   UNL     1     -11.710  13.710  63.733  1.00  0.00    -0.250 C  
HETATM   14  C   UNL     1      -6.892  10.103  69.218  1.00  0.00    -0.063 C  
HETATM   15  C   UNL     1      -8.197  15.102  67.512  1.00  0.00    -0.196 C  
HETATM   16  C   UNL     1      -8.586  16.449  68.113  1.00  0.00    -0.193 C  
HETATM   17  O   UNL     1      -6.401   5.557  68.096  1.00  0.00    -0.038 OA 
HETATM   18  C   UNL     1      -7.386  14.309  68.584  1.00  0.00    -0.125 C  
HETATM   19  O   UNL     1      -7.507  14.558  69.789  1.00  0.00    -0.045 OA 
HETATM   20  N   UNL     1      -8.271   6.950  67.889  1.00  0.00    -0.114 N  
HETATM   21  C   UNL     1      -6.520  13.144  68.109  1.00  0.00    -0.105 C  
HETATM   22  C   UNL     1      -5.855  12.341  69.189  1.00  0.00    -0.074 C  
HETATM   23  C   UNL     1      -5.460  13.559  67.095  1.00  0.00     0.646 C  
HETATM   24  C   UNL     1      -6.978   6.613  68.263  1.00  0.00    -0.077 C  
HETATM   25  O   UNL     1      -6.504   7.660  68.982  1.00  0.00    -0.038 OA 
HETATM   26  C   UNL     1      -5.454   8.878  67.457  1.00  0.00    -0.035 C  
HETATM   27  O   UNL     1      -5.176  12.781  70.117  1.00  0.00    -0.087 OA 
HETATM   28  O   UNL     1      -5.823  11.034  68.803  1.00  0.00    -0.040 OA 
HETATM   29  C   UNL     1      -6.835   8.873  68.221  1.00  0.00    -0.065 C  
ENDROOT
BRANCH  10  30
HETATM   30  O   UNL     1      -9.894  13.318  67.924  1.00  0.00    -0.220 OA 
BRANCH  30  31
HETATM   31  C   UNL     1     -11.200  13.550  68.411  1.00  0.00    -0.278 C  
HETATM   32  C   UNL     1     -11.434  13.173  69.924  1.00  0.00    -0.089 C  
HETATM   33  C   UNL     1     -12.505  14.095  70.576  1.00  0.00    -0.361 C  
HETATM   34  O   UNL     1     -11.264  14.904  68.038  1.00  0.00    -0.282 OA 
HETATM   35  C   UNL     1     -12.091  15.810  68.698  1.00  0.00     0.006 C  
HETATM   36  H   UNL     1     -11.971  11.558  70.907  1.00  0.00     0.000 HD 
HETATM   37  C   UNL     1     -12.252  15.557  70.184  1.00  0.00    -0.404 C  
HETATM   38  O   UNL     1     -11.830  11.785  69.996  1.00  0.00    -0.322 OA 
HETATM   39  C   UNL     1     -11.391  17.156  68.476  1.00  0.00     0.251 C  
BRANCH  33  40
HETATM   40  N   UNL     1     -12.808  14.024  72.034  1.00  0.00    -0.336 NA 
HETATM   41  C   UNL     1     -13.812  13.089  72.537  1.00  0.00    -0.316 C  
HETATM   42  C   UNL     1     -12.888  15.278  72.769  1.00  0.00    -0.413 C  
ENDBRANCH  33  40
ENDBRANCH  30  31
ENDBRANCH  10  30
BRANCH  14  43
HETATM   43  C   UNL     1      -6.515   9.846  70.702  1.00  0.00    -0.106 C  
HETATM   44  C   UNL     1      -5.146   9.279  70.995  1.00  0.00    -0.030 C  
ENDBRANCH  14  43
BRANCH  20  45
HETATM   45  C   UNL     1      -9.124   6.735  69.066  1.00  0.00    -0.137 C  
BRANCH  45  46
HETATM   46  C   UNL     1      -9.486   8.028  69.800  1.00  0.00    -0.159 C  
BRANCH  46  47
HETATM   47  C   UNL     1     -10.614   7.837  70.814  1.00  0.00    -0.220 C  
BRANCH  47  48
HETATM   48  C   UNL     1     -10.158   8.170  72.228  1.00  0.00    -0.269 C  
BRANCH  48  49
HETATM   49  N   UNL     1      -9.820   6.979  72.974  1.00  0.00    -0.174 NA 
HETATM   50  C   UNL     1     -10.471   6.489  74.067  1.00  0.00    -0.285 A  
HETATM   51  N   UNL     1      -9.856   5.432  74.550  1.00  0.00    -0.194 NA 
HETATM   52  C   UNL     1      -8.758   5.243  73.741  1.00  0.00    -0.115 A  
HETATM   53  C   UNL     1      -8.746   6.179  72.734  1.00  0.00    -0.123 A  
BRANCH  52  54
HETATM   54  C   UNL     1      -7.777   4.204  73.969  1.00  0.00    -0.080 A  
HETATM   55  C   UNL     1      -8.175   2.878  74.152  1.00  0.00    -0.069 A  
HETATM   56  C   UNL     1      -7.218   1.908  74.438  1.00  0.00    -0.028 A  
HETATM   57  C   UNL     1      -5.889   2.293  74.545  1.00  0.00    -0.004 A  
HETATM   58  N   UNL     1      -5.455   3.551  74.330  1.00  0.00    -0.003 NA 
HETATM   59  C   UNL     1      -6.413   4.472  74.052  1.00  0.00    -0.053 A  
ENDBRANCH  52  54
ENDBRANCH  48  49
ENDBRANCH  47  48
ENDBRANCH  46  47
ENDBRANCH  45  46
ENDBRANCH  20  45
TORSDOF 10
ENDMDL
MODEL        6
REMARK 921   NORMALIZED FREE ENERGY PREDICTED BY IDOCK:   -4.40 KCAL/MOL
REMARK 922        TOTAL FREE ENERGY PREDICTED BY IDOCK:   -6.57 KCAL/MOL
REMARK 923 INTER-LIGAND FREE ENERGY PREDICTED BY IDOCK:   -7.70 KCAL/MOL
REMARK 924 INTRA-LIGAND FREE ENERGY PREDICTED BY IDOCK:    1.13 KCAL/MOL
REMARK 927      BINDING AFFINITY PREDICTED BY RF-SCORE:    0.00 PKD
ROOT
HETATM    1  C   UNL     1      -7.656   8.598  70.842  1.00  0.00    -0.090 C  
HETATM    2  C   UNL     1      -6.487   9.409  69.994  1.00  0.00    -0.057 C  
HETATM    3  C   UNL     1      -6.267  10.975  70.039  1.00  0.00    -0.139 C  
HETATM    4  C   UNL     1      -5.637   8.719  68.889  1.00  0.00    -0.040 C  
HETATM    5  C   UNL     1      -6.350  11.932  68.818  1.00  0.00    -0.063 C  
HETATM    6  O   UNL     1      -5.878  11.479  71.104  1.00  0.00    -0.380 OA 
HETATM    7  C   UNL     1      -7.298  13.220  69.197  1.00  0.00     0.115 C  
HETATM    8  C   UNL     1      -6.495  11.180  67.505  1.00  0.00    -0.069 C  
HETATM    9  C   UNL     1      -7.868  14.116  67.956  1.00  0.00    -0.146 C  
HETATM   10  C   UNL     1      -9.237  13.303  67.594  1.00  0.00    -0.209 C  
HETATM   11  O   UNL     1      -6.599  14.161  67.220  1.00  0.00    -0.274 OA 
HETATM   12  C   UNL     1      -8.336  15.553  67.633  1.00  0.00    -0.167 C  
HETATM   13  C   UNL     1      -5.621  15.057  67.861  1.00  0.00    -0.120 C  
HETATM   14  C   UNL     1     -10.349   8.750  69.906  1.00  0.00    -0.206 C  
HETATM   15  C   UNL     1     -10.782  13.683  67.653  1.00  0.00    -0.253 C  
HETATM   16  C   UNL     1     -11.444  14.332  66.441  1.00  0.00    -0.361 C  
HETATM   17  O   UNL     1      -8.021   5.983  72.920  1.00  0.00    -0.106 OA 
HETATM   18  C   UNL     1     -11.573  12.384  68.001  1.00  0.00    -0.347 C  
HETATM   19  O   UNL     1     -12.251  11.802  67.145  1.00  0.00    -0.446 OA 
HETATM   20  N   UNL     1      -7.219   7.192  71.082  1.00  0.00    -0.073 N  
HETATM   21  C   UNL     1     -11.399  11.792  69.397  1.00  0.00    -0.337 C  
HETATM   22  C   UNL     1     -12.087  10.480  69.642  1.00  0.00    -0.170 C  
HETATM   23  C   UNL     1     -11.793  12.757  70.511  1.00  0.00    -0.142 C  
HETATM   24  C   UNL     1      -8.183   6.688  71.945  1.00  0.00    -0.103 C  
HETATM   25  O   UNL     1      -9.383   7.026  71.413  1.00  0.00    -0.156 OA 
HETATM   26  C   UNL     1      -9.859   8.936  72.435  1.00  0.00    -0.054 C  
HETATM   27  O   UNL     1     -13.269  10.219  69.417  1.00  0.00     0.493 OA 
HETATM   28  O   UNL     1     -11.306   9.725  70.466  1.00  0.00    -0.269 OA 
HETATM   29  C   UNL     1      -9.292   8.447  71.046  1.00  0.00    -0.171 C  
ENDROOT
BRANCH  10  30
HETATM   30  O   UNL     1      -8.990  12.059  67.038  1.00  0.00    -0.184 OA 
BRANCH  30  31
HETATM   31  C   UNL     1      -8.634  11.920  65.677  1.00  0.00     0.403 C  
HETATM   32  C   UNL     1      -8.090  10.500  65.262  1.00  0.00    -0.131 C  
HETATM   33  C   UNL     1      -8.447  10.168  63.784  1.00  0.00    -0.181 C  
HETATM   34  O   UNL     1      -9.867  12.347  65.153  1.00  0.00    -0.232 OA 
HETATM   35  C   UNL     1     -10.308  11.947  63.893  1.00  0.00    -0.389 C  
HETATM   36  H   UNL     1      -6.331   9.621  65.219  1.00  0.00     0.000 HD 
HETATM   37  C   UNL     1      -9.908  10.538  63.498  1.00  0.00    -0.339 C  
HETATM   38  O   UNL     1      -6.659  10.477  65.469  1.00  0.00    -0.124 OA 
HETATM   39  C   UNL     1     -11.834  12.037  64.007  1.00  0.00    -0.500 C  
BRANCH  33  40
HETATM   40  N   UNL     1      -8.156   8.829  63.195  1.00  0.00    -0.168 NA 
HETATM   41  C   UNL     1      -8.387   7.613  63.971  1.00  0.00     0.126 C  
HETATM   42  C   UNL     1      -6.941   8.690  62.404  1.00  0.00    -0.094 C  
ENDBRANCH  33  40
ENDBRANCH  30  31
ENDBRANCH  10  30
BRANCH  14  43
HETATM   43  C   UNL     1     -11.300   7.599  69.479  1.00  0.00     0.173 C  
HETATM   44  C   UNL     1     -10.851   6.691  68.358  1.00  0.00    -0.320 C  
ENDBRANCH  14  43
BRANCH  20  45
HETATM   45  C   UNL     1      -7.152   6.275  69.936  1.00  0.00    -0.072 C  
BRANCH  45  46
HETATM   46  C   UNL     1      -6.544   4.914  70.281  1.00  0.00    -0.036 C  
BRANCH  46  47
HETATM   47  C   UNL     1      -5.361   4.550  69.384  1.00  0.00    -0.008 C  
BRANCH  47  48
HETATM   48  C   UNL     1      -5.585   5.007  67.948  1.00  0.00    -0.016 C  
BRANCH  48  49
HETATM   49  N   UNL     1      -6.452   4.101  67.230  1.00  0.00    -0.041 NA 
HETATM   50  C   UNL     1      -6.416   2.738  67.265  1.00  0.00    -0.036 A  
HETATM   51  N   UNL     1      -7.294   2.220  66.433  1.00  0.00    -0.060 NA 
HETATM   52  C   UNL     1      -7.908   3.294  65.830  1.00  0.00    -0.085 A  
HETATM   53  C   UNL     1      -7.418   4.471  66.345  1.00  0.00    -0.082 A  
BRANCH  52  54
HETATM   54  C   UNL     1      -8.910   3.153  64.795  1.00  0.00    -0.118 A  
HETATM   55  C   UNL     1      -8.696   2.301  63.710  1.00  0.00    -0.086 A  
HETATM   56  C   UNL     1      -9.645   2.236  62.692  1.00  0.00    -0.089 A  
HETATM   57  C   UNL     1     -10.776   3.034  62.783  1.00  0.00    -0.187 A  
HETATM   58  N   UNL     1     -11.045   3.835  63.833  1.00  0.00    -0.281 NA 
HETATM   59  C   UNL     1     -10.101   3.874  64.809  1.00  0.00    -0.198 A  
ENDBRANCH  52  54
ENDBRANCH  48  49
ENDBRANCH  47  48
ENDBRANCH  46  47
ENDBRANCH  45  46
ENDBRANCH  20  45
TORSDOF 10
ENDMDL
MODEL        7
REMARK 921   NORMALIZED FREE ENERGY PREDICTED BY IDOCK:   -4.23 KCAL/MOL
REMARK 922        TOTAL FREE ENERGY PREDICTED BY IDOCK:   -6.31 KCAL/MOL
REMARK 923 INTER-LIGAND FREE ENERGY PREDICTED BY IDOCK:   -5.99 KCAL/MOL
REMARK 924 INTRA-LIGAND FREE ENERGY PREDICTED BY IDOCK:   -0.32 KCAL/MOL
REMARK 927      BINDING AFFINITY PREDICTED BY RF-SCORE:    0.00 PKD
ROOT
HETATM    1  C   UNL     1      -7.754   9.959  65.277  1.00  0.00    -0.129 C  
HETATM    2  C   UNL     1      -9.298  10.362  64.837  1.00  0.00    -0.294 C  
HETATM    3  C   UNL     1      -9.711  11.729  64.156  1.00  0.00    -0.151 C  
HETATM    4  C   UNL     1     -10.529   9.515  65.268  1.00  0.00     0.928 C  
HETATM    5  C   UNL     1     -10.718  12.759  64.739  1.00  0.00    -0.340 C  
HETATM    6  O   UNL     1      -9.299  11.956  63.007  1.00  0.00    -0.326 OA 
HETATM    7  C   UNL     1     -10.058  14.263  64.676  1.00  0.00     0.010 C  
HETATM    8  C   UNL     1     -11.423  12.236  65.980  1.00  0.00    -0.434 C  
HETATM    9  C   UNL     1     -10.743  15.416  65.610  1.00  0.00    -0.369 C  
HETATM   10  C   UNL     1      -9.936  15.195  67.011  1.00  0.00    -0.241 C  
HETATM   11  O   UNL     1     -12.127  15.063  65.276  1.00  0.00    -0.178 OA 
HETATM   12  C   UNL     1     -10.937  16.948  65.670  1.00  0.00     0.026 C  
HETATM   13  C   UNL     1     -12.488  15.478  63.909  1.00  0.00     0.449 C  
HETATM   14  C   UNL     1      -6.660  11.169  67.621  1.00  0.00    -0.070 C  
HETATM   15  C   UNL     1      -8.935  16.105  67.852  1.00  0.00    -0.183 C  
HETATM   16  C   UNL     1      -9.490  17.061  68.904  1.00  0.00    -0.235 C  
HETATM   17  O   UNL     1      -5.514   7.477  64.934  1.00  0.00    -0.032 OA 
HETATM   18  C   UNL     1      -7.909  15.158  68.548  1.00  0.00    -0.135 C  
HETATM   19  O   UNL     1      -7.963  14.945  69.765  1.00  0.00    -0.103 OA 
HETATM   20  N   UNL     1      -7.603   8.475  65.285  1.00  0.00    -0.086 N  
HETATM   21  C   UNL     1      -6.906  14.417  67.667  1.00  0.00    -0.202 C  
HETATM   22  C   UNL     1      -6.022  13.430  68.371  1.00  0.00    -0.092 C  
HETATM   23  C   UNL     1      -6.026  15.351  66.844  1.00  0.00     0.900 C  
HETATM   24  C   UNL     1      -6.243   8.279  65.482  1.00  0.00    -0.045 C  
HETATM   25  O   UNL     1      -5.890   9.080  66.517  1.00  0.00    -0.052 OA 
HETATM   26  C   UNL     1      -5.201  10.928  65.505  1.00  0.00    -0.136 C  
HETATM   27  O   UNL     1      -5.345  13.640  69.379  1.00  0.00    -0.082 OA 
HETATM   28  O   UNL     1      -5.805  12.370  67.542  1.00  0.00    -0.112 OA 
HETATM   29  C   UNL     1      -6.487  10.397  66.249  1.00  0.00    -0.102 C  
ENDROOT
BRANCH  10  30
HETATM   30  O   UNL     1     -10.264  14.004  67.637  1.00  0.00    -0.238 OA 
BRANCH  30  31
HETATM   31  C   UNL     1     -10.538  13.952  69.022  1.00  0.00    -0.167 C  
HETATM   32  C   UNL     1     -11.952  14.499  69.453  1.00  0.00    -0.322 C  
HETATM   33  C   UNL     1     -12.484  13.758  70.714  1.00  0.00    -0.370 C  
HETATM   34  O   UNL     1     -10.270  12.581  69.179  1.00  0.00     0.041 OA 
HETATM   35  C   UNL     1     -10.851  11.832  70.201  1.00  0.00     0.802 C  
HETATM   36  H   UNL     1     -12.694  16.250  69.953  1.00  0.00     0.000 HD 
HETATM   37  C   UNL     1     -12.262  12.246  70.570  1.00  0.00    -0.387 C  
HETATM   38  O   UNL     1     -11.841  15.920  69.694  1.00  0.00    -0.333 OA 
HETATM   39  C   UNL     1     -10.863  10.407  69.633  1.00  0.00    -0.320 C  
BRANCH  33  40
HETATM   40  N   UNL     1     -13.858  14.004  71.239  1.00  0.00    -0.185 NA 
HETATM   41  C   UNL     1     -14.407  15.357  71.272  1.00  0.00    -0.289 C  
HETATM   42  C   UNL     1     -14.265  13.274  72.431  1.00  0.00    -0.234 C  
ENDBRANCH  33  40
ENDBRANCH  30  31
ENDBRANCH  10  30
BRANCH  14  43
HETATM   43  C   UNL     1      -6.114  10.488  68.906  1.00  0.00    -0.040 C  
HETATM   44  C   UNL     1      -7.065  10.301  70.065  1.00  0.00    -0.161 C  
ENDBRANCH  14  43
BRANCH  20  45
HETATM   45  C   UNL     1      -8.299   7.707  66.326  1.00  0.00    -0.133 C  
BRANCH  45  46
HETATM   46  C   UNL     1      -8.331   6.201  66.053  1.00  0.00    -0.136 C  
BRANCH  46  47
HETATM   47  C   UNL     1      -7.965   5.369  67.282  1.00  0.00    -0.101 C  
BRANCH  47  48
HETATM   48  C   UNL     1      -8.354   3.908  67.104  1.00  0.00    -0.099 C  
BRANCH  48  49
HETATM   49  N   UNL     1      -8.595   3.262  68.375  1.00  0.00    -0.088 NA 
HETATM   50  C   UNL     1      -8.532   1.925  68.636  1.00  0.00    -0.059 A  
HETATM   51  N   UNL     1      -8.884   1.668  69.877  1.00  0.00    -0.057 NA 
HETATM   52  C   UNL     1      -9.199   2.888  70.431  1.00  0.00    -0.140 A  
HETATM   53  C   UNL     1      -8.987   3.893  69.516  1.00  0.00    -0.106 A  
BRANCH  52  54
HETATM   54  C   UNL     1      -9.693   3.039  71.783  1.00  0.00    -0.231 A  
HETATM   55  C   UNL     1      -9.535   2.012  72.716  1.00  0.00    -0.125 A  
HETATM   56  C   UNL     1     -10.080   2.154  73.990  1.00  0.00    -0.158 A  
HETATM   57  C   UNL     1     -10.779   3.314  74.291  1.00  0.00    -0.148 A  
HETATM   58  N   UNL     1     -10.915   4.349  73.438  1.00  0.00    -0.264 NA 
HETATM   59  C   UNL     1     -10.371   4.180  72.205  1.00  0.00    -0.127 A  
ENDBRANCH  52  54
ENDBRANCH  48  49
ENDBRANCH  47  48
ENDBRANCH  46  47
ENDBRANCH  45  46
ENDBRANCH  20  45
TORSDOF 10
ENDMDL
MODEL        8
REMARK 921   NORMALIZED FREE ENERGY PREDICTED BY IDOCK:   -3.96 KCAL/MOL
REMARK 922        TOTAL FREE ENERGY PREDICTED BY IDOCK:   -5.88 KCAL/MOL
REMARK 923 INTER-LIGAND FREE ENERGY PREDICTED BY IDOCK:   -5.69 KCAL/MOL
REMARK 924 INTRA-LIGAND FREE ENERGY PREDICTED BY IDOCK:   -0.19 KCAL/MOL
REMARK 927      BINDING AFFINITY PREDICTED BY RF-SCORE:    0.00 PKD
ROOT
HETATM    1  C   UNL     1      -7.701   9.834  64.879  1.00  0.00    -0.127 C  
HETATM    2  C   UNL     1      -9.244  10.308  64.509  1.00  0.00    -0.295 C  
HETATM    3  C   UNL     1      -9.640  11.745  63.978  1.00  0.00    -0.095 C  
HETATM    4  C   UNL     1     -10.485   9.444  64.871  1.00  0.00     1.904 C  
HETATM    5  C   UNL     1     -10.618  12.727  64.680  1.00  0.00    -0.371 C  
HETATM    6  O   UNL     1      -9.241  12.082  62.852  1.00  0.00    -0.191 OA 
HETATM    7  C   UNL     1      -9.930  14.217  64.761  1.00  0.00    -0.009 C  
HETATM    8  C   UNL     1     -11.315  12.092  65.873  1.00  0.00    -0.407 C  
HETATM    9  C   UNL     1     -10.579  15.280  65.819  1.00  0.00    -0.347 C  
HETATM   10  C   UNL     1      -9.755  14.903  67.178  1.00  0.00    -0.228 C  
HETATM   11  O   UNL     1     -11.974  14.988  65.475  1.00  0.00    -0.172 OA 
HETATM   12  C   UNL     1     -10.742  16.801  66.040  1.00  0.00    -0.139 C  
HETATM   13  C   UNL     1     -12.348  15.548  64.164  1.00  0.00     0.066 C  
HETATM   14  C   UNL     1      -6.550  10.777  67.316  1.00  0.00    -0.075 C  
HETATM   15  C   UNL     1      -8.725  15.703  68.090  1.00  0.00    -0.168 C  
HETATM   16  C   UNL     1      -9.245  16.555  69.244  1.00  0.00    -0.122 C  
HETATM   17  O   UNL     1      -5.516   7.362  64.245  1.00  0.00    -0.032 OA 
HETATM   18  C   UNL     1      -7.708  14.671  68.668  1.00  0.00    -0.135 C  
HETATM   19  O   UNL     1      -7.747  14.336  69.858  1.00  0.00     0.266 OA 
HETATM   20  N   UNL     1      -7.580   8.355  64.732  1.00  0.00    -0.096 N  
HETATM   21  C   UNL     1      -6.732  14.008  67.699  1.00  0.00    -0.188 C  
HETATM   22  C   UNL     1      -5.857  12.937  68.283  1.00  0.00    -0.079 C  
HETATM   23  C   UNL     1      -5.846  15.005  66.962  1.00  0.00     0.940 C  
HETATM   24  C   UNL     1      -6.221   8.116  64.885  1.00  0.00    -0.049 C  
HETATM   25  O   UNL     1      -5.837   8.800  65.991  1.00  0.00    -0.046 OA 
HETATM   26  C   UNL     1      -5.127  10.730  65.162  1.00  0.00    -0.145 C  
HETATM   27  O   UNL     1      -5.161  13.031  69.296  1.00  0.00    -0.073 OA 
HETATM   28  O   UNL     1      -5.673  11.964  67.347  1.00  0.00    -0.083 OA 
HETATM   29  C   UNL     1      -6.412  10.148  65.869  1.00  0.00    -0.104 C  
ENDROOT
BRANCH  10  30
HETATM   30  O   UNL     1     -10.097  13.659  67.683  1.00  0.00    -0.235 OA 
BRANCH  30  31
HETATM   31  C   UNL     1     -10.455  13.490  69.040  1.00  0.00    -0.051 C  
HETATM   32  C   UNL     1     -11.781  14.217  69.484  1.00  0.00    -0.312 C  
HETATM   33  C   UNL     1     -12.501  13.433  70.620  1.00  0.00    -0.311 C  
HETATM   34  O   UNL     1     -10.429  12.084  69.030  1.00  0.00    -0.166 OA 
HETATM   35  C   UNL     1     -11.184  11.330  69.926  1.00  0.00    -0.187 C  
HETATM   36  H   UNL     1     -12.250  15.997  70.176  1.00  0.00     0.000 HD 
HETATM   37  C   UNL     1     -12.526  11.933  70.293  1.00  0.00    -0.199 C  
HETATM   38  O   UNL     1     -11.451  15.559  69.908  1.00  0.00    -0.275 OA 
HETATM   39  C   UNL     1     -11.399  10.007  69.181  1.00  0.00    -0.146 C  
BRANCH  33  40
HETATM   40  N   UNL     1     -13.843  13.847  71.121  1.00  0.00    -0.057 NA 
HETATM   41  C   UNL     1     -14.266  15.243  71.041  1.00  0.00    -0.175 C  
HETATM   42  C   UNL     1     -14.307  13.260  72.370  1.00  0.00    -0.095 C  
ENDBRANCH  33  40
ENDBRANCH  30  31
ENDBRANCH  10  30
BRANCH  14  43
HETATM   43  C   UNL     1      -5.998   9.958  68.515  1.00  0.00    -0.042 C  
HETATM   44  C   UNL     1      -6.986   9.182  69.354  1.00  0.00    -0.052 C  
ENDBRANCH  14  43
BRANCH  20  45
HETATM   45  C   UNL     1      -8.274   7.496  65.700  1.00  0.00    -0.133 C  
BRANCH  45  46
HETATM   46  C   UNL     1      -7.370   6.437  66.333  1.00  0.00    -0.081 C  
BRANCH  46  47
HETATM   47  C   UNL     1      -7.701   6.178  67.803  1.00  0.00    -0.098 C  
BRANCH  47  48
HETATM   48  C   UNL     1      -8.707   5.045  67.959  1.00  0.00    -0.102 C  
BRANCH  48  49
HETATM   49  N   UNL     1      -9.550   5.238  69.118  1.00  0.00    -0.134 NA 
HETATM   50  C   UNL     1      -9.933   4.284  70.014  1.00  0.00    -0.126 A  
HETATM   51  N   UNL     1     -10.765   4.780  70.905  1.00  0.00     0.080 NA 
HETATM   52  C   UNL     1     -10.932   6.102  70.558  1.00  0.00    -0.318 A  
HETATM   53  C   UNL     1     -10.151   6.407  69.468  1.00  0.00    -0.170 A  
BRANCH  52  54
HETATM   54  C   UNL     1     -11.825   6.997  71.261  1.00  0.00    -0.371 A  
HETATM   55  C   UNL     1     -13.197   6.985  71.000  1.00  0.00    -0.124 A  
HETATM   56  C   UNL     1     -14.025   7.903  71.639  1.00  0.00    -0.482 A  
HETATM   57  C   UNL     1     -13.457   8.818  72.514  1.00  0.00    -0.356 A  
HETATM   58  N   UNL     1     -12.147   8.835  72.832  1.00  0.00    -0.058 NA 
HETATM   59  C   UNL     1     -11.367   7.926  72.193  1.00  0.00    -0.313 A  
ENDBRANCH  52  54
ENDBRANCH  48  49
ENDBRANCH  47  48
ENDBRANCH  46  47
ENDBRANCH  45  46
ENDBRANCH  20  45
TORSDOF 10
ENDMDL
MODEL        9
REMARK 921   NORMALIZED FREE ENERGY PREDICTED BY IDOCK:   -3.67 KCAL/MOL
REMARK 922        TOTAL FREE ENERGY PREDICTED BY IDOCK:   -5.41 KCAL/MOL
REMARK 923 INTER-LIGAND FREE ENERGY PREDICTED BY IDOCK:   -3.72 KCAL/MOL
REMARK 924 INTRA-LIGAND FREE ENERGY PREDICTED BY IDOCK:   -1.69 KCAL/MOL
REMARK 927      BINDING AFFINITY PREDICTED BY RF-SCORE:    0.00 PKD
ROOT
HETATM    1  C   UNL     1      -8.872   8.391  68.127  1.00  0.00    -0.142 C  
HETATM    2  C   UNL     1      -8.927   9.483  69.371  1.00  0.00    -0.174 C  
HETATM    3  C   UNL     1     -10.190  10.361  69.740  1.00  0.00    -0.184 C  
HETATM    4  C   UNL     1      -7.653   9.913  70.152  1.00  0.00    -0.185 C  
HETATM    5  C   UNL     1     -10.236  11.915  69.753  1.00  0.00     1.017 C  
HETATM    6  O   UNL     1     -11.198   9.781  70.175  1.00  0.00    -0.247 OA 
HETATM    7  C   UNL     1     -11.564  12.427  68.933  1.00  0.00    -0.364 C  
HETATM    8  C   UNL     1      -8.864  12.533  69.538  1.00  0.00     1.608 C  
HETATM    9  C   UNL     1     -11.586  13.989  68.454  1.00  0.00    -0.331 C  
HETATM   10  C   UNL     1     -10.826  13.880  67.014  1.00  0.00    -0.285 C  
HETATM   11  O   UNL     1     -11.088  14.533  69.722  1.00  0.00    -0.251 OA 
HETATM   12  C   UNL     1     -12.580  15.127  68.127  1.00  0.00     0.841 C  
HETATM   13  C   UNL     1     -12.112  14.490  70.781  1.00  0.00    -0.329 C  
HETATM   14  C   UNL     1      -8.643   9.392  65.463  1.00  0.00    -0.151 C  
HETATM   15  C   UNL     1     -11.283  14.148  65.512  1.00  0.00    -0.317 C  
HETATM   16  C   UNL     1     -11.133  15.545  64.918  1.00  0.00    -0.428 C  
HETATM   17  O   UNL     1      -8.044   5.193  67.508  1.00  0.00    -0.099 OA 
HETATM   18  C   UNL     1     -10.511  13.146  64.599  1.00  0.00    -0.392 C  
HETATM   19  O   UNL     1      -9.589  13.529  63.869  1.00  0.00     0.657 OA 
HETATM   20  N   UNL     1      -7.856   7.339  68.425  1.00  0.00    -0.120 N  
HETATM   21  C   UNL     1     -10.855  11.663  64.712  1.00  0.00    -0.367 C  
HETATM   22  C   UNL     1     -10.003  10.730  63.901  1.00  0.00    -0.343 C  
HETATM   23  C   UNL     1     -12.319  11.362  64.412  1.00  0.00     0.518 C  
HETATM   24  C   UNL     1      -8.040   6.404  67.416  1.00  0.00    -0.116 C  
HETATM   25  O   UNL     1      -8.086   7.103  66.255  1.00  0.00    -0.109 OA 
HETATM   26  C   UNL     1     -10.258   7.440  65.964  1.00  0.00     0.669 C  
HETATM   27  O   UNL     1      -9.751  10.826  62.699  1.00  0.00    -0.280 OA 
HETATM   28  O   UNL     1      -9.830   9.575  64.604  1.00  0.00    -0.028 OA 
HETATM   29  C   UNL     1      -8.998   8.233  66.484  1.00  0.00    -0.156 C  
ENDROOT
BRANCH  10  30
HETATM   30  O   UNL     1      -9.480  13.576  67.140  1.00  0.00    -0.227 OA 
BRANCH  30  31
HETATM   31  C   UNL     1      -8.483  14.557  66.941  1.00  0.00    -0.150 C  
HETATM   32  C   UNL     1      -8.581  15.821  67.878  1.00  0.00    -0.159 C  
HETATM   33  C   UNL     1      -7.174  16.418  68.170  1.00  0.00    -0.143 C  
HETATM   34  O   UNL     1      -7.385  13.692  67.091  1.00  0.00    -0.075 OA 
HETATM   35  C   UNL     1      -6.138  14.153  67.508  1.00  0.00     0.063 C  
HETATM   36  H   UNL     1      -9.498  17.559  67.809  1.00  0.00     0.000 HD 
HETATM   37  C   UNL     1      -6.184  15.294  68.506  1.00  0.00    -0.093 C  
HETATM   38  O   UNL     1      -9.438  16.798  67.244  1.00  0.00    -0.226 OA 
HETATM   39  C   UNL     1      -5.506  12.919  68.164  1.00  0.00    -0.085 C  
BRANCH  33  40
HETATM   40  N   UNL     1      -6.990  17.538  69.136  1.00  0.00    -0.238 NA 
HETATM   41  C   UNL     1      -7.334  18.906  68.758  1.00  0.00    -0.322 C  
HETATM   42  C   UNL     1      -5.780  17.538  69.947  1.00  0.00    -0.250 C  
ENDBRANCH  33  40
ENDBRANCH  30  31
ENDBRANCH  10  30
BRANCH  14  43
HETATM   43  C   UNL     1      -7.541   9.109  64.406  1.00  0.00    -0.115 C  
HETATM   44  C   UNL     1      -6.100   9.158  64.859  1.00  0.00    -0.065 C  
ENDBRANCH  14  43
BRANCH  20  45
HETATM   45  C   UNL     1      -6.436   7.714  68.406  1.00  0.00    -0.052 C  
BRANCH  45  46
HETATM   46  C   UNL     1      -5.489   6.512  68.423  1.00  0.00    -0.012 C  
BRANCH  46  47
HETATM   47  C   UNL     1      -5.270   5.950  69.827  1.00  0.00    -0.005 C  
BRANCH  47  48
HETATM   48  C   UNL     1      -5.774   6.908  70.898  1.00  0.00    -0.027 C  
BRANCH  48  49
HETATM   49  N   UNL     1      -6.868   6.338  71.651  1.00  0.00    -0.063 NA 
HETATM   50  C   UNL     1      -7.413   6.832  72.800  1.00  0.00    -0.090 A  
HETATM   51  N   UNL     1      -8.341   6.026  73.268  1.00  0.00    -0.115 NA 
HETATM   52  C   UNL     1      -8.386   4.966  72.391  1.00  0.00    -0.120 A  
HETATM   53  C   UNL     1      -7.498   5.167  71.360  1.00  0.00    -0.091 A  
BRANCH  52  54
HETATM   54  C   UNL     1      -9.248   3.820  72.579  1.00  0.00    -0.144 A  
HETATM   55  C   UNL     1      -8.985   2.615  71.922  1.00  0.00    -0.130 A  
HETATM   56  C   UNL     1      -9.868   1.549  72.066  1.00  0.00    -0.196 A  
HETATM   57  C   UNL     1     -10.999   1.720  72.852  1.00  0.00    -0.119 A  
HETATM   58  N   UNL     1     -11.268   2.847  73.540  1.00  0.00    -0.220 NA 
HETATM   59  C   UNL     1     -10.386   3.867  73.381  1.00  0.00    -0.162 A  
ENDBRANCH  52  54
ENDBRANCH  48  49
ENDBRANCH  47  48
ENDBRANCH  46  47
ENDBRANCH  45  46
ENDBRANCH  20  45
TORSDOF 10
ENDMDL
MODEL       10
REMARK 921   NORMALIZED FREE ENERGY PREDICTED BY IDOCK:   -2.05 KCAL/MOL
REMARK 922        TOTAL FREE ENERGY PREDICTED BY IDOCK:   -2.86 KCAL/MOL
REMARK 923 INTER-LIGAND FREE ENERGY PREDICTED BY IDOCK:   -3.81 KCAL/MOL
REMARK 924 INTRA-LIGAND FREE ENERGY PREDICTED BY IDOCK:    0.95 KCAL/MOL
REMARK 927      BINDING AFFINITY PREDICTED BY RF-SCORE:    0.00 PKD
ROOT
HETATM    1  C   UNL     1     -10.076  12.497  67.880  1.00  0.00    -0.214 C  
HETATM    2  C   UNL     1      -9.523  11.547  69.118  1.00  0.00     0.185 C  
HETATM    3  C   UNL     1      -8.056  10.962  69.217  1.00  0.00    -0.055 C  
HETATM    4  C   UNL     1     -10.476  10.950  70.192  1.00  0.00     0.307 C  
HETATM    5  C   UNL     1      -7.689   9.453  69.280  1.00  0.00    -0.083 C  
HETATM    6  O   UNL     1      -7.119  11.760  69.380  1.00  0.00    -0.076 OA 
HETATM    7  C   UNL     1      -6.498   9.136  68.193  1.00  0.00    -0.059 C  
HETATM    8  C   UNL     1      -8.917   8.567  69.417  1.00  0.00    -0.149 C  
HETATM    9  C   UNL     1      -6.261   7.571  67.785  1.00  0.00    -0.048 C  
HETATM   10  C   UNL     1      -7.327   7.408  66.560  1.00  0.00    -0.084 C  
HETATM   11  O   UNL     1      -6.343   7.054  69.156  1.00  0.00    -0.033 OA 
HETATM   12  C   UNL     1      -5.151   6.622  67.280  1.00  0.00    -0.008 C  
HETATM   13  C   UNL     1      -5.142   7.383  69.943  1.00  0.00    -0.019 C  
HETATM   14  C   UNL     1     -10.676  11.244  65.385  1.00  0.00    -0.227 C  
HETATM   15  C   UNL     1      -7.168   7.104  65.005  1.00  0.00    -0.074 C  
HETATM   16  C   UNL     1      -7.154   5.658  64.518  1.00  0.00    -0.053 C  
HETATM   17  O   UNL     1     -11.662  15.410  67.344  1.00  0.00    -0.215 OA 
HETATM   18  C   UNL     1      -8.312   7.857  64.258  1.00  0.00     0.035 C  
HETATM   19  O   UNL     1      -9.274   7.242  63.781  1.00  0.00     1.446 OA 
HETATM   20  N   UNL     1     -11.195  13.356  68.365  1.00  0.00    -0.262 N  
HETATM   21  C   UNL     1      -8.265   9.383  64.229  1.00  0.00    -0.153 C  
HETATM   22  C   UNL     1      -9.449  10.061  63.603  1.00  0.00    -0.197 C  
HETATM   23  C   UNL     1      -6.998   9.932  63.582  1.00  0.00    -0.123 C  
HETATM   24  C   UNL     1     -11.436  14.218  67.304  1.00  0.00    -0.352 C  
HETATM   25  O   UNL     1     -11.504  13.444  66.193  1.00  0.00    -0.311 OA 
HETATM   26  C   UNL     1      -9.429  13.505  65.415  1.00  0.00     0.232 C  
HETATM   27  O   UNL     1      -9.935   9.815  62.498  1.00  0.00     0.335 OA 
HETATM   28  O   UNL     1      -9.697  11.218  64.280  1.00  0.00    -0.237 OA 
HETATM   29  C   UNL     1     -10.351  12.533  66.248  1.00  0.00    -0.250 C  
ENDROOT
BRANCH  10  30
HETATM   30  O   UNL     1      -8.644   7.459  66.986  1.00  0.00    -0.116 OA 
BRANCH  30  31
HETATM   31  C   UNL     1      -9.384   6.279  67.226  1.00  0.00    -0.118 C  
HETATM   32  C   UNL     1      -8.575   5.095  67.880  1.00  0.00    -0.103 C  
HETATM   33  C   UNL     1      -9.489   4.216  68.782  1.00  0.00    -0.163 C  
HETATM   34  O   UNL     1     -10.405   6.890  67.976  1.00  0.00    -0.169 OA 
HETATM   35  C   UNL     1     -11.150   6.182  68.917  1.00  0.00    -0.345 C  
HETATM   36  H   UNL     1      -7.489   3.595  67.218  1.00  0.00     0.000 HD 
HETATM   37  C   UNL     1     -10.379   5.108  69.659  1.00  0.00    -0.316 C  
HETATM   38  O   UNL     1      -7.977   4.309  66.824  1.00  0.00    -0.097 OA 
HETATM   39  C   UNL     1     -11.600   7.268  69.901  1.00  0.00    -0.021 C  
BRANCH  33  40
HETATM   40  N   UNL     1      -8.932   3.111  69.613  1.00  0.00    -0.092 NA 
HETATM   41  C   UNL     1      -9.571   2.736  70.872  1.00  0.00    -0.132 C  
HETATM   42  C   UNL     1      -7.484   3.036  69.751  1.00  0.00    -0.044 C  
ENDBRANCH  33  40
ENDBRANCH  30  31
ENDBRANCH  10  30
BRANCH  14  43
HETATM   43  C   UNL     1     -12.019  11.218  64.605  1.00  0.00     0.511 C  
HETATM   44  C   UNL     1     -12.188  12.186  63.457  1.00  0.00    -0.670 C  
ENDBRANCH  14  43
BRANCH  20  45
HETATM   45  C   UNL     1     -12.476  12.716  68.693  1.00  0.00     0.576 C  
BRANCH  45  46
HETATM   46  C   UNL     1     -12.893  12.904  70.153  1.00  0.00     0.309 C  
BRANCH  46  47
HETATM   47  C   UNL     1     -13.217  14.359  70.494  1.00  0.00    -0.094 C  
BRANCH  47  48
HETATM   48  C   UNL     1     -12.158  14.970  71.402  1.00  0.00    -0.339 C  
BRANCH  48  49
HETATM   49  N   UNL     1     -11.061  15.527  70.642  1.00  0.00    -0.331 NA 
HETATM   50  C   UNL     1      -9.799  15.022  70.541  1.00  0.00     0.662 A  
HETATM   51  N   UNL     1      -9.026  15.817  69.834  1.00  0.00     0.051 NA 
HETATM   52  C   UNL     1      -9.821  16.882  69.477  1.00  0.00     0.049 A  
HETATM   53  C   UNL     1     -11.101  16.694  69.943  1.00  0.00    -0.117 A  
BRANCH  52  54
HETATM   54  C   UNL     1      -9.331  18.020  68.731  1.00  0.00    -0.251 A  
HETATM   55  C   UNL     1      -7.999  18.076  68.312  1.00  0.00    -0.294 A  
HETATM   56  C   UNL     1      -7.534  19.213  67.656  1.00  0.00    -0.263 A  
HETATM   57  C   UNL     1      -8.411  20.268  67.447  1.00  0.00    -0.340 A  
HETATM   58  N   UNL     1      -9.714  20.238  67.791  1.00  0.00    -0.392 NA 
HETATM   59  C   UNL     1     -10.136  19.116  68.427  1.00  0.00    -0.418 A  
ENDBRANCH  52  54
ENDBRANCH  48  49
ENDBRANCH  47  48
ENDBRANCH  46  47
ENDBRANCH  45  46
ENDBRANCH  20  45
TORSDOF 10
ENDMDL
MODEL       11
REMARK 921   NORMALIZED FREE ENERGY PREDICTED BY IDOCK:   -1.99 KCAL/MOL
REMARK 922        TOTAL FREE ENERGY PREDICTED BY IDOCK:   -2.75 KCAL/MOL
REMARK 923 INTER-LIGAND FREE ENERGY PREDICTED BY IDOCK:   -3.86 KCAL/MOL
REMARK 924 INTRA-LIGAND FREE ENERGY PREDICTED BY IDOCK:    1.10 KCAL/MOL
REMARK 927      BINDING AFFINITY PREDICTED BY RF-SCORE:    0.00 PKD
ROOT
HETATM    1  C   UNL     1      -8.064   9.742  66.365  1.00  0.00    -0.116 C  
HETATM    2  C   UNL     1      -6.687  10.539  66.824  1.00  0.00    -0.091 C  
HETATM    3  C   UNL     1      -6.455  11.184  68.250  1.00  0.00    -0.057 C  
HETATM    4  C   UNL     1      -5.577  10.926  65.807  1.00  0.00    -0.138 C  
HETATM    5  C   UNL     1      -6.170  12.687  68.524  1.00  0.00    -0.067 C  
HETATM    6  O   UNL     1      -6.369  10.424  69.228  1.00  0.00    -0.044 OA 
HETATM    7  C   UNL     1      -7.158  13.219  69.724  1.00  0.00     0.451 C  
HETATM    8  C   UNL     1      -5.958  13.476  67.242  1.00  0.00     0.333 C  
HETATM    9  C   UNL     1      -7.337  14.836  69.879  1.00  0.00     0.005 C  
HETATM   10  C   UNL     1      -8.567  15.110  68.841  1.00  0.00    -0.200 C  
HETATM   11  O   UNL     1      -5.913  15.151  69.727  1.00  0.00    -0.117 OA 
HETATM   12  C   UNL     1      -7.665  15.907  70.944  1.00  0.00     2.894 C  
HETATM   13  C   UNL     1      -5.135  14.782  70.922  1.00  0.00    -0.127 C  
HETATM   14  C   UNL     1     -10.383  11.297  65.763  1.00  0.00    -0.258 C  
HETATM   15  C   UNL     1     -10.058  15.637  69.027  1.00  0.00    -0.227 C  
HETATM   16  C   UNL     1     -10.339  17.135  68.968  1.00  0.00    -0.331 C  
HETATM   17  O   UNL     1      -9.055   6.849  64.973  1.00  0.00     0.347 OA 
HETATM   18  C   UNL     1     -10.943  14.934  67.951  1.00  0.00    -0.286 C  
HETATM   19  O   UNL     1     -11.366  15.555  66.969  1.00  0.00    -0.244 OA 
HETATM   20  N   UNL     1      -7.744   8.764  65.286  1.00  0.00    -0.094 N  
HETATM   21  C   UNL     1     -11.181  13.432  68.090  1.00  0.00    -0.304 C  
HETATM   22  C   UNL     1     -11.938  12.784  66.968  1.00  0.00    -0.295 C  
HETATM   23  C   UNL     1     -11.850  13.050  69.406  1.00  0.00    -0.380 C  
HETATM   24  C   UNL     1      -8.922   8.046  65.128  1.00  0.00     0.213 C  
HETATM   25  O   UNL     1      -9.917   8.963  65.045  1.00  0.00     0.530 OA 
HETATM   26  C   UNL     1     -10.619   9.126  67.142  1.00  0.00    -0.286 C  
HETATM   27  O   UNL     1     -13.016  13.154  66.500  1.00  0.00     0.162 OA 
HETATM   28  O   UNL     1     -11.437  11.532  66.770  1.00  0.00    -0.436 OA 
HETATM   29  C   UNL     1      -9.695   9.920  66.139  1.00  0.00    -0.236 C  
ENDROOT
BRANCH  10  30
HETATM   30  O   UNL     1      -8.201  14.927  67.518  1.00  0.00    -0.155 OA 
BRANCH  30  31
HETATM   31  C   UNL     1      -7.835  16.020  66.699  1.00  0.00    -0.231 C  
HETATM   32  C   UNL     1      -8.970  17.084  66.445  1.00  0.00    -0.275 C  
HETATM   33  C   UNL     1      -8.375  18.509  66.255  1.00  0.00    -0.213 C  
HETATM   34  O   UNL     1      -6.710  16.403  67.452  1.00  0.00    -0.136 OA 
HETATM   35  C   UNL     1      -6.231  17.711  67.442  1.00  0.00    -0.147 C  
HETATM   36  H   UNL     1     -10.411  17.319  65.129  1.00  0.00     0.000 HD 
HETATM   37  C   UNL     1      -7.301  18.779  67.318  1.00  0.00    -0.225 C  
HETATM   38  O   UNL     1      -9.727  16.678  65.282  1.00  0.00    -0.431 OA 
HETATM   39  C   UNL     1      -5.528  17.841  68.798  1.00  0.00    -0.168 C  
BRANCH  33  40
HETATM   40  N   UNL     1      -9.252  19.708  66.130  1.00  0.00    -0.368 NA 
HETATM   41  C   UNL     1      -9.331  20.685  67.213  1.00  0.00    -0.340 C  
HETATM   42  C   UNL     1     -10.568  19.522  65.535  1.00  0.00    -0.208 C  
ENDBRANCH  33  40
ENDBRANCH  30  31
ENDBRANCH  10  30
BRANCH  14  43
HETATM   43  C   UNL     1     -11.201  11.357  64.444  1.00  0.00    -0.277 C  
HETATM   44  C   UNL     1     -11.103  12.613  63.610  1.00  0.00    -0.496 C  
ENDBRANCH  14  43
BRANCH  20  45
HETATM   45  C   UNL     1      -7.378   9.279  63.960  1.00  0.00    -0.102 C  
BRANCH  45  46
HETATM   46  C   UNL     1      -6.380   8.390  63.216  1.00  0.00    -0.085 C  
BRANCH  46  47
HETATM   47  C   UNL     1      -5.530   7.537  64.157  1.00  0.00    -0.033 C  
BRANCH  47  48
HETATM   48  C   UNL     1      -5.691   6.051  63.864  1.00  0.00    -0.022 C  
BRANCH  48  49
HETATM   49  N   UNL     1      -5.899   5.289  65.074  1.00  0.00    -0.020 NA 
HETATM   50  C   UNL     1      -5.830   3.933  65.207  1.00  0.00    -0.022 A  
HETATM   51  N   UNL     1      -6.151   3.560  66.427  1.00  0.00    -0.024 NA 
HETATM   52  C   UNL     1      -6.450   4.723  67.101  1.00  0.00    -0.045 A  
HETATM   53  C   UNL     1      -6.261   5.809  66.279  1.00  0.00    -0.034 A  
BRANCH  52  54
HETATM   54  C   UNL     1      -6.908   4.745  68.473  1.00  0.00    -0.051 A  
HETATM   55  C   UNL     1      -7.570   5.864  68.984  1.00  0.00    -0.090 A  
HETATM   56  C   UNL     1      -7.940   5.888  70.326  1.00  0.00    -0.106 A  
HETATM   57  C   UNL     1      -7.627   4.798  71.124  1.00  0.00    -0.081 A  
HETATM   58  N   UNL     1      -7.033   3.679  70.663  1.00  0.00    -0.033 NA 
HETATM   59  C   UNL     1      -6.687   3.686  69.350  1.00  0.00    -0.037 A  
ENDBRANCH  52  54
ENDBRANCH  48  49
ENDBRANCH  47  48
ENDBRANCH  46  47
ENDBRANCH  45  46
ENDBRANCH  20  45
TORSDOF 10
ENDMDL
MODEL       12
REMARK 921   NORMALIZED FREE ENERGY PREDICTED BY IDOCK:   -1.90 KCAL/MOL
REMARK 922        TOTAL FREE ENERGY PREDICTED BY IDOCK:   -2.61 KCAL/MOL
REMARK 923 INTER-LIGAND FREE ENERGY PREDICTED BY IDOCK:   -3.56 KCAL/MOL
REMARK 924 INTRA-LIGAND FREE ENERGY PREDICTED BY IDOCK:    0.96 KCAL/MOL
REMARK 927      BINDING AFFINITY PREDICTED BY RF-SCORE:    0.00 PKD
ROOT
HETATM    1  C   UNL     1      -9.495   9.028  70.385  1.00  0.00    -0.210 C  
HETATM    2  C   UNL     1      -8.248   9.522  69.414  1.00  0.00    -0.126 C  
HETATM    3  C   UNL     1      -7.330  10.778  69.700  1.00  0.00    -0.103 C  
HETATM    4  C   UNL     1      -8.013   8.922  67.999  1.00  0.00    -0.102 C  
HETATM    5  C   UNL     1      -7.170  12.010  68.766  1.00  0.00    -0.108 C  
HETATM    6  O   UNL     1      -6.576  10.738  70.686  1.00  0.00    -0.332 OA 
HETATM    7  C   UNL     1      -7.340  13.387  69.646  1.00  0.00     0.524 C  
HETATM    8  C   UNL     1      -7.867  11.813  67.429  1.00  0.00    -0.155 C  
HETATM    9  C   UNL     1      -7.637  14.766  68.821  1.00  0.00    -0.137 C  
HETATM   10  C   UNL     1      -9.265  14.715  68.716  1.00  0.00    -0.184 C  
HETATM   11  O   UNL     1      -6.636  14.523  67.777  1.00  0.00    -0.151 OA 
HETATM   12  C   UNL     1      -7.440  16.294  68.935  1.00  0.00    -0.209 C  
HETATM   13  C   UNL     1      -5.262  14.717  68.273  1.00  0.00    -0.113 C  
HETATM   14  C   UNL     1     -11.932  10.514  70.311  1.00  0.00    -0.325 C  
HETATM   15  C   UNL     1     -10.427  15.641  69.289  1.00  0.00    -0.247 C  
HETATM   16  C   UNL     1     -10.913  16.833  68.471  1.00  0.00    -0.312 C  
HETATM   17  O   UNL     1     -10.660   6.278  71.927  1.00  0.00    -0.209 OA 
HETATM   18  C   UNL     1     -11.655  14.725  69.588  1.00  0.00    -0.304 C  
HETATM   19  O   UNL     1     -12.659  14.749  68.866  1.00  0.00     0.041 OA 
HETATM   20  N   UNL     1      -9.720   7.563  70.210  1.00  0.00    -0.179 N  
HETATM   21  C   UNL     1     -11.537  13.720  70.732  1.00  0.00     0.091 C  
HETATM   22  C   UNL     1     -12.697  12.783  70.901  1.00  0.00    -0.192 C  
HETATM   23  C   UNL     1     -11.246  14.375  72.078  1.00  0.00     1.180 C  
HETATM   24  C   UNL     1     -10.645   7.249  71.196  1.00  0.00    -0.222 C  
HETATM   25  O   UNL     1     -11.626   8.180  71.109  1.00  0.00    -0.273 OA 
HETATM   26  C   UNL     1     -10.989   9.714  72.578  1.00  0.00     1.927 C  
HETATM   27  O   UNL     1     -13.886  13.095  70.978  1.00  0.00     0.437 OA 
HETATM   28  O   UNL     1     -12.223  11.569  71.301  1.00  0.00    -0.255 OA 
HETATM   29  C   UNL     1     -10.956   9.485  71.017  1.00  0.00    -0.353 C  
ENDROOT
BRANCH  10  30
HETATM   30  O   UNL     1      -9.717  13.708  67.880  1.00  0.00    -0.219 OA 
BRANCH  30  31
HETATM   31  C   UNL     1      -9.503  13.760  66.484  1.00  0.00    -0.269 C  
HETATM   32  C   UNL     1     -10.296  12.693  65.637  1.00  0.00    -0.273 C  
HETATM   33  C   UNL     1     -10.643  13.239  64.222  1.00  0.00    -0.384 C  
HETATM   34  O   UNL     1      -9.832  15.119  66.330  1.00  0.00    -0.251 OA 
HETATM   35  C   UNL     1     -10.303  15.629  65.122  1.00  0.00    -0.334 C  
HETATM   36  H   UNL     1      -9.974  10.847  65.039  1.00  0.00     0.000 HD 
HETATM   37  C   UNL     1     -11.172  14.675  64.325  1.00  0.00    -0.057 C  
HETATM   38  O   UNL     1      -9.497  11.491  65.549  1.00  0.00    -0.224 OA 
HETATM   39  C   UNL     1     -11.131  16.846  65.550  1.00  0.00     0.134 C  
BRANCH  33  40
HETATM   40  N   UNL     1     -11.503  12.466  63.280  1.00  0.00    -0.417 NA 
HETATM   41  C   UNL     1     -12.894  12.174  63.616  1.00  0.00    -0.341 C  
HETATM   42  C   UNL     1     -10.906  11.322  62.605  1.00  0.00     0.762 C  
ENDBRANCH  33  40
ENDBRANCH  30  31
ENDBRANCH  10  30
BRANCH  14  43
HETATM   43  C   UNL     1     -13.363  10.023  69.958  1.00  0.00     0.707 C  
HETATM   44  C   UNL     1     -14.230   9.507  71.083  1.00  0.00     0.196 C  
ENDBRANCH  14  43
BRANCH  20  45
HETATM   45  C   UNL     1     -10.279   7.089  68.936  1.00  0.00    -0.180 C  
BRANCH  45  46
HETATM   46  C   UNL     1     -10.518   5.579  68.902  1.00  0.00    -0.282 C  
BRANCH  46  47
HETATM   47  C   UNL     1      -9.362   4.810  68.261  1.00  0.00    -0.177 C  
BRANCH  47  48
HETATM   48  C   UNL     1      -9.785   4.150  66.956  1.00  0.00    -0.197 C  
BRANCH  48  49
HETATM   49  N   UNL     1      -9.101   4.728  65.821  1.00  0.00    -0.136 NA 
HETATM   50  C   UNL     1      -8.595   4.059  64.746  1.00  0.00    -0.116 A  
HETATM   51  N   UNL     1      -7.966   4.878  63.931  1.00  0.00    -0.092 NA 
HETATM   52  C   UNL     1      -8.062   6.122  64.514  1.00  0.00    -0.118 A  
HETATM   53  C   UNL     1      -8.799   6.047  65.673  1.00  0.00    -0.109 A  
BRANCH  52  54
HETATM   54  C   UNL     1      -7.445   7.306  63.956  1.00  0.00    -0.100 A  
HETATM   55  C   UNL     1      -6.378   7.198  63.062  1.00  0.00    -0.052 A  
HETATM   56  C   UNL     1      -5.757   8.353  62.593  1.00  0.00    -0.075 A  
HETATM   57  C   UNL     1      -6.212   9.584  63.041  1.00  0.00    -0.101 A  
HETATM   58  N   UNL     1      -7.267   9.737  63.866  1.00  0.00    -0.117 NA 
HETATM   59  C   UNL     1      -7.852   8.592  64.303  1.00  0.00    -0.140 A  
ENDBRANCH  52  54
ENDBRANCH  48  49
ENDBRANCH  47  48
ENDBRANCH  46  47
ENDBRANCH  45  46
ENDBRANCH  20  45
TORSDOF 10
ENDMDL
MODEL       13
REMARK 921   NORMALIZED FREE ENERGY PREDICTED BY IDOCK:   -1.23 KCAL/MOL
REMARK 922        TOTAL FREE ENERGY PREDICTED BY IDOCK:   -1.55 KCAL/MOL
REMARK 923 INTER-LIGAND FREE ENERGY PREDICTED BY IDOCK:   -3.85 KCAL/MOL
REMARK 924 INTRA-LIGAND FREE ENERGY PREDICTED BY IDOCK:    2.30 KCAL/MOL
REMARK 927      BINDING AFFINITY PREDICTED BY RF-SCORE:    0.00 PKD
ROOT
HETATM    1  C   UNL     1      -7.912   7.763  71.906  1.00  0.00    -0.103 C  
HETATM    2  C   UNL     1      -6.659   8.455  71.073  1.00  0.00    -0.043 C  
HETATM    3  C   UNL     1      -6.340  10.004  71.052  1.00  0.00     0.030 C  
HETATM    4  C   UNL     1      -5.812   7.658  70.041  1.00  0.00    -0.023 C  
HETATM    5  C   UNL     1      -6.310  10.902  69.784  1.00  0.00    -0.114 C  
HETATM    6  O   UNL     1      -5.962  10.536  72.108  1.00  0.00     0.007 OA 
HETATM    7  C   UNL     1      -7.187  12.264  70.059  1.00  0.00     1.109 C  
HETATM    8  C   UNL     1      -6.451  10.094  68.503  1.00  0.00    -0.049 C  
HETATM    9  C   UNL     1      -7.646  13.130  68.752  1.00  0.00    -0.033 C  
HETATM   10  C   UNL     1      -9.049  12.388  68.370  1.00  0.00    -0.141 C  
HETATM   11  O   UNL     1      -6.348  13.058  68.072  1.00  0.00    -0.086 OA 
HETATM   12  C   UNL     1      -8.006  14.576  68.341  1.00  0.00    -0.141 C  
HETATM   13  C   UNL     1      -5.341  13.922  68.712  1.00  0.00    -0.082 C  
HETATM   14  C   UNL     1     -10.549   8.038  70.846  1.00  0.00    -0.213 C  
HETATM   15  C   UNL     1     -10.567  12.867  68.342  1.00  0.00    -0.267 C  
HETATM   16  C   UNL     1     -11.136  13.495  67.073  1.00  0.00    -0.310 C  
HETATM   17  O   UNL     1      -8.531   5.285  74.089  1.00  0.00    -0.112 OA 
HETATM   18  C   UNL     1     -11.455  11.640  68.717  1.00  0.00    -0.285 C  
HETATM   19  O   UNL     1     -12.134  11.060  67.861  1.00  0.00    -0.600 OA 
HETATM   20  N   UNL     1      -7.579   6.346  72.232  1.00  0.00    -0.096 N  
HETATM   21  C   UNL     1     -11.377  11.110  70.147  1.00  0.00    -0.295 C  
HETATM   22  C   UNL     1     -12.158   9.858  70.423  1.00  0.00    -0.153 C  
HETATM   23  C   UNL     1     -11.752  12.153  71.194  1.00  0.00     0.983 C  
HETATM   24  C   UNL     1      -8.608   5.948  73.075  1.00  0.00    -0.123 C  
HETATM   25  O   UNL     1      -9.761   6.335  72.475  1.00  0.00    -0.157 OA 
HETATM   26  C   UNL     1     -10.153   8.320  73.382  1.00  0.00     0.285 C  
HETATM   27  O   UNL     1     -13.345   9.661  70.159  1.00  0.00     0.407 OA 
HETATM   28  O   UNL     1     -11.463   9.098  71.316  1.00  0.00    -0.282 OA 
HETATM   29  C   UNL     1      -9.562   7.726  72.045  1.00  0.00    -0.168 C  
ENDROOT
BRANCH  10  30
HETATM   30  O   UNL     1      -8.861  11.104  67.885  1.00  0.00    -0.130 OA 
BRANCH  30  31
HETATM   31  C   UNL     1      -9.608  10.616  66.789  1.00  0.00    -0.169 C  
HETATM   32  C   UNL     1      -9.033  10.976  65.366  1.00  0.00    -0.178 C  
HETATM   33  C   UNL     1      -9.367   9.867  64.326  1.00  0.00    -0.253 C  
HETATM   34  O   UNL     1      -9.609   9.269  67.193  1.00  0.00    -0.146 OA 
HETATM   35  C   UNL     1      -9.744   8.228  66.278  1.00  0.00    -0.183 C  
HETATM   36  H   UNL     1      -9.232  12.468  64.101  1.00  0.00     0.000 HD 
HETATM   37  C   UNL     1      -9.101   8.481  64.928  1.00  0.00     0.181 C  
HETATM   38  O   UNL     1      -9.579  12.251  64.959  1.00  0.00    -0.118 OA 
HETATM   39  C   UNL     1      -9.043   7.054  66.971  1.00  0.00    -0.150 C  
BRANCH  33  40
HETATM   40  N   UNL     1      -8.821   9.912  62.939  1.00  0.00    -0.223 NA 
HETATM   41  C   UNL     1      -8.095   8.769  62.391  1.00  0.00    -0.160 C  
HETATM   42  C   UNL     1      -8.197  11.152  62.500  1.00  0.00    -0.078 C  
ENDBRANCH  33  40
ENDBRANCH  30  31
ENDBRANCH  10  30
BRANCH  14  43
HETATM   43  C   UNL     1     -11.555   6.928  70.434  1.00  0.00    -0.385 C  
HETATM   44  C   UNL     1     -11.033   5.771  69.615  1.00  0.00    -0.385 C  
ENDBRANCH  14  43
BRANCH  20  45
HETATM   45  C   UNL     1      -7.525   5.370  71.136  1.00  0.00    -0.085 C  
BRANCH  45  46
HETATM   46  C   UNL     1      -6.336   5.577  70.195  1.00  0.00    -0.030 C  
BRANCH  46  47
HETATM   47  C   UNL     1      -5.366   4.395  70.197  1.00  0.00    -0.007 C  
BRANCH  47  48
HETATM   48  C   UNL     1      -5.738   3.364  69.140  1.00  0.00    -0.022 C  
BRANCH  48  49
HETATM   49  N   UNL     1      -5.604   3.899  67.804  1.00  0.00    -0.020 NA 
HETATM   50  C   UNL     1      -5.288   3.203  66.674  1.00  0.00    -0.012 A  
HETATM   51  N   UNL     1      -5.171   4.008  65.640  1.00  0.00    -0.009 NA 
HETATM   52  C   UNL     1      -5.409   5.273  66.128  1.00  0.00    -0.013 A  
HETATM   53  C   UNL     1      -5.717   5.213  67.467  1.00  0.00    -0.013 A  
BRANCH  52  54
HETATM   54  C   UNL     1      -5.321   6.464  65.313  1.00  0.00    -0.017 A  
HETATM   55  C   UNL     1      -5.370   7.732  65.897  1.00  0.00    -0.028 A  
HETATM   56  C   UNL     1      -5.353   8.863  65.085  1.00  0.00    -0.038 A  
HETATM   57  C   UNL     1      -5.300   8.695  63.709  1.00  0.00    -0.061 A  
HETATM   58  N   UNL     1      -5.204   7.494  63.104  1.00  0.00    -0.037 NA 
HETATM   59  C   UNL     1      -5.221   6.412  63.924  1.00  0.00    -0.021 A  
ENDBRANCH  52  54
ENDBRANCH  48  49
ENDBRANCH  47  48
ENDBRANCH  46  47
ENDBRANCH  45  46
ENDBRANCH  20  45
TORSDOF 10
ENDMDL
MODEL       14
REMARK 921   NORMALIZED FREE ENERGY PREDICTED BY IDOCK:   -0.70 KCAL/MOL
REMARK 922        TOTAL FREE ENERGY PREDICTED BY IDOCK:   -0.71 KCAL/MOL
REMARK 923 INTER-LIGAND FREE ENERGY PREDICTED BY IDOCK:   -7.67 KCAL/MOL
REMARK 924 INTRA-LIGAND FREE ENERGY PREDICTED BY IDOCK:    6.96 KCAL/MOL
REMARK 927      BINDING AFFINITY PREDICTED BY RF-SCORE:    0.00 PKD
ROOT
HETATM    1  C   UNL     1      -6.394   9.338  68.104  1.00  0.00    -0.054 C  
HETATM    2  C   UNL     1      -6.811   9.470  69.701  1.00  0.00    -0.063 C  
HETATM    3  C   UNL     1      -6.332   8.483  70.840  1.00  0.00    -0.041 C  
HETATM    4  C   UNL     1      -7.908  10.458  70.191  1.00  0.00     0.182 C  
HETATM    5  C   UNL     1      -7.265   7.626  71.741  1.00  0.00    -0.064 C  
HETATM    6  O   UNL     1      -5.126   8.469  71.132  1.00  0.00    -0.028 OA 
HETATM    7  C   UNL     1      -6.721   6.075  71.770  1.00  0.00    -0.063 C  
HETATM    8  C   UNL     1      -8.732   7.965  71.538  1.00  0.00    -0.150 C  
HETATM    9  C   UNL     1      -7.765   4.931  72.289  1.00  0.00    -0.091 C  
HETATM   10  C   UNL     1      -8.534   4.562  70.897  1.00  0.00    -0.089 C  
HETATM   11  O   UNL     1      -8.256   5.698  73.439  1.00  0.00    -0.113 OA 
HETATM   12  C   UNL     1      -7.778   3.538  72.959  1.00  0.00    -0.065 C  
HETATM   13  C   UNL     1      -7.261   5.763  74.524  1.00  0.00    -0.088 C  
HETATM   14  C   UNL     1      -7.671   7.318  66.541  1.00  0.00    -0.093 C  
HETATM   15  C   UNL     1      -8.623   3.240  70.013  1.00  0.00    -0.111 C  
HETATM   16  C   UNL     1      -9.716   2.215  70.301  1.00  0.00    -0.003 C  
HETATM   17  O   UNL     1      -5.140  11.170  65.582  1.00  0.00    -0.193 OA 
HETATM   18  C   UNL     1      -8.749   3.678  68.521  1.00  0.00    -0.103 C  
HETATM   19  O   UNL     1      -9.820   3.569  67.913  1.00  0.00    -0.091 OA 
HETATM   20  N   UNL     1      -6.457  10.680  67.454  1.00  0.00    -0.058 N  
HETATM   21  C   UNL     1      -7.541   4.345  67.867  1.00  0.00    -0.076 C  
HETATM   22  C   UNL     1      -7.752   4.854  66.471  1.00  0.00    -0.095 C  
HETATM   23  C   UNL     1      -6.293   3.468  67.876  1.00  0.00    -0.036 C  
HETATM   24  C   UNL     1      -5.915  10.464  66.194  1.00  0.00    -0.090 C  
HETATM   25  O   UNL     1      -6.524   9.357  65.703  1.00  0.00    -0.067 OA 
HETATM   26  C   UNL     1      -5.135   7.728  66.279  1.00  0.00    -0.025 C  
HETATM   27  O   UNL     1      -8.220   4.222  65.522  1.00  0.00    -0.107 OA 
HETATM   28  O   UNL     1      -7.037   6.004  66.313  1.00  0.00    -0.065 OA 
HETATM   29  C   UNL     1      -6.495   8.353  66.777  1.00  0.00    -0.056 C  
ENDROOT
BRANCH  10  30
HETATM   30  O   UNL     1      -9.344   5.590  70.444  1.00  0.00    -0.152 OA 
BRANCH  30  31
HETATM   31  C   UNL     1      -9.992   6.466  71.344  1.00  0.00    -0.184 C  
HETATM   32  C   UNL     1     -11.074   7.415  70.704  1.00  0.00    -0.266 C  
HETATM   33  C   UNL     1     -12.212   7.738  71.715  1.00  0.00    -0.306 C  
HETATM   34  O   UNL     1     -10.417   5.472  72.244  1.00  0.00    -0.202 OA 
HETATM   35  C   UNL     1     -11.531   5.650  73.062  1.00  0.00    -0.192 C  
HETATM   36  H   UNL     1     -11.071   9.196  69.869  1.00  0.00     0.000 HD 
HETATM   37  C   UNL     1     -12.653   6.459  72.440  1.00  0.00     0.054 C  
HETATM   38  O   UNL     1     -10.419   8.624  70.256  1.00  0.00    -0.200 OA 
HETATM   39  C   UNL     1     -12.012   4.217  73.321  1.00  0.00     0.148 C  
BRANCH  33  40
HETATM   40  N   UNL     1     -13.420   8.511  71.307  1.00  0.00    -0.199 NA 
HETATM   41  C   UNL     1     -13.304   9.631  70.377  1.00  0.00     0.404 C  
HETATM   42  C   UNL     1     -14.402   8.821  72.336  1.00  0.00    -0.332 C  
ENDBRANCH  33  40
ENDBRANCH  30  31
ENDBRANCH  10  30
BRANCH  14  43
HETATM   43  C   UNL     1      -8.522   7.475  65.251  1.00  0.00    -0.075 C  
HETATM   44  C   UNL     1      -7.837   7.260  63.922  1.00  0.00    -0.111 C  
ENDBRANCH  14  43
BRANCH  20  45
HETATM   45  C   UNL     1      -7.775  11.297  67.251  1.00  0.00    -0.138 C  
BRANCH  45  46
HETATM   46  C   UNL     1      -7.748  12.825  67.324  1.00  0.00    -0.129 C  
BRANCH  46  47
HETATM   47  C   UNL     1      -9.146  13.438  67.420  1.00  0.00    -0.216 C  
BRANCH  47  48
HETATM   48  C   UNL     1      -9.575  14.060  66.098  1.00  0.00    -0.241 C  
BRANCH  48  49
HETATM   49  N   UNL     1      -9.463  15.501  66.126  1.00  0.00    -0.314 NA 
HETATM   50  C   UNL     1     -10.447  16.402  65.843  1.00  0.00    -0.337 A  
HETATM   51  N   UNL     1      -9.988  17.633  65.887  1.00  0.00    -0.553 NA 
HETATM   52  C   UNL     1      -8.652  17.518  66.198  1.00  0.00    -0.133 A  
HETATM   53  C   UNL     1      -8.322  16.196  66.385  1.00  0.00    -0.322 A  
BRANCH  52  54
HETATM   54  C   UNL     1      -7.759  18.653  66.288  1.00  0.00    -0.290 A  
HETATM   55  C   UNL     1      -7.912  19.599  67.304  1.00  0.00    -0.314 A  
HETATM   56  C   UNL     1      -7.085  20.719  67.328  1.00  0.00    -0.417 A  
HETATM   57  C   UNL     1      -6.135  20.868  66.328  1.00  0.00    -0.256 A  
HETATM   58  N   UNL     1      -5.921  19.959  65.357  1.00  0.00    -0.184 NA 
HETATM   59  C   UNL     1      -6.743  18.877  65.362  1.00  0.00    -0.218 A  
ENDBRANCH  52  54
ENDBRANCH  48  49
ENDBRANCH  47  48
ENDBRANCH  46  47
ENDBRANCH  45  46
ENDBRANCH  20  45
TORSDOF 10
ENDMDL
MODEL       15
REMARK 921   NORMALIZED FREE ENERGY PREDICTED BY IDOCK:   -0.41 KCAL/MOL
REMARK 922        TOTAL FREE ENERGY PREDICTED BY IDOCK:   -0.25 KCAL/MOL
REMARK 923 INTER-LIGAND FREE ENERGY PREDICTED BY IDOCK:   -4.59 KCAL/MOL
REMARK 924 INTRA-LIGAND FREE ENERGY PREDICTED BY IDOCK:    4.34 KCAL/MOL
REMARK 927      BINDING AFFINITY PREDICTED BY RF-SCORE:    0.00 PKD
ROOT
HETATM    1  C   UNL     1     -10.125  10.484  69.750  1.00  0.00    -0.081 C  
HETATM    2  C   UNL     1     -11.193   9.400  70.404  1.00  0.00    -0.309 C  
HETATM    3  C   UNL     1     -10.876   8.455  71.632  1.00  0.00    -0.268 C  
HETATM    4  C   UNL     1     -12.542   9.050  69.715  1.00  0.00     1.662 C  
HETATM    5  C   UNL     1     -10.919   6.902  71.609  1.00  0.00    -0.262 C  
HETATM    6  O   UNL     1     -10.694   8.981  72.742  1.00  0.00     0.312 OA 
HETATM    7  C   UNL     1      -9.543   6.308  72.282  1.00  0.00    -0.159 C  
HETATM    8  C   UNL     1     -11.481   6.361  70.304  1.00  0.00    -0.468 C  
HETATM    9  C   UNL     1      -9.182   4.743  71.980  1.00  0.00    -0.136 C  
HETATM   10  C   UNL     1      -8.354   4.883  70.581  1.00  0.00    -0.100 C  
HETATM   11  O   UNL     1     -10.542   4.239  72.202  1.00  0.00    -0.117 OA 
HETATM   12  C   UNL     1      -8.424   3.548  72.602  1.00  0.00    -0.086 C  
HETATM   13  C   UNL     1     -10.902   4.232  73.631  1.00  0.00    -0.278 C  
HETATM   14  C   UNL     1      -8.017   9.476  68.108  1.00  0.00    -0.094 C  
HETATM   15  C   UNL     1      -6.848   4.577  70.166  1.00  0.00    -0.037 C  
HETATM   16  C   UNL     1      -6.473   3.186  69.664  1.00  0.00    -0.033 C  
HETATM   17  O   UNL     1      -9.915  13.718  68.861  1.00  0.00    -0.160 OA 
HETATM   18  C   UNL     1      -6.440   5.614  69.073  1.00  0.00    -0.042 C  
HETATM   19  O   UNL     1      -6.319   5.277  67.889  1.00  0.00    -0.037 OA 
HETATM   20  N   UNL     1     -10.873  11.594  69.091  1.00  0.00    -0.211 N  
HETATM   21  C   UNL     1      -6.301   7.076  69.490  1.00  0.00    -0.035 C  
HETATM   22  C   UNL     1      -6.025   8.049  68.381  1.00  0.00    -0.040 C  
HETATM   23  C   UNL     1      -5.264   7.291  70.588  1.00  0.00    -0.023 C  
HETATM   24  C   UNL     1      -9.884  12.508  68.756  1.00  0.00     0.021 C  
HETATM   25  O   UNL     1      -8.899  11.799  68.153  1.00  0.00    -0.157 OA 
HETATM   26  C   UNL     1      -7.522  11.337  69.828  1.00  0.00     0.306 C  
HETATM   27  O   UNL     1      -5.139   7.957  67.529  1.00  0.00    -0.029 OA 
HETATM   28  O   UNL     1      -6.670   9.217  68.654  1.00  0.00    -0.053 OA 
HETATM   29  C   UNL     1      -8.656  10.620  68.998  1.00  0.00    -0.146 C  
ENDROOT
BRANCH  10  30
HETATM   30  O   UNL     1      -9.158   5.265  69.519  1.00  0.00    -0.108 OA 
BRANCH  30  31
HETATM   31  C   UNL     1      -8.767   5.031  68.181  1.00  0.00    -0.102 C  
HETATM   32  C   UNL     1      -9.364   3.732  67.518  1.00  0.00    -0.197 C  
HETATM   33  C   UNL     1      -9.560   3.918  65.986  1.00  0.00    -0.182 C  
HETATM   34  O   UNL     1      -9.168   6.285  67.684  1.00  0.00    -0.115 OA 
HETATM   35  C   UNL     1      -9.510   6.469  66.347  1.00  0.00    -0.126 C  
HETATM   36  H   UNL     1      -8.838   1.841  67.399  1.00  0.00     0.000 HD 
HETATM   37  C   UNL     1     -10.198   5.284  65.697  1.00  0.00     0.067 C  
HETATM   38  O   UNL     1      -8.478   2.624  67.798  1.00  0.00    -0.078 OA 
HETATM   39  C   UNL     1     -10.471   7.664  66.389  1.00  0.00     0.218 C  
BRANCH  33  40
HETATM   40  N   UNL     1     -10.232   2.878  65.155  1.00  0.00     0.391 NA 
HETATM   41  C   UNL     1      -9.460   1.787  64.567  1.00  0.00    -0.109 C  
HETATM   42  C   UNL     1     -11.257   3.320  64.220  1.00  0.00     0.714 C  
ENDBRANCH  33  40
ENDBRANCH  30  31
ENDBRANCH  10  30
BRANCH  14  43
HETATM   43  C   UNL     1      -7.688   9.812  66.628  1.00  0.00    -0.102 C  
HETATM   44  C   UNL     1      -7.055  11.151  66.332  1.00  0.00    -0.091 C  
ENDBRANCH  14  43
BRANCH  20  45
HETATM   45  C   UNL     1     -11.617  11.300  67.859  1.00  0.00    -0.256 C  
BRANCH  45  46
HETATM   46  C   UNL     1     -10.744  11.316  66.602  1.00  0.00    -0.321 C  
BRANCH  46  47
HETATM   47  C   UNL     1     -11.318  12.198  65.494  1.00  0.00    -0.393 C  
BRANCH  47  48
HETATM   48  C   UNL     1     -12.068  13.396  66.063  1.00  0.00    -0.438 C  
BRANCH  48  49
HETATM   49  N   UNL     1     -11.181  14.508  66.318  1.00  0.00    -0.336 NA 
HETATM   50  C   UNL     1     -11.527  15.823  66.410  1.00  0.00     0.268 A  
HETATM   51  N   UNL     1     -10.465  16.582  66.571  1.00  0.00    -0.294 NA 
HETATM   52  C   UNL     1      -9.392  15.720  66.570  1.00  0.00    -0.283 A  
HETATM   53  C   UNL     1      -9.829  14.421  66.450  1.00  0.00    -0.295 A  
BRANCH  52  54
HETATM   54  C   UNL     1      -8.019  16.165  66.668  1.00  0.00    -0.305 A  
HETATM   55  C   UNL     1      -7.589  17.302  65.980  1.00  0.00    -0.226 A  
HETATM   56  C   UNL     1      -6.247  17.670  66.036  1.00  0.00    -0.247 A  
HETATM   57  C   UNL     1      -5.369  16.884  66.768  1.00  0.00    -0.105 A  
HETATM   58  N   UNL     1      -5.749  15.808  67.485  1.00  0.00    -0.272 NA 
HETATM   59  C   UNL     1      -7.063  15.476  67.411  1.00  0.00    -0.202 A  
ENDBRANCH  52  54
ENDBRANCH  48  49
ENDBRANCH  47  48
ENDBRANCH  46  47
ENDBRANCH  45  46
ENDBRANCH  20  45
TORSDOF 10
ENDMDL
MODEL       16
REMARK 921   NORMALIZED FREE ENERGY PREDICTED BY IDOCK:   -0.30 KCAL/MOL
REMARK 922        TOTAL FREE ENERGY PREDICTED BY IDOCK:   -0.08 KCAL/MOL
REMARK 923 INTER-LIGAND FREE ENERGY PREDICTED BY IDOCK:   -3.71 KCAL/MOL
REMARK 924 INTRA-LIGAND FREE ENERGY PREDICTED BY IDOCK:    3.64 KCAL/MOL
REMARK 927      BINDING AFFINITY PREDICTED BY RF-SCORE:    0.00 PKD
ROOT
HETATM    1  C   UNL     1     -11.011   9.760  68.744  1.00  0.00    -0.148 C  
HETATM    2  C   UNL     1     -11.884  11.124  68.396  1.00  0.00    -0.302 C  
HETATM    3  C   UNL     1     -11.663  12.031  67.119  1.00  0.00    -0.273 C  
HETATM    4  C   UNL     1     -12.858  11.767  69.423  1.00  0.00     0.883 C  
HETATM    5  C   UNL     1     -11.283  13.538  67.138  1.00  0.00    -0.324 C  
HETATM    6  O   UNL     1     -11.930  11.548  66.007  1.00  0.00    -0.227 OA 
HETATM    7  C   UNL     1     -10.027  13.796  66.110  1.00  0.00    -0.318 C  
HETATM    8  C   UNL     1     -11.312  14.121  68.542  1.00  0.00    -0.312 C  
HETATM    9  C   UNL     1      -9.195  15.191  66.288  1.00  0.00    -0.301 C  
HETATM   10  C   UNL     1      -8.094  14.751  67.409  1.00  0.00    -0.198 C  
HETATM   11  O   UNL     1     -10.379  16.043  66.441  1.00  0.00    -0.286 OA 
HETATM   12  C   UNL     1      -8.338  16.185  65.472  1.00  0.00     1.455 C  
HETATM   13  C   UNL     1     -11.090  16.235  65.164  1.00  0.00    -0.212 C  
HETATM   14  C   UNL     1      -8.353  10.080  69.739  1.00  0.00    -0.172 C  
HETATM   15  C   UNL     1      -6.507  14.628  67.395  1.00  0.00     0.056 C  
HETATM   16  C   UNL     1      -5.655  15.839  67.763  1.00  0.00    -0.155 C  
HETATM   17  O   UNL     1     -11.445   6.533  69.572  1.00  0.00    -0.371 OA 
HETATM   18  C   UNL     1      -6.116  13.453  68.345  1.00  0.00    -0.092 C  
HETATM   19  O   UNL     1      -5.600  13.670  69.448  1.00  0.00    -0.083 OA 
HETATM   20  N   UNL     1     -11.826   8.843  69.592  1.00  0.00     0.555 N  
HETATM   21  C   UNL     1      -6.488  12.035  67.919  1.00  0.00    -0.072 C  
HETATM   22  C   UNL     1      -6.198  10.955  68.920  1.00  0.00    -0.041 C  
HETATM   23  C   UNL     1      -5.877  11.629  66.582  1.00  0.00    -0.108 C  
HETATM   24  C   UNL     1     -11.065   7.683  69.653  1.00  0.00    -0.062 C  
HETATM   25  O   UNL     1      -9.803   8.073  69.958  1.00  0.00    -0.183 OA 
HETATM   26  C   UNL     1      -8.848   8.268  67.966  1.00  0.00    -0.135 C  
HETATM   27  O   UNL     1      -5.128  10.758  69.497  1.00  0.00    -0.038 OA 
HETATM   28  O   UNL     1      -7.181  10.014  68.844  1.00  0.00    -0.072 OA 
HETATM   29  C   UNL     1      -9.487   9.200  69.068  1.00  0.00    -0.152 C  
ENDROOT
BRANCH  10  30
HETATM   30  O   UNL     1      -8.659  14.524  68.654  1.00  0.00    -0.167 OA 
BRANCH  30  31
HETATM   31  C   UNL     1      -8.857  15.578  69.574  1.00  0.00    -0.229 C  
HETATM   32  C   UNL     1      -9.059  17.004  68.934  1.00  0.00    -0.208 C  
HETATM   33  C   UNL     1      -9.985  17.893  69.815  1.00  0.00     0.552 C  
HETATM   34  O   UNL     1      -9.937  14.986  70.253  1.00  0.00    -0.011 OA 
HETATM   35  C   UNL     1     -10.889  15.750  70.925  1.00  0.00    -0.129 C  
HETATM   36  H   UNL     1      -7.883  18.478  68.376  1.00  0.00     0.000 HD 
HETATM   37  C   UNL     1     -11.205  17.085  70.279  1.00  0.00     0.602 C  
HETATM   38  O   UNL     1      -7.761  17.618  68.762  1.00  0.00    -0.267 OA 
HETATM   39  C   UNL     1     -12.137  14.859  70.905  1.00  0.00    -0.377 C  
BRANCH  33  40
HETATM   40  N   UNL     1     -10.433  19.240  69.360  1.00  0.00     0.261 NA 
HETATM   41  C   UNL     1     -10.737  19.483  67.953  1.00  0.00    -0.295 C  
HETATM   42  C   UNL     1      -9.765  20.401  69.931  1.00  0.00     0.781 C  
ENDBRANCH  33  40
ENDBRANCH  30  31
ENDBRANCH  10  30
BRANCH  14  43
HETATM   43  C   UNL     1      -7.746   9.575  71.077  1.00  0.00     0.073 C  
HETATM   44  C   UNL     1      -6.866   8.348  71.034  1.00  0.00    -0.050 C  
ENDBRANCH  14  43
BRANCH  20  45
HETATM   45  C   UNL     1     -12.110   9.240  70.978  1.00  0.00    -0.280 C  
BRANCH  45  46
HETATM   46  C   UNL     1     -11.025   8.812  71.968  1.00  0.00    -0.438 C  
BRANCH  46  47
HETATM   47  C   UNL     1     -11.446   7.625  72.833  1.00  0.00    -0.342 C  
BRANCH  47  48
HETATM   48  C   UNL     1     -10.351   7.231  73.816  1.00  0.00    -0.313 C  
BRANCH  48  49
HETATM   49  N   UNL     1      -9.777   5.946  73.486  1.00  0.00    -0.155 NA 
HETATM   50  C   UNL     1      -9.108   5.111  74.331  1.00  0.00    -0.114 A  
HETATM   51  N   UNL     1      -8.648   4.058  73.691  1.00  0.00    -0.091 NA 
HETATM   52  C   UNL     1      -9.025   4.232  72.378  1.00  0.00    -0.111 A  
HETATM   53  C   UNL     1      -9.760   5.386  72.245  1.00  0.00    -0.157 A  
BRANCH  52  54
HETATM   54  C   UNL     1      -8.661   3.312  71.322  1.00  0.00    -0.123 A  
HETATM   55  C   UNL     1      -9.615   2.459  70.762  1.00  0.00    -0.170 A  
HETATM   56  C   UNL     1      -9.226   1.535  69.796  1.00  0.00    -0.159 A  
HETATM   57  C   UNL     1      -7.890   1.480  69.426  1.00  0.00    -0.041 A  
HETATM   58  N   UNL     1      -6.945   2.314  69.905  1.00  0.00    -0.033 NA 
HETATM   59  C   UNL     1      -7.358   3.205  70.843  1.00  0.00    -0.033 A  
ENDBRANCH  52  54
ENDBRANCH  48  49
ENDBRANCH  47  48
ENDBRANCH  46  47
ENDBRANCH  45  46
ENDBRANCH  20  45
TORSDOF 10
ENDMDL
MODEL       17
REMARK 921   NORMALIZED FREE ENERGY PREDICTED BY IDOCK:    0.54 KCAL/MOL
REMARK 922        TOTAL FREE ENERGY PREDICTED BY IDOCK:    1.26 KCAL/MOL
REMARK 923 INTER-LIGAND FREE ENERGY PREDICTED BY IDOCK:   -0.72 KCAL/MOL
REMARK 924 INTRA-LIGAND FREE ENERGY PREDICTED BY IDOCK:    1.98 KCAL/MOL
REMARK 927      BINDING AFFINITY PREDICTED BY RF-SCORE:    0.00 PKD
ROOT
HETATM    1  C   UNL     1      -8.200   4.691  66.842  1.00  0.00    -0.106 C  
HETATM    2  C   UNL     1      -6.786   4.614  67.700  1.00  0.00    -0.051 C  
HETATM    3  C   UNL     1      -6.622   3.896  69.100  1.00  0.00    -0.040 C  
HETATM    4  C   UNL     1      -5.533   5.447  67.307  1.00  0.00    -0.012 C  
HETATM    5  C   UNL     1      -6.172   4.584  70.419  1.00  0.00    -0.022 C  
HETATM    6  O   UNL     1      -6.741   2.661  69.140  1.00  0.00    -0.033 OA 
HETATM    7  C   UNL     1      -7.202   4.168  71.630  1.00  0.00    -0.054 C  
HETATM    8  C   UNL     1      -5.723   6.019  70.196  1.00  0.00    -0.013 C  
HETATM    9  C   UNL     1      -7.180   5.095  72.976  1.00  0.00    -0.090 C  
HETATM   10  C   UNL     1      -8.247   6.260  72.563  1.00  0.00    -0.106 C  
HETATM   11  O   UNL     1      -5.719   5.173  73.070  1.00  0.00    -0.020 OA 
HETATM   12  C   UNL     1      -7.474   5.011  74.491  1.00  0.00    -0.089 C  
HETATM   13  C   UNL     1      -5.127   3.903  73.526  1.00  0.00     0.000 C  
HETATM   14  C   UNL     1     -10.217   6.508  67.729  1.00  0.00    -0.167 C  
HETATM   15  C   UNL     1      -9.666   6.696  73.138  1.00  0.00    -0.178 C  
HETATM   16  C   UNL     1      -9.740   7.728  74.259  1.00  0.00     0.602 C  
HETATM   17  O   UNL     1      -9.413   4.098  63.765  1.00  0.00    -0.152 OA 
HETATM   18  C   UNL     1     -10.519   7.220  71.940  1.00  0.00    -0.200 C  
HETATM   19  O   UNL     1     -10.750   8.427  71.802  1.00  0.00    -0.244 OA 
HETATM   20  N   UNL     1      -7.900   4.845  65.389  1.00  0.00    -0.090 N  
HETATM   21  C   UNL     1     -10.967   6.211  70.885  1.00  0.00    -0.359 C  
HETATM   22  C   UNL     1     -11.680   6.782  69.695  1.00  0.00    -0.104 C  
HETATM   23  C   UNL     1     -11.815   5.080  71.458  1.00  0.00     1.541 C  
HETATM   24  C   UNL     1      -9.139   4.710  64.778  1.00  0.00    -0.149 C  
HETATM   25  O   UNL     1      -9.990   5.513  65.463  1.00  0.00     0.106 OA 
HETATM   26  C   UNL     1     -10.881   4.136  66.955  1.00  0.00     1.674 C  
HETATM   27  O   UNL     1     -12.644   7.550  69.716  1.00  0.00     1.055 OA 
HETATM   28  O   UNL     1     -11.331   6.064  68.590  1.00  0.00    -0.251 OA 
HETATM   29  C   UNL     1      -9.760   5.244  66.890  1.00  0.00    -0.156 C  
ENDROOT
BRANCH  10  30
HETATM   30  O   UNL     1      -7.771   7.091  71.563  1.00  0.00    -0.089 OA 
BRANCH  30  31
HETATM   31  C   UNL     1      -7.537   8.465  71.799  1.00  0.00    -0.112 C  
HETATM   32  C   UNL     1      -6.224   9.048  71.151  1.00  0.00    -0.062 C  
HETATM   33  C   UNL     1      -6.399  10.549  70.774  1.00  0.00     0.037 C  
HETATM   34  O   UNL     1      -8.781   8.916  71.322  1.00  0.00    -0.196 OA 
HETATM   35  C   UNL     1      -8.952  10.205  70.822  1.00  0.00     1.134 C  
HETATM   36  H   UNL     1      -4.342   9.222  71.692  1.00  0.00     0.000 HD 
HETATM   37  C   UNL     1      -7.752  10.765  70.083  1.00  0.00     0.601 C  
HETATM   38  O   UNL     1      -5.133   8.870  72.083  1.00  0.00    -0.038 OA 
HETATM   39  C   UNL     1     -10.130  10.055  69.852  1.00  0.00    -0.289 C  
BRANCH  33  40
HETATM   40  N   UNL     1      -5.343  11.291  70.028  1.00  0.00    -0.061 NA 
HETATM   41  C   UNL     1      -5.145  12.721  70.250  1.00  0.00    -0.100 C  
HETATM   42  C   UNL     1      -5.170  10.980  68.616  1.00  0.00    -0.040 C  
ENDBRANCH  33  40
ENDBRANCH  30  31
ENDBRANCH  10  30
BRANCH  14  43
HETATM   43  C   UNL     1     -10.876   7.685  66.958  1.00  0.00    -0.219 C  
HETATM   44  C   UNL     1      -9.976   8.784  66.443  1.00  0.00    -0.346 C  
ENDBRANCH  14  43
BRANCH  20  45
HETATM   45  C   UNL     1      -7.332   6.116  64.923  1.00  0.00    -0.074 C  
BRANCH  45  46
HETATM   46  C   UNL     1      -6.973   6.114  63.435  1.00  0.00    -0.046 C  
BRANCH  46  47
HETATM   47  C   UNL     1      -6.839   7.522  62.857  1.00  0.00    -0.070 C  
BRANCH  47  48
HETATM   48  C   UNL     1      -8.191   8.090  62.446  1.00  0.00    -0.150 C  
BRANCH  48  49
HETATM   49  N   UNL     1      -8.462   9.349  63.102  1.00  0.00    -0.192 NA 
HETATM   50  C   UNL     1      -7.604  10.060  63.888  1.00  0.00    -0.138 A  
HETATM   51  N   UNL     1      -8.194  11.122  64.393  1.00  0.00     0.366 NA 
HETATM   52  C   UNL     1      -9.487  11.083  63.922  1.00  0.00    -0.251 A  
HETATM   53  C   UNL     1      -9.655  10.003  63.087  1.00  0.00    -0.055 A  
BRANCH  52  54
HETATM   54  C   UNL     1     -10.493  12.055  64.293  1.00  0.00    -0.369 A  
HETATM   55  C   UNL     1     -10.413  12.732  65.512  1.00  0.00    -0.306 A  
HETATM   56  C   UNL     1     -11.430  13.611  65.876  1.00  0.00    -0.329 A  
HETATM   57  C   UNL     1     -12.506  13.779  65.017  1.00  0.00    -0.416 A  
HETATM   58  N   UNL     1     -12.602  13.183  63.812  1.00  0.00    -0.716 NA 
HETATM   59  C   UNL     1     -11.593  12.334  63.486  1.00  0.00    -0.486 A  
ENDBRANCH  52  54
ENDBRANCH  48  49
ENDBRANCH  47  48
ENDBRANCH  46  47
ENDBRANCH  45  46
ENDBRANCH  20  45
TORSDOF 10
ENDMDL
MODEL       18
REMARK 921   NORMALIZED FREE ENERGY PREDICTED BY IDOCK:    0.94 KCAL/MOL
REMARK 922        TOTAL FREE ENERGY PREDICTED BY IDOCK:    1.89 KCAL/MOL
REMARK 923 INTER-LIGAND FREE ENERGY PREDICTED BY IDOCK:   -0.02 KCAL/MOL
REMARK 924 INTRA-LIGAND FREE ENERGY PREDICTED BY IDOCK:    1.91 KCAL/MOL
REMARK 927      BINDING AFFINITY PREDICTED BY RF-SCORE:    0.00 PKD
ROOT
HETATM    1  C   UNL     1     -10.571   7.705  69.329  1.00  0.00    -0.201 C  
HETATM    2  C   UNL     1     -10.858   8.837  70.503  1.00  0.00    -0.268 C  
HETATM    3  C   UNL     1     -11.989   9.940  70.431  1.00  0.00    -0.195 C  
HETATM    4  C   UNL     1      -9.881   9.062  71.692  1.00  0.00    -0.366 C  
HETATM    5  C   UNL     1     -11.754  11.476  70.467  1.00  0.00    -0.248 C  
HETATM    6  O   UNL     1     -13.172   9.567  70.469  1.00  0.00     0.056 OA 
HETATM    7  C   UNL     1     -12.597  12.186  69.248  1.00  0.00     0.513 C  
HETATM    8  C   UNL     1     -10.306  11.830  70.763  1.00  0.00     4.064 C  
HETATM    9  C   UNL     1     -12.167  13.707  68.834  1.00  0.00    -0.186 C  
HETATM   10  C   UNL     1     -10.985  13.407  67.749  1.00  0.00    -0.262 C  
HETATM   11  O   UNL     1     -12.053  14.201  70.210  1.00  0.00    -0.300 OA 
HETATM   12  C   UNL     1     -12.760  14.990  68.210  1.00  0.00     1.027 C  
HETATM   13  C   UNL     1     -13.371  14.384  70.842  1.00  0.00    -0.238 C  
HETATM   14  C   UNL     1      -9.250   8.544  66.941  1.00  0.00    -0.158 C  
HETATM   15  C   UNL     1     -10.833  13.695  66.190  1.00  0.00    -0.279 C  
HETATM   16  C   UNL     1     -10.234  15.018  65.723  1.00  0.00    -0.361 C  
HETATM   17  O   UNL     1     -10.173   4.389  68.954  1.00  0.00    -0.007 OA 
HETATM   18  C   UNL     1      -9.985  12.536  65.578  1.00  0.00    -0.234 C  
HETATM   19  O   UNL     1      -8.813  12.719  65.229  1.00  0.00     0.801 OA 
HETATM   20  N   UNL     1      -9.932   6.501  69.936  1.00  0.00    -0.166 N  
HETATM   21  C   UNL     1     -10.610  11.144  65.524  1.00  0.00    -0.289 C  
HETATM   22  C   UNL     1      -9.713  10.043  65.038  1.00  0.00    -0.317 C  
HETATM   23  C   UNL     1     -11.906  11.098  64.722  1.00  0.00     0.662 C  
HETATM   24  C   UNL     1      -9.918   5.575  68.901  1.00  0.00    -0.174 C  
HETATM   25  O   UNL     1      -9.429   6.225  67.817  1.00  0.00    -0.120 OA 
HETATM   26  C   UNL     1     -11.263   6.934  66.792  1.00  0.00     0.136 C  
HETATM   27  O   UNL     1      -9.044  10.045  64.004  1.00  0.00    -0.220 OA 
HETATM   28  O   UNL     1     -10.008   8.904  65.726  1.00  0.00    -0.188 OA 
HETATM   29  C   UNL     1     -10.142   7.509  67.742  1.00  0.00    -0.185 C  
ENDROOT
BRANCH  10  30
HETATM   30  O   UNL     1      -9.847  12.872  68.330  1.00  0.00    -0.224 OA 
BRANCH  30  31
HETATM   31  C   UNL     1      -8.802  13.701  68.799  1.00  0.00     0.076 C  
HETATM   32  C   UNL     1      -7.844  14.275  67.686  1.00  0.00    -0.179 C  
HETATM   33  C   UNL     1      -7.283  15.670  68.089  1.00  0.00    -0.115 C  
HETATM   34  O   UNL     1      -9.624  14.597  69.506  1.00  0.00    -0.016 OA 
HETATM   35  C   UNL     1      -9.234  15.911  69.755  1.00  0.00     0.051 C  
HETATM   36  H   UNL     1      -6.197  13.673  66.798  1.00  0.00     0.000 HD 
HETATM   37  C   UNL     1      -8.408  16.548  68.654  1.00  0.00    -0.235 C  
HETATM   38  O   UNL     1      -6.774  13.328  67.468  1.00  0.00    -0.160 OA 
HETATM   39  C   UNL     1     -10.568  16.655  69.895  1.00  0.00    -0.168 C  
BRANCH  33  40
HETATM   40  N   UNL     1      -6.457  16.478  67.146  1.00  0.00    -0.180 NA 
HETATM   41  C   UNL     1      -5.390  17.339  67.648  1.00  0.00    -0.117 C  
HETATM   42  C   UNL     1      -7.142  17.130  66.039  1.00  0.00    -0.085 C  
ENDBRANCH  33  40
ENDBRANCH  30  31
ENDBRANCH  10  30
BRANCH  14  43
HETATM   43  C   UNL     1      -7.919   8.028  66.330  1.00  0.00    -0.102 C  
HETATM   44  C   UNL     1      -7.993   6.901  65.326  1.00  0.00    -0.127 C  
ENDBRANCH  14  43
BRANCH  20  45
HETATM   45  C   UNL     1      -8.551   6.614  70.425  1.00  0.00    -0.143 C  
BRANCH  45  46
HETATM   46  C   UNL     1      -7.526   6.832  69.310  1.00  0.00    -0.095 C  
BRANCH  46  47
HETATM   47  C   UNL     1      -6.250   6.016  69.512  1.00  0.00    -0.030 C  
BRANCH  47  48
HETATM   48  C   UNL     1      -6.561   4.562  69.840  1.00  0.00    -0.033 C  
BRANCH  48  49
HETATM   49  N   UNL     1      -6.652   3.754  68.645  1.00  0.00    -0.040 NA 
HETATM   50  C   UNL     1      -6.574   2.394  68.572  1.00  0.00    -0.029 A  
HETATM   51  N   UNL     1      -6.617   1.985  67.322  1.00  0.00    -0.034 NA 
HETATM   52  C   UNL     1      -6.713   3.129  66.562  1.00  0.00    -0.048 A  
HETATM   53  C   UNL     1      -6.773   4.235  67.377  1.00  0.00    -0.047 A  
BRANCH  52  54
HETATM   54  C   UNL     1      -6.729   3.118  65.116  1.00  0.00    -0.040 A  
HETATM   55  C   UNL     1      -5.643   3.609  64.388  1.00  0.00    -0.013 A  
HETATM   56  C   UNL     1      -5.712   3.651  62.998  1.00  0.00    -0.013 A  
HETATM   57  C   UNL     1      -6.871   3.213  62.374  1.00  0.00    -0.030 A  
HETATM   58  N   UNL     1      -7.923   2.688  63.032  1.00  0.00    -0.068 NA 
HETATM   59  C   UNL     1      -7.824   2.659  64.386  1.00  0.00    -0.077 A  
ENDBRANCH  52  54
ENDBRANCH  48  49
ENDBRANCH  47  48
ENDBRANCH  46  47
ENDBRANCH  45  46
ENDBRANCH  20  45
TORSDOF 10
ENDMDL
MODEL       19
REMARK 921   NORMALIZED FREE ENERGY PREDICTED BY IDOCK:    1.08 KCAL/MOL
REMARK 922        TOTAL FREE ENERGY PREDICTED BY IDOCK:    2.11 KCAL/MOL
REMARK 923 INTER-LIGAND FREE ENERGY PREDICTED BY IDOCK:   -0.33 KCAL/MOL
REMARK 924 INTRA-LIGAND FREE ENERGY PREDICTED BY IDOCK:    2.44 KCAL/MOL
REMARK 927      BINDING AFFINITY PREDICTED BY RF-SCORE:    0.00 PKD
ROOT
HETATM    1  C   UNL     1      -9.500   9.589  70.390  1.00  0.00    -0.262 C  
HETATM    2  C   UNL     1      -8.296  10.100  69.374  1.00  0.00    -0.174 C  
HETATM    3  C   UNL     1      -7.377  11.362  69.631  1.00  0.00     0.171 C  
HETATM    4  C   UNL     1      -8.110   9.508  67.948  1.00  0.00    -0.106 C  
HETATM    5  C   UNL     1      -7.265  12.600  68.698  1.00  0.00    -0.108 C  
HETATM    6  O   UNL     1      -6.586  11.323  70.587  1.00  0.00    -0.197 OA 
HETATM    7  C   UNL     1      -7.412  13.971  69.592  1.00  0.00     0.318 C  
HETATM    8  C   UNL     1      -8.011  12.404  67.388  1.00  0.00    -0.178 C  
HETATM    9  C   UNL     1      -7.753  15.351  68.786  1.00  0.00    -0.150 C  
HETATM   10  C   UNL     1      -9.383  15.287  68.743  1.00  0.00    -0.210 C  
HETATM   11  O   UNL     1      -6.791  15.123  67.702  1.00  0.00    -0.153 OA 
HETATM   12  C   UNL     1      -7.565  16.881  68.900  1.00  0.00    -0.234 C  
HETATM   13  C   UNL     1      -5.401  15.326  68.146  1.00  0.00    -0.126 C  
HETATM   14  C   UNL     1     -11.951  11.054  70.417  1.00  0.00    -0.368 C  
HETATM   15  C   UNL     1     -10.531  16.199  69.365  1.00  0.00    -0.283 C  
HETATM   16  C   UNL     1     -11.058  17.392  68.572  1.00  0.00     0.076 C  
HETATM   17  O   UNL     1     -10.581   6.822  71.961  1.00  0.00    -0.210 OA 
HETATM   18  C   UNL     1     -11.738  15.271  69.706  1.00  0.00    -0.323 C  
HETATM   19  O   UNL     1     -12.769  15.290  69.024  1.00  0.00     0.181 OA 
HETATM   20  N   UNL     1      -9.719   8.124  70.216  1.00  0.00    -0.175 N  
HETATM   21  C   UNL     1     -11.567  14.262  70.839  1.00  0.00    -0.146 C  
HETATM   22  C   UNL     1     -12.712  13.314  71.048  1.00  0.00    -0.293 C  
HETATM   23  C   UNL     1     -11.230  14.912  72.177  1.00  0.00     0.133 C  
HETATM   24  C   UNL     1     -10.602   7.797  71.235  1.00  0.00    -0.218 C  
HETATM   25  O   UNL     1     -11.594   8.719  71.191  1.00  0.00    -0.270 OA 
HETATM   26  C   UNL     1     -10.914  10.252  72.642  1.00  0.00     5.074 C  
HETATM   27  O   UNL     1     -13.900  13.615  71.173  1.00  0.00    -0.042 OA 
HETATM   28  O   UNL     1     -12.212  12.102  71.424  1.00  0.00    -0.087 OA 
HETATM   29  C   UNL     1     -10.939  10.031  71.080  1.00  0.00    -0.196 C  
ENDROOT
BRANCH  10  30
HETATM   30  O   UNL     1      -9.858  14.279  67.919  1.00  0.00    -0.218 OA 
BRANCH  30  31
HETATM   31  C   UNL     1      -9.634  14.304  66.524  1.00  0.00    -0.297 C  
HETATM   32  C   UNL     1     -10.376  13.184  65.700  1.00  0.00    -0.284 C  
HETATM   33  C   UNL     1     -10.732  13.679  64.268  1.00  0.00    -0.262 C  
HETATM   34  O   UNL     1     -10.014  15.644  66.332  1.00  0.00    -0.253 OA 
HETATM   35  C   UNL     1     -10.493  16.103  65.107  1.00  0.00    -0.268 C  
HETATM   36  H   UNL     1      -9.978  11.338  65.154  1.00  0.00     0.000 HD 
HETATM   37  C   UNL     1     -11.318  15.096  64.329  1.00  0.00    -0.092 C  
HETATM   38  O   UNL     1      -9.530  12.013  65.650  1.00  0.00    -0.221 OA 
HETATM   39  C   UNL     1     -11.372  17.298  65.496  1.00  0.00     0.806 C  
BRANCH  33  40
HETATM   40  N   UNL     1     -11.552  12.849  63.340  1.00  0.00    -0.479 NA 
HETATM   41  C   UNL     1     -13.010  12.880  63.411  1.00  0.00     0.456 C  
HETATM   42  C   UNL     1     -11.098  11.492  63.068  1.00  0.00     0.110 C  
ENDBRANCH  33  40
ENDBRANCH  30  31
ENDBRANCH  10  30
BRANCH  14  43
HETATM   43  C   UNL     1     -13.390  10.553  70.117  1.00  0.00     0.391 C  
HETATM   44  C   UNL     1     -14.140   9.853  71.227  1.00  0.00     0.260 C  
ENDBRANCH  14  43
BRANCH  20  45
HETATM   45  C   UNL     1     -10.322   7.651  68.962  1.00  0.00    -0.213 C  
BRANCH  45  46
HETATM   46  C   UNL     1      -9.671   6.379  68.416  1.00  0.00    -0.131 C  
BRANCH  46  47
HETATM   47  C   UNL     1      -8.239   6.185  68.914  1.00  0.00    -0.112 C  
BRANCH  47  48
HETATM   48  C   UNL     1      -7.738   4.773  68.642  1.00  0.00    -0.076 C  
BRANCH  48  49
HETATM   49  N   UNL     1      -7.839   4.433  67.241  1.00  0.00    -0.096 NA 
HETATM   50  C   UNL     1      -6.921   4.700  66.268  1.00  0.00    -0.070 A  
HETATM   51  N   UNL     1      -7.360   4.324  65.087  1.00  0.00    -0.071 NA 
HETATM   52  C   UNL     1      -8.617   3.807  65.308  1.00  0.00    -0.114 A  
HETATM   53  C   UNL     1      -8.911   3.836  66.651  1.00  0.00    -0.126 A  
BRANCH  52  54
HETATM   54  C   UNL     1      -9.473   3.329  64.245  1.00  0.00    -0.142 A  
HETATM   55  C   UNL     1     -10.328   4.204  63.572  1.00  0.00    -0.054 A  
HETATM   56  C   UNL     1     -11.193   3.706  62.600  1.00  0.00     0.165 A  
HETATM   57  C   UNL     1     -11.187   2.344  62.336  1.00  0.00    -0.159 A  
HETATM   58  N   UNL     1     -10.347   1.471  62.927  1.00  0.00    -0.105 NA 
HETATM   59  C   UNL     1      -9.516   1.988  63.868  1.00  0.00    -0.123 A  
ENDBRANCH  52  54
ENDBRANCH  48  49
ENDBRANCH  47  48
ENDBRANCH  46  47
ENDBRANCH  45  46
ENDBRANCH  20  45
TORSDOF 10
ENDMDL
MODEL       20
REMARK 921   NORMALIZED FREE ENERGY PREDICTED BY IDOCK:    1.32 KCAL/MOL
REMARK 922        TOTAL FREE ENERGY PREDICTED BY IDOCK:    2.49 KCAL/MOL
REMARK 923 INTER-LIGAND FREE ENERGY PREDICTED BY IDOCK:   -2.16 KCAL/MOL
REMARK 924 INTRA-LIGAND FREE ENERGY PREDICTED BY IDOCK:    4.65 KCAL/MOL
REMARK 927      BINDING AFFINITY PREDICTED BY RF-SCORE:    0.00 PKD
ROOT
HETATM    1  C   UNL     1     -10.486   8.800  70.752  1.00  0.00    -0.219 C  
HETATM    2  C   UNL     1     -11.354   7.450  71.162  1.00  0.00    -0.291 C  
HETATM    3  C   UNL     1     -10.869   6.345  72.184  1.00  0.00    -0.237 C  
HETATM    4  C   UNL     1     -12.641   7.029  70.396  1.00  0.00     0.121 C  
HETATM    5  C   UNL     1     -10.661   4.841  71.855  1.00  0.00    -0.150 C  
HETATM    6  O   UNL     1     -10.756   6.664  73.379  1.00  0.00    -0.281 OA 
HETATM    7  C   UNL     1      -9.196   4.356  72.420  1.00  0.00    -0.150 C  
HETATM    8  C   UNL     1     -11.148   4.484  70.460  1.00  0.00     1.865 C  
HETATM    9  C   UNL     1      -8.592   2.961  71.821  1.00  0.00    -0.072 C  
HETATM   10  C   UNL     1      -7.820   3.507  70.490  1.00  0.00    -0.046 C  
HETATM   11  O   UNL     1      -9.848   2.210  71.917  1.00  0.00    -0.134 OA 
HETATM   12  C   UNL     1      -7.640   1.806  72.206  1.00  0.00    -0.040 C  
HETATM   13  C   UNL     1     -10.179   1.863  73.310  1.00  0.00    -0.105 C  
HETATM   14  C   UNL     1      -8.271   8.489  68.977  1.00  0.00    -0.116 C  
HETATM   15  C   UNL     1      -6.291   3.536  70.047  1.00  0.00    -0.028 C  
HETATM   16  C   UNL     1      -5.705   2.351  69.286  1.00  0.00    -0.022 C  
HETATM   17  O   UNL     1     -10.817  12.136  70.522  1.00  0.00     1.279 OA 
HETATM   18  C   UNL     1      -6.074   4.820  69.187  1.00  0.00    -0.029 C  
HETATM   19  O   UNL     1      -5.920   4.748  67.962  1.00  0.00    -0.024 OA 
HETATM   20  N   UNL     1     -11.415   9.881  70.313  1.00  0.00    -0.273 N  
HETATM   21  C   UNL     1      -6.166   6.174  69.886  1.00  0.00    -0.027 C  
HETATM   22  C   UNL     1      -6.069   7.378  68.995  1.00  0.00    -0.034 C  
HETATM   23  C   UNL     1      -5.161   6.333  71.021  1.00  0.00    -0.017 C  
HETATM   24  C   UNL     1     -10.593  10.992  70.181  1.00  0.00     0.379 C  
HETATM   25  O   UNL     1      -9.516  10.584  69.466  1.00  0.00    -0.179 OA 
HETATM   26  C   UNL     1      -8.055  10.029  71.039  1.00  0.00     1.154 C  
HETATM   27  O   UNL     1      -5.195   7.601  68.156  1.00  0.00    -0.024 OA 
HETATM   28  O   UNL     1      -6.891   8.350  69.483  1.00  0.00    -0.041 OA 
HETATM   29  C   UNL     1      -9.072   9.317  70.065  1.00  0.00    -0.210 C  
ENDROOT
BRANCH  10  30
HETATM   30  O   UNL     1      -8.692   3.955  69.511  1.00  0.00    -0.073 OA 
BRANCH  30  31
HETATM   31  C   UNL     1      -8.297   4.037  68.157  1.00  0.00    -0.092 C  
HETATM   32  C   UNL     1      -8.670   2.791  67.266  1.00  0.00    -0.121 C  
HETATM   33  C   UNL     1      -8.931   3.210  65.790  1.00  0.00    -0.143 C  
HETATM   34  O   UNL     1      -8.924   5.267  67.889  1.00  0.00    -0.109 OA 
HETATM   35  C   UNL     1      -9.325   5.623  66.603  1.00  0.00    -0.144 C  
HETATM   36  H   UNL     1      -7.821   1.077  66.814  1.00  0.00     0.000 HD 
HETATM   37  C   UNL     1      -9.807   4.469  65.745  1.00  0.00    -0.231 C  
HETATM   38  O   UNL     1      -7.596   1.828  67.351  1.00  0.00    -0.058 OA 
HETATM   39  C   UNL     1     -10.480   6.601  66.850  1.00  0.00    -0.349 C  
BRANCH  33  40
HETATM   40  N   UNL     1      -9.428   2.232  64.780  1.00  0.00    -0.116 NA 
HETATM   41  C   UNL     1      -8.493   1.546  63.891  1.00  0.00    -0.073 C  
HETATM   42  C   UNL     1     -10.644   2.570  64.055  1.00  0.00     0.072 C  
ENDBRANCH  33  40
ENDBRANCH  30  31
ENDBRANCH  10  30
BRANCH  14  43
HETATM   43  C   UNL     1      -8.025   9.159  67.598  1.00  0.00    -0.100 C  
HETATM   44  C   UNL     1      -6.717   9.887  67.390  1.00  0.00    -0.074 C  
ENDBRANCH  14  43
BRANCH  20  45
HETATM   45  C   UNL     1     -12.122   9.721  69.035  1.00  0.00     0.995 C  
BRANCH  45  46
HETATM   46  C   UNL     1     -11.190   9.697  67.823  1.00  0.00     0.065 C  
BRANCH  46  47
HETATM   47  C   UNL     1     -11.376  10.908  66.908  1.00  0.00    -0.044 C  
BRANCH  47  48
HETATM   48  C   UNL     1     -11.455  12.203  67.705  1.00  0.00    -0.331 C  
BRANCH  48  49
HETATM   49  N   UNL     1     -11.162  13.354  66.881  1.00  0.00    -0.300 NA 
HETATM   50  C   UNL     1     -11.038  13.375  65.523  1.00  0.00    -0.282 A  
HETATM   51  N   UNL     1     -10.690  14.570  65.097  1.00  0.00    -0.378 NA 
HETATM   52  C   UNL     1     -10.572  15.344  66.230  1.00  0.00    -0.308 A  
HETATM   53  C   UNL     1     -10.900  14.607  67.344  1.00  0.00    -0.298 A  
BRANCH  52  54
HETATM   54  C   UNL     1     -10.146  16.726  66.201  1.00  0.00    -0.360 A  
HETATM   55  C   UNL     1      -8.997  17.131  66.884  1.00  0.00    -0.253 A  
HETATM   56  C   UNL     1      -8.647  18.479  66.899  1.00  0.00    -0.281 A  
HETATM   57  C   UNL     1      -9.462  19.387  66.239  1.00  0.00    -0.368 A  
HETATM   58  N   UNL     1     -10.552  19.036  65.529  1.00  0.00    -0.512 NA 
HETATM   59  C   UNL     1     -10.866  17.714  65.533  1.00  0.00     0.056 A  
ENDBRANCH  52  54
ENDBRANCH  48  49
ENDBRANCH  47  48
ENDBRANCH  46  47
ENDBRANCH  45  46
ENDBRANCH  20  45
TORSDOF 10
ENDMDL
MODEL       21
REMARK 921   NORMALIZED FREE ENERGY PREDICTED BY IDOCK:    1.81 KCAL/MOL
REMARK 922        TOTAL FREE ENERGY PREDICTED BY IDOCK:    3.27 KCAL/MOL
REMARK 923 INTER-LIGAND FREE ENERGY PREDICTED BY IDOCK:   -2.37 KCAL/MOL
REMARK 924 INTRA-LIGAND FREE ENERGY PREDICTED BY IDOCK:    5.65 KCAL/MOL
REMARK 927      BINDING AFFINITY PREDICTED BY RF-SCORE:    0.00 PKD
ROOT
HETATM    1  C   UNL     1     -11.108   9.979  69.016  1.00  0.00    -0.180 C  
HETATM    2  C   UNL     1     -11.947  11.391  68.807  1.00  0.00    -0.353 C  
HETATM    3  C   UNL     1     -11.903  12.278  67.497  1.00  0.00    -0.261 C  
HETATM    4  C   UNL     1     -12.685  12.097  69.980  1.00  0.00     0.250 C  
HETATM    5  C   UNL     1     -11.437  13.759  67.426  1.00  0.00    -0.372 C  
HETATM    6  O   UNL     1     -12.390  11.807  66.457  1.00  0.00    -0.063 OA 
HETATM    7  C   UNL     1     -10.370  13.936  66.189  1.00  0.00    -0.303 C  
HETATM    8  C   UNL     1     -11.183  14.349  68.804  1.00  0.00    -0.282 C  
HETATM    9  C   UNL     1      -9.439  15.279  66.196  1.00  0.00    -0.326 C  
HETATM   10  C   UNL     1      -8.185  14.778  67.113  1.00  0.00    -0.211 C  
HETATM   11  O   UNL     1     -10.525  16.202  66.543  1.00  0.00    -0.299 OA 
HETATM   12  C   UNL     1      -8.683  16.216  65.227  1.00  0.00     1.805 C  
HETATM   13  C   UNL     1     -11.437  16.431  65.409  1.00  0.00     0.420 C  
HETATM   14  C   UNL     1      -8.302  10.141  69.522  1.00  0.00    -0.168 C  
HETATM   15  C   UNL     1      -6.635  14.559  66.821  1.00  0.00     1.703 C  
HETATM   16  C   UNL     1      -5.661  15.718  67.014  1.00  0.00     0.385 C  
HETATM   17  O   UNL     1     -11.578   6.788  69.956  1.00  0.00    -0.343 OA 
HETATM   18  C   UNL     1      -6.152  13.367  67.704  1.00  0.00    -0.122 C  
HETATM   19  O   UNL     1      -5.438  13.557  68.696  1.00  0.00    -0.076 OA 
HETATM   20  N   UNL     1     -11.813   9.117  70.008  1.00  0.00     0.137 N  
HETATM   21  C   UNL     1      -6.677  11.972  67.373  1.00  0.00    -0.131 C  
HETATM   22  C   UNL     1      -6.278  10.881  68.323  1.00  0.00    -0.049 C  
HETATM   23  C   UNL     1      -6.336  11.524  65.955  1.00  0.00     0.339 C  
HETATM   24  C   UNL     1     -11.123   7.914  69.952  1.00  0.00    -0.120 C  
HETATM   25  O   UNL     1      -9.806   8.227  70.023  1.00  0.00    -0.179 OA 
HETATM   26  C   UNL     1      -9.208   8.355  67.892  1.00  0.00    -0.144 C  
HETATM   27  O   UNL     1      -5.136  10.622  68.705  1.00  0.00    -0.042 OA 
HETATM   28  O   UNL     1      -7.313  10.000  68.436  1.00  0.00    -0.076 OA 
HETATM   29  C   UNL     1      -9.587   9.329  69.075  1.00  0.00    -0.159 C  
ENDROOT
BRANCH  10  30
HETATM   30  O   UNL     1      -8.533  14.591  68.441  1.00  0.00    -0.150 OA 
BRANCH  30  31
HETATM   31  C   UNL     1      -8.472  15.652  69.372  1.00  0.00    -0.244 C  
HETATM   32  C   UNL     1      -7.021  16.154  69.732  1.00  0.00    -0.006 C  
HETATM   33  C   UNL     1      -7.018  17.672  70.075  1.00  0.00     0.791 C  
HETATM   34  O   UNL     1      -9.329  16.519  68.672  1.00  0.00    -0.223 OA 
HETATM   35  C   UNL     1      -9.258  17.902  68.823  1.00  0.00    -0.221 C  
HETATM   36  H   UNL     1      -5.651  15.671  71.056  1.00  0.00     0.000 HD 
HETATM   37  C   UNL     1      -7.861  18.446  69.053  1.00  0.00    -0.140 C  
HETATM   38  O   UNL     1      -6.525  15.369  70.840  1.00  0.00     0.289 OA 
HETATM   39  C   UNL     1      -9.806  18.432  67.493  1.00  0.00    -0.327 C  
BRANCH  33  40
HETATM   40  N   UNL     1      -5.746  18.411  70.321  1.00  0.00    -0.232 NA 
HETATM   41  C   UNL     1      -5.393  18.850  71.668  1.00  0.00    -0.273 C  
HETATM   42  C   UNL     1      -5.357  19.425  69.351  1.00  0.00    -0.189 C  
ENDBRANCH  33  40
ENDBRANCH  30  31
ENDBRANCH  10  30
BRANCH  14  43
HETATM   43  C   UNL     1      -7.499   9.607  70.739  1.00  0.00    -0.043 C  
HETATM   44  C   UNL     1      -6.140   8.999  70.477  1.00  0.00    -0.040 C  
ENDBRANCH  14  43
BRANCH  20  45
HETATM   45  C   UNL     1     -11.823   9.536  71.416  1.00  0.00    -0.389 C  
BRANCH  45  46
HETATM   46  C   UNL     1     -10.774   8.824  72.271  1.00  0.00    -0.322 C  
BRANCH  46  47
HETATM   47  C   UNL     1     -11.168   7.388  72.619  1.00  0.00    -0.379 C  
BRANCH  47  48
HETATM   48  C   UNL     1     -10.145   6.733  73.537  1.00  0.00    -0.268 C  
BRANCH  48  49
HETATM   49  N   UNL     1      -8.953   6.346  72.816  1.00  0.00    -0.125 NA 
HETATM   50  C   UNL     1      -7.662   6.541  73.209  1.00  0.00    -0.092 A  
HETATM   51  N   UNL     1      -6.819   6.140  72.283  1.00  0.00    -0.072 NA 
HETATM   52  C   UNL     1      -7.601   5.680  71.248  1.00  0.00    -0.100 A  
HETATM   53  C   UNL     1      -8.932   5.769  71.583  1.00  0.00    -0.136 A  
BRANCH  52  54
HETATM   54  C   UNL     1      -7.054   5.196  69.998  1.00  0.00    -0.058 A  
HETATM   55  C   UNL     1      -7.836   5.173  68.841  1.00  0.00    -0.082 A  
HETATM   56  C   UNL     1      -7.309   4.638  67.668  1.00  0.00    -0.074 A  
HETATM   57  C   UNL     1      -6.018   4.130  67.688  1.00  0.00    -0.027 A  
HETATM   58  N   UNL     1      -5.212   4.176  68.768  1.00  0.00    -0.010 NA 
HETATM   59  C   UNL     1      -5.755   4.704  69.894  1.00  0.00    -0.013 A  
ENDBRANCH  52  54
ENDBRANCH  48  49
ENDBRANCH  47  48
ENDBRANCH  46  47
ENDBRANCH  45  46
ENDBRANCH  20  45
TORSDOF 10
ENDMDL
MODEL       22
REMARK 921   NORMALIZED FREE ENERGY PREDICTED BY IDOCK:    2.05 KCAL/MOL
REMARK 922        TOTAL FREE ENERGY PREDICTED BY IDOCK:    3.65 KCAL/MOL
REMARK 923 INTER-LIGAND FREE ENERGY PREDICTED BY IDOCK:   -2.70 KCAL/MOL
REMARK 924 INTRA-LIGAND FREE ENERGY PREDICTED BY IDOCK:    6.35 KCAL/MOL
REMARK 927      BINDING AFFINITY PREDICTED BY RF-SCORE:    0.00 PKD
ROOT
HETATM    1  C   UNL     1      -9.551  13.348  66.963  1.00  0.00    -0.244 C  
HETATM    2  C   UNL     1      -9.100  12.932  68.501  1.00  0.00    -0.049 C  
HETATM    3  C   UNL     1      -7.696  12.317  68.890  1.00  0.00     0.059 C  
HETATM    4  C   UNL     1     -10.113  12.897  69.680  1.00  0.00     1.193 C  
HETATM    5  C   UNL     1      -7.472  10.936  69.566  1.00  0.00    -0.081 C  
HETATM    6  O   UNL     1      -6.689  13.033  68.763  1.00  0.00    -0.089 OA 
HETATM    7  C   UNL     1      -6.308  10.111  68.751  1.00  0.00    -0.048 C  
HETATM    8  C   UNL     1      -8.778  10.284  69.990  1.00  0.00     0.115 C  
HETATM    9  C   UNL     1      -6.215   8.501  69.012  1.00  0.00    -0.044 C  
HETATM   10  C   UNL     1      -7.281   7.949  67.906  1.00  0.00    -0.091 C  
HETATM   11  O   UNL     1      -6.356   8.586  70.469  1.00  0.00    -0.034 OA 
HETATM   12  C   UNL     1      -5.195   7.340  68.978  1.00  0.00    -0.015 C  
HETATM   13  C   UNL     1      -5.136   9.103  71.113  1.00  0.00    -0.031 C  
HETATM   14  C   UNL     1     -10.247  11.254  65.150  1.00  0.00    -0.289 C  
HETATM   15  C   UNL     1      -7.139   7.034  66.611  1.00  0.00    -0.078 C  
HETATM   16  C   UNL     1      -7.257   5.519  66.742  1.00  0.00    -0.078 C  
HETATM   17  O   UNL     1     -10.853  15.922  65.239  1.00  0.00    -0.388 OA 
HETATM   18  C   UNL     1      -8.202   7.516  65.575  1.00  0.00    -0.135 C  
HETATM   19  O   UNL     1      -9.213   6.844  65.340  1.00  0.00     0.193 OA 
HETATM   20  N   UNL     1     -10.589  14.418  67.014  1.00  0.00    -0.272 N  
HETATM   21  C   UNL     1      -8.012   8.892  64.942  1.00  0.00    -0.129 C  
HETATM   22  C   UNL     1      -9.122   9.358  64.045  1.00  0.00    -0.060 C  
HETATM   23  C   UNL     1      -6.694   9.029  64.187  1.00  0.00    -0.083 C  
HETATM   24  C   UNL     1     -10.740  14.799  65.688  1.00  0.00    -0.336 C  
HETATM   25  O   UNL     1     -10.871  13.653  64.976  1.00  0.00    -0.314 OA 
HETATM   26  C   UNL     1      -8.793  13.226  64.332  1.00  0.00     3.455 C  
HETATM   27  O   UNL     1      -9.620   8.731  63.109  1.00  0.00     1.280 OA 
HETATM   28  O   UNL     1      -9.266  10.705  64.192  1.00  0.00    -0.205 OA 
HETATM   29  C   UNL     1      -9.809  12.749  65.441  1.00  0.00    -0.128 C  
ENDROOT
BRANCH  10  30
HETATM   30  O   UNL     1      -8.591   8.275  68.217  1.00  0.00    -0.131 OA 
BRANCH  30  31
HETATM   31  C   UNL     1      -9.100   8.108  69.525  1.00  0.00    -0.151 C  
HETATM   32  C   UNL     1     -10.618   8.486  69.714  1.00  0.00    -0.224 C  
HETATM   33  C   UNL     1     -11.283   7.617  70.821  1.00  0.00    -0.268 C  
HETATM   34  O   UNL     1      -8.719   6.762  69.666  1.00  0.00    -0.135 OA 
HETATM   35  C   UNL     1      -9.387   5.897  70.529  1.00  0.00    -0.163 C  
HETATM   36  H   UNL     1     -11.620  10.121  70.149  1.00  0.00     0.000 HD 
HETATM   37  C   UNL     1     -10.878   6.147  70.652  1.00  0.00    -0.355 C  
HETATM   38  O   UNL     1     -10.705   9.893  70.036  1.00  0.00    -0.249 OA 
HETATM   39  C   UNL     1      -9.145   4.517  69.905  1.00  0.00    -0.165 C  
BRANCH  33  40
HETATM   40  N   UNL     1     -12.746   7.694  71.096  1.00  0.00    -0.255 NA 
HETATM   41  C   UNL     1     -13.372   8.973  71.424  1.00  0.00    -0.277 C  
HETATM   42  C   UNL     1     -13.338   6.633  71.898  1.00  0.00     0.028 C  
ENDBRANCH  33  40
ENDBRANCH  30  31
ENDBRANCH  10  30
BRANCH  14  43
HETATM   43  C   UNL     1     -11.580  11.028  64.386  1.00  0.00     0.606 C  
HETATM   44  C   UNL     1     -12.067  12.131  63.475  1.00  0.00    -0.649 C  
ENDBRANCH  14  43
BRANCH  20  45
HETATM   45  C   UNL     1     -11.927  14.073  67.513  1.00  0.00    -0.395 C  
BRANCH  45  46
HETATM   46  C   UNL     1     -12.071  14.228  69.028  1.00  0.00    -0.320 C  
BRANCH  46  47
HETATM   47  C   UNL     1     -12.384  15.664  69.449  1.00  0.00    -0.096 C  
BRANCH  47  48
HETATM   48  C   UNL     1     -11.243  16.273  70.253  1.00  0.00    -0.333 C  
BRANCH  48  49
HETATM   49  N   UNL     1     -10.360  17.055  69.418  1.00  0.00    -0.275 NA 
HETATM   50  C   UNL     1     -10.622  18.278  68.874  1.00  0.00     0.167 A  
HETATM   51  N   UNL     1      -9.634  18.674  68.102  1.00  0.00    -0.316 NA 
HETATM   52  C   UNL     1      -8.706  17.658  68.140  1.00  0.00    -0.265 A  
HETATM   53  C   UNL     1      -9.130  16.661  68.986  1.00  0.00    -0.209 A  
BRANCH  52  54
HETATM   54  C   UNL     1      -7.480  17.677  67.371  1.00  0.00    -0.209 A  
HETATM   55  C   UNL     1      -7.271  18.649  66.391  1.00  0.00    -0.268 A  
HETATM   56  C   UNL     1      -6.114  18.603  65.617  1.00  0.00    -0.268 A  
HETATM   57  C   UNL     1      -5.204  17.579  65.837  1.00  0.00    -0.103 A  
HETATM   58  N   UNL     1      -5.342  16.650  66.802  1.00  0.00    -0.348 NA 
HETATM   59  C   UNL     1      -6.480  16.722  67.540  1.00  0.00    -0.152 A  
ENDBRANCH  52  54
ENDBRANCH  48  49
ENDBRANCH  47  48
ENDBRANCH  46  47
ENDBRANCH  45  46
ENDBRANCH  20  45
TORSDOF 10
ENDMDL
MODEL       23
REMARK 921   NORMALIZED FREE ENERGY PREDICTED BY IDOCK:    2.44 KCAL/MOL
REMARK 922        TOTAL FREE ENERGY PREDICTED BY IDOCK:    4.27 KCAL/MOL
REMARK 923 INTER-LIGAND FREE ENERGY PREDICTED BY IDOCK:    1.45 KCAL/MOL
REMARK 924 INTRA-LIGAND FREE ENERGY PREDICTED BY IDOCK:    2.82 KCAL/MOL
REMARK 927      BINDING AFFINITY PREDICTED BY RF-SCORE:    0.00 PKD
ROOT
HETATM    1  C   UNL     1      -9.856   4.777  67.978  1.00  0.00    -0.126 C  
HETATM    2  C   UNL     1     -10.533   6.221  68.424  1.00  0.00    -0.273 C  
HETATM    3  C   UNL     1     -11.198   7.249  67.422  1.00  0.00     0.112 C  
HETATM    4  C   UNL     1     -10.368   6.806  69.855  1.00  0.00    -0.229 C  
HETATM    5  C   UNL     1     -10.742   8.718  67.202  1.00  0.00    -0.204 C  
HETATM    6  O   UNL     1     -12.245   6.909  66.847  1.00  0.00     2.283 OA 
HETATM    7  C   UNL     1     -10.606   9.011  65.590  1.00  0.00     1.501 C  
HETATM    8  C   UNL     1      -9.672   9.143  68.194  1.00  0.00    -0.174 C  
HETATM    9  C   UNL     1      -9.742  10.324  65.143  1.00  0.00    -0.300 C  
HETATM   10  C   UNL     1      -8.237   9.696  65.085  1.00  0.00    -0.134 C  
HETATM   11  O   UNL     1     -10.329  11.225  66.141  1.00  0.00    -0.237 OA 
HETATM   12  C   UNL     1      -9.632  11.348  63.991  1.00  0.00    -0.224 C  
HETATM   13  C   UNL     1     -11.712  11.600  65.801  1.00  0.00     0.114 C  
HETATM   14  C   UNL     1      -7.295   4.821  66.716  1.00  0.00    -0.082 C  
HETATM   15  C   UNL     1      -7.187   9.479  63.907  1.00  0.00    -0.111 C  
HETATM   16  C   UNL     1      -6.195  10.587  63.570  1.00  0.00    -0.030 C  
HETATM   17  O   UNL     1      -9.945   1.510  68.762  1.00  0.00    -0.009 OA 
HETATM   18  C   UNL     1      -6.378   8.184  64.231  1.00  0.00    -0.065 C  
HETATM   19  O   UNL     1      -5.202   8.246  64.609  1.00  0.00    -0.035 OA 
HETATM   20  N   UNL     1      -9.905   3.823  69.125  1.00  0.00    -0.022 N  
HETATM   21  C   UNL     1      -7.112   6.847  64.172  1.00  0.00    -0.059 C  
HETATM   22  C   UNL     1      -6.322   5.647  64.606  1.00  0.00    -0.036 C  
HETATM   23  C   UNL     1      -7.718   6.555  62.803  1.00  0.00    -0.097 C  
HETATM   24  C   UNL     1      -9.488   2.620  68.573  1.00  0.00    -0.137 C  
HETATM   25  O   UNL     1      -8.364   2.895  67.867  1.00  0.00    -0.076 OA 
HETATM   26  C   UNL     1      -9.138   3.250  65.819  1.00  0.00    -0.153 C  
HETATM   27  O   UNL     1      -5.202   5.323  64.207  1.00  0.00    -0.009 OA 
HETATM   28  O   UNL     1      -7.159   4.782  65.247  1.00  0.00    -0.061 OA 
HETATM   29  C   UNL     1      -8.658   4.092  67.065  1.00  0.00    -0.105 C  
ENDROOT
BRANCH  10  30
HETATM   30  O   UNL     1      -7.744   9.368  66.338  1.00  0.00    -0.096 OA 
BRANCH  30  31
HETATM   31  C   UNL     1      -6.810  10.196  67.000  1.00  0.00    -0.083 C  
HETATM   32  C   UNL     1      -6.926  11.736  66.681  1.00  0.00     0.027 C  
HETATM   33  C   UNL     1      -6.490  12.599  67.900  1.00  0.00    -0.113 C  
HETATM   34  O   UNL     1      -7.110   9.754  68.301  1.00  0.00    -0.075 OA 
HETATM   35  C   UNL     1      -6.886  10.555  69.418  1.00  0.00    -0.088 C  
HETATM   36  H   UNL     1      -6.186  12.955  65.328  1.00  0.00     0.000 HD 
HETATM   37  C   UNL     1      -7.103  12.039  69.191  1.00  0.00    -0.032 C  
HETATM   38  O   UNL     1      -6.115  12.027  65.520  1.00  0.00     1.183 OA 
HETATM   39  C   UNL     1      -7.908  10.035  70.437  1.00  0.00     0.050 C  
BRANCH  33  40
HETATM   40  N   UNL     1      -6.633  14.083  67.893  1.00  0.00    -0.150 NA 
HETATM   41  C   UNL     1      -5.619  14.929  68.518  1.00  0.00    -0.100 C  
HETATM   42  C   UNL     1      -7.958  14.634  68.141  1.00  0.00    -0.136 C  
ENDBRANCH  33  40
ENDBRANCH  30  31
ENDBRANCH  10  30
BRANCH  14  43
HETATM   43  C   UNL     1      -5.975   4.136  67.164  1.00  0.00    -0.024 C  
HETATM   44  C   UNL     1      -5.674   2.759  66.618  1.00  0.00    -0.022 C  
ENDBRANCH  14  43
BRANCH  20  45
HETATM   45  C   UNL     1      -9.044   4.081  70.286  1.00  0.00    -0.112 C  
BRANCH  45  46
HETATM   46  C   UNL     1      -7.574   3.731  70.044  1.00  0.00    -0.048 C  
BRANCH  46  47
HETATM   47  C   UNL     1      -6.665   4.167  71.193  1.00  0.00    -0.034 C  
BRANCH  47  48
HETATM   48  C   UNL     1      -7.428   4.972  72.236  1.00  0.00    -0.093 C  
BRANCH  48  49
HETATM   49  N   UNL     1      -6.615   6.029  72.793  1.00  0.00    -0.063 NA 
HETATM   50  C   UNL     1      -5.753   5.927  73.845  1.00  0.00    -0.052 A  
HETATM   51  N   UNL     1      -5.231   7.097  74.144  1.00  0.00    -0.046 NA 
HETATM   52  C   UNL     1      -5.791   7.988  73.256  1.00  0.00    -0.059 A  
HETATM   53  C   UNL     1      -6.626   7.328  72.386  1.00  0.00    -0.052 A  
BRANCH  52  54
HETATM   54  C   UNL     1      -5.519   9.409  73.285  1.00  0.00    -0.008 A  
HETATM   55  C   UNL     1      -5.465  10.099  74.498  1.00  0.00     0.124 A  
HETATM   56  C   UNL     1      -5.271  11.478  74.495  1.00  0.00     0.304 A  
HETATM   57  C   UNL     1      -5.149  12.131  73.277  1.00  0.00     0.469 A  
HETATM   58  N   UNL     1      -5.147  11.500  72.086  1.00  0.00    -0.335 NA 
HETATM   59  C   UNL     1      -5.336  10.156  72.124  1.00  0.00     0.097 A  
ENDBRANCH  52  54
ENDBRANCH  48  49
ENDBRANCH  47  48
ENDBRANCH  46  47
ENDBRANCH  45  46
ENDBRANCH  20  45
TORSDOF 10
ENDMDL
MODEL       24
REMARK 921   NORMALIZED FREE ENERGY PREDICTED BY IDOCK:    2.78 KCAL/MOL
REMARK 922        TOTAL FREE ENERGY PREDICTED BY IDOCK:    4.80 KCAL/MOL
REMARK 923 INTER-LIGAND FREE ENERGY PREDICTED BY IDOCK:    3.16 KCAL/MOL
REMARK 924 INTRA-LIGAND FREE ENERGY PREDICTED BY IDOCK:    1.64 KCAL/MOL
REMARK 927      BINDING AFFINITY PREDICTED BY RF-SCORE:    0.00 PKD
ROOT
HETATM    1  C   UNL     1     -10.580   8.307  68.763  1.00  0.00    -0.123 C  
HETATM    2  C   UNL     1     -10.884   9.322  70.036  1.00  0.00    -0.264 C  
HETATM    3  C   UNL     1     -12.018  10.425  70.055  1.00  0.00    -0.247 C  
HETATM    4  C   UNL     1      -9.923   9.434  71.252  1.00  0.00    -0.274 C  
HETATM    5  C   UNL     1     -11.788  11.951  70.241  1.00  0.00    -0.368 C  
HETATM    6  O   UNL     1     -13.200  10.048  70.043  1.00  0.00     0.170 OA 
HETATM    7  C   UNL     1     -12.618  12.772  69.084  1.00  0.00     0.578 C  
HETATM    8  C   UNL     1     -10.344  12.278  70.586  1.00  0.00     4.230 C  
HETATM    9  C   UNL     1     -12.187  14.327  68.822  1.00  0.00    -0.190 C  
HETATM   10  C   UNL     1     -10.992  14.134  67.728  1.00  0.00    -0.262 C  
HETATM   11  O   UNL     1     -12.091  14.688  70.241  1.00  0.00    -0.281 OA 
HETATM   12  C   UNL     1     -12.777  15.662  68.316  1.00  0.00     1.467 C  
HETATM   13  C   UNL     1     -13.418  14.807  70.871  1.00  0.00    -0.276 C  
HETATM   14  C   UNL     1      -9.233   9.372  66.482  1.00  0.00    -0.159 C  
HETATM   15  C   UNL     1     -10.822  14.568  66.205  1.00  0.00    -0.317 C  
HETATM   16  C   UNL     1     -10.221  15.931  65.874  1.00  0.00    -0.373 C  
HETATM   17  O   UNL     1     -10.168   5.043  68.078  1.00  0.00    -0.146 OA 
HETATM   18  C   UNL     1      -9.964  13.475  65.496  1.00  0.00    -0.219 C  
HETATM   19  O   UNL     1      -8.788  13.692  65.180  1.00  0.00     1.438 OA 
HETATM   20  N   UNL     1      -9.945   7.052  69.260  1.00  0.00    -0.159 N  
HETATM   21  C   UNL     1     -10.584  12.093  65.303  1.00  0.00    -0.319 C  
HETATM   22  C   UNL     1      -9.678  11.045  64.725  1.00  0.00    -0.262 C  
HETATM   23  C   UNL     1     -11.870  12.121  64.484  1.00  0.00    -0.418 C  
HETATM   24  C   UNL     1      -9.916   6.229  68.142  1.00  0.00    -0.138 C  
HETATM   25  O   UNL     1      -9.416   6.980  67.130  1.00  0.00    -0.135 OA 
HETATM   26  C   UNL     1     -11.240   7.780  66.156  1.00  0.00     2.971 C  
HETATM   27  O   UNL     1      -8.997  11.147  63.703  1.00  0.00    -0.133 OA 
HETATM   28  O   UNL     1      -9.977   9.845  65.297  1.00  0.00    -0.318 OA 
HETATM   29  C   UNL     1     -10.132   8.264  67.170  1.00  0.00    -0.264 C  
ENDROOT
BRANCH  10  30
HETATM   30  O   UNL     1      -9.859  13.548  68.269  1.00  0.00    -0.225 OA 
BRANCH  30  31
HETATM   31  C   UNL     1      -8.917  14.307  68.999  1.00  0.00     0.061 C  
HETATM   32  C   UNL     1      -7.538  14.550  68.275  1.00  0.00    -0.121 C  
HETATM   33  C   UNL     1      -6.912  15.911  68.695  1.00  0.00    -0.127 C  
HETATM   34  O   UNL     1      -9.757  15.410  69.232  1.00  0.00    -0.234 OA 
HETATM   35  C   UNL     1      -9.248  16.687  69.455  1.00  0.00     0.040 C  
HETATM   36  H   UNL     1      -5.822  13.597  68.155  1.00  0.00     0.000 HD 
HETATM   37  C   UNL     1      -7.983  17.011  68.684  1.00  0.00    -0.258 C  
HETATM   38  O   UNL     1      -6.653  13.451  68.591  1.00  0.00    -0.078 OA 
HETATM   39  C   UNL     1     -10.384  17.607  68.991  1.00  0.00    -0.272 C  
BRANCH  33  40
HETATM   40  N   UNL     1      -5.671  16.429  68.049  1.00  0.00    -0.105 NA 
HETATM   41  C   UNL     1      -5.264  17.820  68.236  1.00  0.00    -0.146 C  
HETATM   42  C   UNL     1      -5.399  16.013  66.681  1.00  0.00     0.898 C  
ENDBRANCH  33  40
ENDBRANCH  30  31
ENDBRANCH  10  30
BRANCH  14  43
HETATM   43  C   UNL     1      -7.893   8.919  65.840  1.00  0.00    -0.102 C  
HETATM   44  C   UNL     1      -6.684   9.804  66.032  1.00  0.00    -0.087 C  
ENDBRANCH  14  43
BRANCH  20  45
HETATM   45  C   UNL     1      -8.571   7.121  69.774  1.00  0.00    -0.141 C  
BRANCH  45  46
HETATM   46  C   UNL     1      -7.505   6.991  68.684  1.00  0.00    -0.102 C  
BRANCH  46  47
HETATM   47  C   UNL     1      -6.175   6.459  69.216  1.00  0.00    -0.034 C  
BRANCH  47  48
HETATM   48  C   UNL     1      -5.924   6.911  70.649  1.00  0.00    -0.027 C  
BRANCH  48  49
HETATM   49  N   UNL     1      -6.315   5.899  71.603  1.00  0.00    -0.047 NA 
HETATM   50  C   UNL     1      -5.485   5.082  72.312  1.00  0.00    -0.008 A  
HETATM   51  N   UNL     1      -6.170   4.222  73.034  1.00  0.00    -0.016 NA 
HETATM   52  C   UNL     1      -7.494   4.489  72.767  1.00  0.00    -0.085 A  
HETATM   53  C   UNL     1      -7.597   5.557  71.906  1.00  0.00    -0.099 A  
BRANCH  52  54
HETATM   54  C   UNL     1      -8.584   3.720  73.326  1.00  0.00    -0.090 A  
HETATM   55  C   UNL     1      -8.346   2.481  73.926  1.00  0.00    -0.067 A  
HETATM   56  C   UNL     1      -9.420   1.729  74.395  1.00  0.00    -0.094 A  
HETATM   57  C   UNL     1     -10.704   2.230  74.239  1.00  0.00    -0.136 A  
HETATM   58  N   UNL     1     -10.976   3.440  73.710  1.00  0.00    -0.223 NA 
HETATM   59  C   UNL     1      -9.907   4.149  73.265  1.00  0.00    -0.128 A  
ENDBRANCH  52  54
ENDBRANCH  48  49
ENDBRANCH  47  48
ENDBRANCH  46  47
ENDBRANCH  45  46
ENDBRANCH  20  45
TORSDOF 10
ENDMDL
MODEL       25
REMARK 921   NORMALIZED FREE ENERGY PREDICTED BY IDOCK:    4.44 KCAL/MOL
REMARK 922        TOTAL FREE ENERGY PREDICTED BY IDOCK:    7.43 KCAL/MOL
REMARK 923 INTER-LIGAND FREE ENERGY PREDICTED BY IDOCK:    5.04 KCAL/MOL
REMARK 924 INTRA-LIGAND FREE ENERGY PREDICTED BY IDOCK:    2.39 KCAL/MOL
REMARK 927      BINDING AFFINITY PREDICTED BY RF-SCORE:    0.00 PKD
ROOT
HETATM    1  C   UNL     1      -7.546   6.618  65.950  1.00  0.00    -0.087 C  
HETATM    2  C   UNL     1      -8.715   7.247  64.960  1.00  0.00     0.196 C  
HETATM    3  C   UNL     1      -8.592   8.618  64.182  1.00  0.00    -0.009 C  
HETATM    4  C   UNL     1     -10.148   6.647  64.887  1.00  0.00     3.098 C  
HETATM    5  C   UNL     1      -9.542   9.837  64.346  1.00  0.00    -0.160 C  
HETATM    6  O   UNL     1      -7.747   8.702  63.276  1.00  0.00    -0.120 OA 
HETATM    7  C   UNL     1      -8.649  11.202  64.549  1.00  0.00     0.236 C  
HETATM    8  C   UNL     1     -10.742   9.518  65.224  1.00  0.00     1.701 C  
HETATM    9  C   UNL     1      -9.416  12.509  65.160  1.00  0.00     0.213 C  
HETATM   10  C   UNL     1      -9.245  12.243  66.762  1.00  0.00    -0.210 C  
HETATM   11  O   UNL     1     -10.614  12.374  64.325  1.00  0.00    -0.313 OA 
HETATM   12  C   UNL     1      -9.341  14.052  65.153  1.00  0.00     0.774 C  
HETATM   13  C   UNL     1     -10.357  12.758  62.926  1.00  0.00     1.760 C  
HETATM   14  C   UNL     1      -7.211   7.769  68.541  1.00  0.00    -0.086 C  
HETATM   15  C   UNL     1      -8.486  13.022  67.925  1.00  0.00    -0.185 C  
HETATM   16  C   UNL     1      -9.213  14.120  68.695  1.00  0.00    -0.146 C  
HETATM   17  O   UNL     1      -5.823   3.779  66.464  1.00  0.00    -0.022 OA 
HETATM   18  C   UNL     1      -7.982  11.961  68.952  1.00  0.00     0.040 C  
HETATM   19  O   UNL     1      -8.523  11.836  70.057  1.00  0.00     1.701 OA 
HETATM   20  N   UNL     1      -7.677   5.133  66.004  1.00  0.00    -0.090 N  
HETATM   21  C   UNL     1      -6.872  11.010  68.511  1.00  0.00    -0.064 C  
HETATM   22  C   UNL     1      -6.506   9.933  69.492  1.00  0.00    -0.048 C  
HETATM   23  C   UNL     1      -5.596  11.730  68.090  1.00  0.00    -0.044 C  
HETATM   24  C   UNL     1      -6.548   4.724  66.700  1.00  0.00    -0.050 C  
HETATM   25  O   UNL     1      -6.471   5.517  67.797  1.00  0.00    -0.044 OA 
HETATM   26  C   UNL     1      -5.134   7.157  67.134  1.00  0.00    -0.013 C  
HETATM   27  O   UNL     1      -6.230  10.088  70.682  1.00  0.00    -0.089 OA 
HETATM   28  O   UNL     1      -6.189   8.802  68.800  1.00  0.00    -0.044 OA 
HETATM   29  C   UNL     1      -6.678   6.896  67.332  1.00  0.00    -0.067 C  
ENDROOT
BRANCH  10  30
HETATM   30  O   UNL     1      -9.990  11.164  67.209  1.00  0.00    -0.180 OA 
BRANCH  30  31
HETATM   31  C   UNL     1     -11.242  11.347  67.839  1.00  0.00    -0.288 C  
HETATM   32  C   UNL     1     -11.188  11.550  69.401  1.00  0.00    -0.259 C  
HETATM   33  C   UNL     1     -12.351  12.462  69.892  1.00  0.00    -0.048 C  
HETATM   34  O   UNL     1     -11.662  12.421  67.035  1.00  0.00    -0.381 OA 
HETATM   35  C   UNL     1     -12.585  13.361  67.488  1.00  0.00     0.515 C  
HETATM   36  H   UNL     1     -11.210  10.375  70.978  1.00  0.00     0.000 HD 
HETATM   37  C   UNL     1     -12.493  13.679  68.968  1.00  0.00     0.143 C  
HETATM   38  O   UNL     1     -11.242  10.253  70.036  1.00  0.00    -0.266 OA 
HETATM   39  C   UNL     1     -12.247  14.613  66.670  1.00  0.00    -0.141 C  
BRANCH  33  40
HETATM   40  N   UNL     1     -12.442  12.910  71.311  1.00  0.00    -0.278 NA 
HETATM   41  C   UNL     1     -13.615  12.583  72.117  1.00  0.00    -0.360 C  
HETATM   42  C   UNL     1     -11.987  14.257  71.623  1.00  0.00    -0.085 C  
ENDBRANCH  33  40
ENDBRANCH  30  31
ENDBRANCH  10  30
BRANCH  14  43
HETATM   43  C   UNL     1      -7.316   7.087  69.932  1.00  0.00    -0.085 C  
HETATM   44  C   UNL     1      -6.032   6.784  70.669  1.00  0.00    -0.027 C  
ENDBRANCH  14  43
BRANCH  20  45
HETATM   45  C   UNL     1      -8.837   4.558  66.699  1.00  0.00    -0.112 C  
BRANCH  45  46
HETATM   46  C   UNL     1     -10.162   5.225  66.325  1.00  0.00    -0.263 C  
BRANCH  46  47
HETATM   47  C   UNL     1     -11.181   5.198  67.465  1.00  0.00     1.363 C  
BRANCH  47  48
HETATM   48  C   UNL     1     -11.069   6.437  68.344  1.00  0.00    -0.285 C  
BRANCH  48  49
HETATM   49  N   UNL     1     -10.769   6.093  69.715  1.00  0.00    -0.275 NA 
HETATM   50  C   UNL     1     -11.110   6.803  70.828  1.00  0.00    -0.276 A  
HETATM   51  N   UNL     1     -10.614   6.249  71.913  1.00  0.00    -0.213 NA 
HETATM   52  C   UNL     1      -9.915   5.146  71.477  1.00  0.00    -0.187 A  
HETATM   53  C   UNL     1     -10.036   5.017  70.114  1.00  0.00    -0.268 A  
BRANCH  52  54
HETATM   54  C   UNL     1      -9.165   4.284  72.365  1.00  0.00    -0.149 A  
HETATM   55  C   UNL     1      -8.184   4.812  73.208  1.00  0.00    -0.100 A  
HETATM   56  C   UNL     1      -7.428   3.953  74.002  1.00  0.00    -0.066 A  
HETATM   57  C   UNL     1      -7.666   2.588  73.922  1.00  0.00    -0.050 A  
HETATM   58  N   UNL     1      -8.632   2.040  73.159  1.00  0.00    -0.062 NA 
HETATM   59  C   UNL     1      -9.352   2.904  72.398  1.00  0.00    -0.103 A  
ENDBRANCH  52  54
ENDBRANCH  48  49
ENDBRANCH  47  48
ENDBRANCH  46  47
ENDBRANCH  45  46
ENDBRANCH  20  45
TORSDOF 10
ENDMDL
MODEL       26
REMARK 921   NORMALIZED FREE ENERGY PREDICTED BY IDOCK:    7.11 KCAL/MOL
REMARK 922        TOTAL FREE ENERGY PREDICTED BY IDOCK:   11.66 KCAL/MOL
REMARK 923 INTER-LIGAND FREE ENERGY PREDICTED BY IDOCK:   10.16 KCAL/MOL
REMARK 924 INTRA-LIGAND FREE ENERGY PREDICTED BY IDOCK:    1.50 KCAL/MOL
REMARK 927      BINDING AFFINITY PREDICTED BY RF-SCORE:    0.00 PKD
ROOT
HETATM    1  C   UNL     1      -8.835   9.495  68.244  1.00  0.00    -0.124 C  
HETATM    2  C   UNL     1      -7.390  10.303  68.293  1.00  0.00    -0.085 C  
HETATM    3  C   UNL     1      -6.923  11.239  69.479  1.00  0.00    -0.089 C  
HETATM    4  C   UNL     1      -6.450  10.394  67.057  1.00  0.00    -0.074 C  
HETATM    5  C   UNL     1      -6.576  12.749  69.353  1.00  0.00    -0.064 C  
HETATM    6  O   UNL     1      -6.694  10.716  70.581  1.00  0.00    -0.332 OA 
HETATM    7  C   UNL     1      -7.352  13.587  70.534  1.00  0.00     2.030 C  
HETATM    8  C   UNL     1      -6.559  13.217  67.907  1.00  0.00    -0.145 C  
HETATM    9  C   UNL     1      -7.479  15.205  70.338  1.00  0.00     0.587 C  
HETATM   10  C   UNL     1      -8.855  15.300  69.464  1.00  0.00    -0.181 C  
HETATM   11  O   UNL     1      -6.093  15.404  69.903  1.00  0.00    -0.138 OA 
HETATM   12  C   UNL     1      -7.617  16.503  71.165  1.00  0.00     5.082 C  
HETATM   13  C   UNL     1      -5.140  15.274  71.019  1.00  0.00    -0.147 C  
HETATM   14  C   UNL     1     -11.196  10.990  67.659  1.00  0.00    -0.305 C  
HETATM   15  C   UNL     1     -10.289  15.931  69.747  1.00  0.00    -0.290 C  
HETATM   16  C   UNL     1     -10.554  17.391  69.388  1.00  0.00     0.005 C  
HETATM   17  O   UNL     1     -10.078   6.417  67.722  1.00  0.00    -0.128 OA 
HETATM   18  C   UNL     1     -11.345  15.051  69.009  1.00  0.00    -0.290 C  
HETATM   19  O   UNL     1     -11.910  15.455  67.987  1.00  0.00    -0.294 OA 
HETATM   20  N   UNL     1      -8.705   8.283  67.383  1.00  0.00    -0.124 N  
HETATM   21  C   UNL     1     -11.581  13.633  69.525  1.00  0.00    -0.361 C  
HETATM   22  C   UNL     1     -12.516  12.788  68.711  1.00  0.00     0.494 C  
HETATM   23  C   UNL     1     -12.037  13.591  70.980  1.00  0.00    -0.233 C  
HETATM   24  C   UNL     1      -9.904   7.610  67.575  1.00  0.00    -0.165 C  
HETATM   25  O   UNL     1     -10.886   8.535  67.436  1.00  0.00    -0.209 OA 
HETATM   26  C   UNL     1     -11.242   9.201  69.521  1.00  0.00     0.022 C  
HETATM   27  O   UNL     1     -13.649  13.099  68.339  1.00  0.00     3.895 OA 
HETATM   28  O   UNL     1     -12.072  11.500  68.733  1.00  0.00    -0.439 OA 
HETATM   29  C   UNL     1     -10.477   9.700  68.233  1.00  0.00    -0.219 C  
ENDROOT
BRANCH  10  30
HETATM   30  O   UNL     1      -8.708  14.806  68.178  1.00  0.00    -0.157 OA 
BRANCH  30  31
HETATM   31  C   UNL     1      -8.405  15.660  67.093  1.00  0.00    -0.208 C  
HETATM   32  C   UNL     1      -9.603  16.541  66.571  1.00  0.00    -0.271 C  
HETATM   33  C   UNL     1      -9.098  17.898  66.001  1.00  0.00     0.009 C  
HETATM   34  O   UNL     1      -7.314  16.302  67.705  1.00  0.00    -0.122 OA 
HETATM   35  C   UNL     1      -6.919  17.588  67.340  1.00  0.00    -0.164 C  
HETATM   36  H   UNL     1     -11.044  16.321  65.252  1.00  0.00     0.000 HD 
HETATM   37  C   UNL     1      -8.054  18.512  66.943  1.00  0.00    -0.254 C  
HETATM   38  O   UNL     1     -10.322  15.790  65.567  1.00  0.00    -0.355 OA 
HETATM   39  C   UNL     1      -6.238  18.122  68.606  1.00  0.00    -0.204 C  
BRANCH  33  40
HETATM   40  N   UNL     1     -10.050  18.961  65.565  1.00  0.00    -0.310 NA 
HETATM   41  C   UNL     1      -9.865  20.343  65.998  1.00  0.00    -0.141 C  
HETATM   42  C   UNL     1     -11.468  18.631  65.551  1.00  0.00     1.874 C  
ENDBRANCH  33  40
ENDBRANCH  30  31
ENDBRANCH  10  30
BRANCH  14  43
HETATM   43  C   UNL     1     -12.213  10.794  66.501  1.00  0.00     3.094 C  
HETATM   44  C   UNL     1     -11.741  11.073  65.093  1.00  0.00     0.819 C  
ENDBRANCH  14  43
BRANCH  20  45
HETATM   45  C   UNL     1      -8.548   8.468  65.935  1.00  0.00    -0.163 C  
BRANCH  45  46
HETATM   46  C   UNL     1      -7.474   7.568  65.320  1.00  0.00    -0.084 C  
BRANCH  46  47
HETATM   47  C   UNL     1      -7.761   7.217  63.860  1.00  0.00    -0.120 C  
BRANCH  47  48
HETATM   48  C   UNL     1      -7.498   5.744  63.576  1.00  0.00    -0.068 C  
BRANCH  48  49
HETATM   49  N   UNL     1      -7.154   5.023  64.780  1.00  0.00    -0.057 NA 
HETATM   50  C   UNL     1      -6.062   4.228  64.972  1.00  0.00    -0.023 A  
HETATM   51  N   UNL     1      -6.093   3.659  66.157  1.00  0.00    -0.027 NA 
HETATM   52  C   UNL     1      -7.260   4.095  66.745  1.00  0.00    -0.072 A  
HETATM   53  C   UNL     1      -7.910   4.974  65.911  1.00  0.00    -0.092 A  
BRANCH  52  54
HETATM   54  C   UNL     1      -7.702   3.651  68.049  1.00  0.00    -0.069 A  
HETATM   55  C   UNL     1      -8.166   2.347  68.237  1.00  0.00    -0.072 A  
HETATM   56  C   UNL     1      -8.650   1.966  69.486  1.00  0.00    -0.098 A  
HETATM   57  C   UNL     1      -8.669   2.902  70.509  1.00  0.00    -0.069 A  
HETATM   58  N   UNL     1      -8.189   4.155  70.385  1.00  0.00    -0.058 NA 
HETATM   59  C   UNL     1      -7.722   4.496  69.156  1.00  0.00    -0.059 A  
ENDBRANCH  52  54
ENDBRANCH  48  49
ENDBRANCH  47  48
ENDBRANCH  46  47
ENDBRANCH  45  46
ENDBRANCH  20  45
TORSDOF 10
ENDMDL
MODEL       27
REMARK 921   NORMALIZED FREE ENERGY PREDICTED BY IDOCK:    9.08 KCAL/MOL
REMARK 922        TOTAL FREE ENERGY PREDICTED BY IDOCK:   14.79 KCAL/MOL
REMARK 923 INTER-LIGAND FREE ENERGY PREDICTED BY IDOCK:   11.96 KCAL/MOL
REMARK 924 INTRA-LIGAND FREE ENERGY PREDICTED BY IDOCK:    2.82 KCAL/MOL
REMARK 927      BINDING AFFINITY PREDICTED BY RF-SCORE:    0.00 PKD
ROOT
HETATM    1  C   UNL     1      -9.903  12.594  64.762  1.00  0.00    -0.040 C  
HETATM    2  C   UNL     1     -11.119  13.717  64.756  1.00  0.00    -0.380 C  
HETATM    3  C   UNL     1     -10.914  15.263  64.491  1.00  0.00    -0.192 C  
HETATM    4  C   UNL     1     -12.558  13.382  65.242  1.00  0.00    -0.518 C  
HETATM    5  C   UNL     1     -11.275  16.404  65.482  1.00  0.00     0.147 C  
HETATM    6  O   UNL     1     -10.549  15.618  63.358  1.00  0.00     2.361 OA 
HETATM    7  C   UNL     1     -10.004  17.437  65.611  1.00  0.00     0.034 C  
HETATM    8  C   UNL     1     -12.028  15.892  66.700  1.00  0.00     1.031 C  
HETATM    9  C   UNL     1      -9.993  18.447  66.895  1.00  0.00    -0.353 C  
HETATM   10  C   UNL     1      -9.256  17.513  68.014  1.00  0.00    -0.275 C  
HETATM   11  O   UNL     1     -11.407  18.822  66.792  1.00  0.00     0.265 OA 
HETATM   12  C   UNL     1      -9.451  19.829  67.327  1.00  0.00    -0.471 C  
HETATM   13  C   UNL     1     -11.657  19.726  65.656  1.00  0.00     1.526 C  
HETATM   14  C   UNL     1      -8.169  12.497  67.029  1.00  0.00    -0.125 C  
HETATM   15  C   UNL     1      -7.878  17.632  68.802  1.00  0.00    -0.242 C  
HETATM   16  C   UNL     1      -7.832  18.382  70.130  1.00  0.00     1.880 C  
HETATM   17  O   UNL     1      -9.103   9.617  63.423  1.00  0.00    -0.248 OA 
HETATM   18  C   UNL     1      -7.347  16.184  69.043  1.00  0.00    -0.203 C  
HETATM   19  O   UNL     1      -7.383  15.672  70.168  1.00  0.00     0.071 OA 
HETATM   20  N   UNL     1     -10.455  11.252  64.415  1.00  0.00    -0.323 N  
HETATM   21  C   UNL     1      -6.883  15.381  67.831  1.00  0.00    -0.166 C  
HETATM   22  C   UNL     1      -6.495  13.956  68.101  1.00  0.00    -0.125 C  
HETATM   23  C   UNL     1      -5.748  16.052  67.065  1.00  0.00     0.182 C  
HETATM   24  C   UNL     1      -9.327  10.455  64.273  1.00  0.00    -0.277 C  
HETATM   25  O   UNL     1      -8.553  10.696  65.360  1.00  0.00    -0.177 OA 
HETATM   26  C   UNL     1      -7.182  12.288  64.652  1.00  0.00     5.544 C  
HETATM   27  O   UNL     1      -5.711  13.561  68.965  1.00  0.00    -0.072 OA 
HETATM   28  O   UNL     1      -6.867  13.193  67.035  1.00  0.00    -0.060 OA 
HETATM   29  C   UNL     1      -8.495  12.157  65.517  1.00  0.00     0.907 C  
ENDROOT
BRANCH  10  30
HETATM   30  O   UNL     1     -10.040  16.445  68.419  1.00  0.00    -0.230 OA 
BRANCH  30  31
HETATM   31  C   UNL     1     -10.015  15.981  69.754  1.00  0.00    -0.172 C  
HETATM   32  C   UNL     1     -11.058  16.656  70.724  1.00  0.00     0.157 C  
HETATM   33  C   UNL     1     -11.517  15.668  71.836  1.00  0.00    -0.414 C  
HETATM   34  O   UNL     1     -10.169  14.618  69.445  1.00  0.00    -0.185 OA 
HETATM   35  C   UNL     1     -10.725  13.718  70.350  1.00  0.00     1.219 C  
HETATM   36  H   UNL     1     -11.084  18.246  71.881  1.00  0.00     0.000 HD 
HETATM   37  C   UNL     1     -11.821  14.293  71.227  1.00  0.00    -0.219 C  
HETATM   38  O   UNL     1     -10.455  17.839  71.297  1.00  0.00     2.047 OA 
HETATM   39  C   UNL     1     -11.308  12.623  69.448  1.00  0.00    -0.273 C  
BRANCH  33  40
HETATM   40  N   UNL     1     -12.598  16.028  72.798  1.00  0.00    -0.457 NA 
HETATM   41  C   UNL     1     -14.001  15.941  72.402  1.00  0.00    -0.290 C  
HETATM   42  C   UNL     1     -12.392  17.200  73.637  1.00  0.00     0.465 C  
ENDBRANCH  33  40
ENDBRANCH  30  31
ENDBRANCH  10  30
BRANCH  14  43
HETATM   43  C   UNL     1      -7.886  11.310  67.990  1.00  0.00    -0.115 C  
HETATM   44  C   UNL     1      -7.642  11.625  69.448  1.00  0.00     0.213 C  
ENDBRANCH  14  43
BRANCH  20  45
HETATM   45  C   UNL     1     -11.330  10.582  65.386  1.00  0.00     1.038 C  
BRANCH  45  46
HETATM   46  C   UNL     1     -10.880   9.162  65.734  1.00  0.00     1.773 C  
BRANCH  46  47
HETATM   47  C   UNL     1     -10.236   9.066  67.117  1.00  0.00    -0.334 C  
BRANCH  47  48
HETATM   48  C   UNL     1      -8.856   8.425  67.049  1.00  0.00    -0.134 C  
BRANCH  48  49
HETATM   49  N   UNL     1      -8.621   7.548  68.173  1.00  0.00    -0.124 NA 
HETATM   50  C   UNL     1      -7.488   6.832  68.427  1.00  0.00    -0.095 A  
HETATM   51  N   UNL     1      -7.634   6.075  69.492  1.00  0.00    -0.091 NA 
HETATM   52  C   UNL     1      -8.919   6.303  69.932  1.00  0.00    -0.141 A  
HETATM   53  C   UNL     1      -9.530   7.246  69.140  1.00  0.00    -0.148 A  
BRANCH  52  54
HETATM   54  C   UNL     1      -9.502   5.612  71.062  1.00  0.00    -0.200 A  
HETATM   55  C   UNL     1      -9.605   4.220  71.069  1.00  0.00    -0.253 A  
HETATM   56  C   UNL     1     -10.233   3.584  72.137  1.00  0.00    -0.153 A  
HETATM   57  C   UNL     1     -10.750   4.360  73.165  1.00  0.00    -0.220 A  
HETATM   58  N   UNL     1     -10.631   5.701  73.223  1.00  0.00    -0.232 NA 
HETATM   59  C   UNL     1     -10.013   6.290  72.167  1.00  0.00    -0.166 A  
ENDBRANCH  52  54
ENDBRANCH  48  49
ENDBRANCH  47  48
ENDBRANCH  46  47
ENDBRANCH  45  46
ENDBRANCH  20  45
TORSDOF 10
ENDMDL
MODEL       28
REMARK 921   NORMALIZED FREE ENERGY PREDICTED BY IDOCK:   10.67 KCAL/MOL
REMARK 922        TOTAL FREE ENERGY PREDICTED BY IDOCK:   17.30 KCAL/MOL
REMARK 923 INTER-LIGAND FREE ENERGY PREDICTED BY IDOCK:    7.87 KCAL/MOL
REMARK 924 INTRA-LIGAND FREE ENERGY PREDICTED BY IDOCK:    9.43 KCAL/MOL
REMARK 927      BINDING AFFINITY PREDICTED BY RF-SCORE:    0.00 PKD
ROOT
HETATM    1  C   UNL     1      -7.785   8.968  71.695  1.00  0.00     0.076 C  
HETATM    2  C   UNL     1      -6.539   9.860  71.066  1.00  0.00     0.051 C  
HETATM    3  C   UNL     1      -6.383  11.426  71.230  1.00  0.00     1.456 C  
HETATM    4  C   UNL     1      -5.522   9.262  70.054  1.00  0.00    -0.028 C  
HETATM    5  C   UNL     1      -6.329  12.453  70.065  1.00  0.00    -0.005 C  
HETATM    6  O   UNL     1      -6.162  11.875  72.366  1.00  0.00     1.963 OA 
HETATM    7  C   UNL     1      -7.365  13.689  70.380  1.00  0.00     1.540 C  
HETATM    8  C   UNL     1      -6.266  11.778  68.704  1.00  0.00    -0.054 C  
HETATM    9  C   UNL     1      -7.788  14.644  69.124  1.00  0.00    -0.107 C  
HETATM   10  C   UNL     1      -9.065  13.819  68.529  1.00  0.00    -0.133 C  
HETATM   11  O   UNL     1      -6.433  14.767  68.577  1.00  0.00    -0.084 OA 
HETATM   12  C   UNL     1      -8.258  16.085  68.821  1.00  0.00    -0.211 C  
HETATM   13  C   UNL     1      -5.585  15.649  69.398  1.00  0.00    -0.111 C  
HETATM   14  C   UNL     1     -10.327   9.106  70.402  1.00  0.00    -0.223 C  
HETATM   15  C   UNL     1     -10.616  14.153  68.392  1.00  0.00    -0.263 C  
HETATM   16  C   UNL     1     -11.127  14.857  67.138  1.00  0.00    -0.332 C  
HETATM   17  O   UNL     1      -8.343   6.223  73.551  1.00  0.00    -0.120 OA 
HETATM   18  C   UNL     1     -11.402  12.814  68.552  1.00  0.00    -0.291 C  
HETATM   19  O   UNL     1     -11.934  12.268  67.578  1.00  0.00    -0.513 OA 
HETATM   20  N   UNL     1      -7.338   7.562  71.914  1.00  0.00    -0.070 N  
HETATM   21  C   UNL     1     -11.402  12.144  69.923  1.00  0.00    -0.109 C  
HETATM   22  C   UNL     1     -12.071  10.802  69.995  1.00  0.00    -0.345 C  
HETATM   23  C   UNL     1     -11.979  13.028  71.024  1.00  0.00     0.129 C  
HETATM   24  C   UNL     1      -8.393   6.981  72.603  1.00  0.00    -0.108 C  
HETATM   25  O   UNL     1      -9.520   7.319  71.929  1.00  0.00    -0.149 OA 
HETATM   26  C   UNL     1     -10.198   9.150  72.980  1.00  0.00     1.985 C  
HETATM   27  O   UNL     1     -13.201  10.523  69.592  1.00  0.00     0.063 OA 
HETATM   28  O   UNL     1     -11.386  10.019  70.876  1.00  0.00    -0.322 OA 
HETATM   29  C   UNL     1      -9.428   8.762  71.659  1.00  0.00    -0.288 C  
ENDROOT
BRANCH  10  30
HETATM   30  O   UNL     1      -8.701  12.617  67.943  1.00  0.00    -0.163 OA 
BRANCH  30  31
HETATM   31  C   UNL     1      -8.360  12.541  66.574  1.00  0.00     0.152 C  
HETATM   32  C   UNL     1      -7.298  11.437  66.202  1.00  0.00     0.136 C  
HETATM   33  C   UNL     1      -7.533  10.889  64.764  1.00  0.00     0.409 C  
HETATM   34  O   UNL     1      -9.675  12.397  66.098  1.00  0.00    -0.242 OA 
HETATM   35  C   UNL     1      -9.953  11.767  64.886  1.00  0.00    -0.247 C  
HETATM   36  H   UNL     1      -5.336  11.344  66.106  1.00  0.00     0.000 HD 
HETATM   37  C   UNL     1      -9.027  10.617  64.541  1.00  0.00    -0.214 C  
HETATM   38  O   UNL     1      -5.976  12.009  66.330  1.00  0.00    -0.037 OA 
HETATM   39  C   UNL     1     -11.380  11.240  65.079  1.00  0.00    -0.003 C  
BRANCH  33  40
HETATM   40  N   UNL     1      -6.741   9.745  64.228  1.00  0.00    -0.114 NA 
HETATM   41  C   UNL     1      -5.512   9.319  64.893  1.00  0.00    -0.050 C  
HETATM   42  C   UNL     1      -6.579   9.654  62.784  1.00  0.00    -0.103 C  
ENDBRANCH  33  40
ENDBRANCH  30  31
ENDBRANCH  10  30
BRANCH  14  43
HETATM   43  C   UNL     1     -11.169   7.957  69.782  1.00  0.00     0.003 C  
HETATM   44  C   UNL     1     -12.600   8.257  69.400  1.00  0.00     3.187 C  
ENDBRANCH  14  43
BRANCH  20  45
HETATM   45  C   UNL     1      -7.081   6.719  70.739  1.00  0.00    -0.068 C  
BRANCH  45  46
HETATM   46  C   UNL     1      -7.088   5.221  71.052  1.00  0.00    -0.064 C  
BRANCH  46  47
HETATM   47  C   UNL     1      -5.694   4.597  70.989  1.00  0.00    -0.016 C  
BRANCH  47  48
HETATM   48  C   UNL     1      -5.265   4.328  69.552  1.00  0.00    -0.007 C  
BRANCH  48  49
HETATM   49  N   UNL     1      -6.293   4.706  68.610  1.00  0.00    -0.035 NA 
HETATM   50  C   UNL     1      -6.727   3.980  67.540  1.00  0.00    -0.047 A  
HETATM   51  N   UNL     1      -7.619   4.649  66.843  1.00  0.00    -0.086 NA 
HETATM   52  C   UNL     1      -7.754   5.860  67.484  1.00  0.00    -0.097 A  
HETATM   53  C   UNL     1      -6.961   5.893  68.607  1.00  0.00    -0.072 A  
BRANCH  52  54
HETATM   54  C   UNL     1      -8.610   6.921  66.998  1.00  0.00    -0.121 A  
HETATM   55  C   UNL     1      -8.543   8.200  67.555  1.00  0.00    -0.129 A  
HETATM   56  C   UNL     1      -9.425   9.185  67.117  1.00  0.00    -0.197 A  
HETATM   57  C   UNL     1     -10.358   8.860  66.143  1.00  0.00     0.143 A  
HETATM   58  N   UNL     1     -10.426   7.654  65.545  1.00  0.00     2.426 NA 
HETATM   59  C   UNL     1      -9.552   6.717  65.993  1.00  0.00     0.130 A  
ENDBRANCH  52  54
ENDBRANCH  48  49
ENDBRANCH  47  48
ENDBRANCH  46  47
ENDBRANCH  45  46
ENDBRANCH  20  45
TORSDOF 10
ENDMDL
MODEL       29
REMARK 921   NORMALIZED FREE ENERGY PREDICTED BY IDOCK:   10.94 KCAL/MOL
REMARK 922        TOTAL FREE ENERGY PREDICTED BY IDOCK:   17.74 KCAL/MOL
REMARK 923 INTER-LIGAND FREE ENERGY PREDICTED BY IDOCK:   10.04 KCAL/MOL
REMARK 924 INTRA-LIGAND FREE ENERGY PREDICTED BY IDOCK:    7.70 KCAL/MOL
REMARK 927      BINDING AFFINITY PREDICTED BY RF-SCORE:    0.00 PKD
ROOT
HETATM    1  C   UNL     1      -9.669  10.385  70.358  1.00  0.00     0.593 C  
HETATM    2  C   UNL     1      -8.502  10.752  69.243  1.00  0.00    -0.058 C  
HETATM    3  C   UNL     1      -7.567  12.027  69.306  1.00  0.00     0.256 C  
HETATM    4  C   UNL     1      -8.374   9.986  67.895  1.00  0.00    -0.117 C  
HETATM    5  C   UNL     1      -7.483  13.138  68.223  1.00  0.00    -0.129 C  
HETATM    6  O   UNL     1      -6.741  12.099  70.230  1.00  0.00     0.089 OA 
HETATM    7  C   UNL     1      -7.589  14.611  68.944  1.00  0.00    -0.139 C  
HETATM    8  C   UNL     1      -8.279  12.789  66.977  1.00  0.00    -0.099 C  
HETATM    9  C   UNL     1      -7.951  15.884  67.986  1.00  0.00    -0.136 C  
HETATM   10  C   UNL     1      -9.583  15.832  68.012  1.00  0.00    -0.210 C  
HETATM   11  O   UNL     1      -7.033  15.513  66.905  1.00  0.00    -0.223 OA 
HETATM   12  C   UNL     1      -7.750  17.414  67.902  1.00  0.00    -0.201 C  
HETATM   13  C   UNL     1      -5.625  15.755  67.268  1.00  0.00     0.114 C  
HETATM   14  C   UNL     1     -12.109  11.867  70.294  1.00  0.00    -0.325 C  
HETATM   15  C   UNL     1     -10.700  16.827  68.558  1.00  0.00    -0.358 C  
HETATM   16  C   UNL     1     -11.250  17.917  67.643  1.00  0.00     0.277 C  
HETATM   17  O   UNL     1     -10.706   7.845  72.299  1.00  0.00    -0.241 OA 
HETATM   18  C   UNL     1     -11.899  15.960  69.056  1.00  0.00    -0.318 C  
HETATM   19  O   UNL     1     -12.955  15.906  68.415  1.00  0.00     1.474 OA 
HETATM   20  N   UNL     1      -9.903   8.912  70.375  1.00  0.00    -0.179 N  
HETATM   21  C   UNL     1     -11.691  15.098  70.299  1.00  0.00    -0.338 C  
HETATM   22  C   UNL     1     -12.832  14.195  70.666  1.00  0.00    -0.290 C  
HETATM   23  C   UNL     1     -11.300  15.906  71.531  1.00  0.00    -0.384 C  
HETATM   24  C   UNL     1     -10.749   8.722  71.460  1.00  0.00    -0.301 C  
HETATM   25  O   UNL     1     -11.736   9.643  71.338  1.00  0.00    -0.352 OA 
HETATM   26  C   UNL     1     -10.993  11.336  72.561  1.00  0.00     9.112 C  
HETATM   27  O   UNL     1     -14.013  14.522  70.796  1.00  0.00    -0.062 OA 
HETATM   28  O   UNL     1     -12.326  13.035  71.171  1.00  0.00    -0.322 OA 
HETATM   29  C   UNL     1     -11.078  10.924  71.040  1.00  0.00     0.945 C  
ENDROOT
BRANCH  10  30
HETATM   30  O   UNL     1     -10.094  14.735  67.338  1.00  0.00    -0.231 OA 
BRANCH  30  31
HETATM   31  C   UNL     1      -9.871  14.553  65.954  1.00  0.00    -0.321 C  
HETATM   32  C   UNL     1     -10.163  13.104  65.408  1.00  0.00    -0.290 C  
HETATM   33  C   UNL     1     -10.647  13.146  63.929  1.00  0.00    -0.166 C  
HETATM   34  O   UNL     1     -10.693  15.612  65.527  1.00  0.00    -0.350 OA 
HETATM   35  C   UNL     1     -11.283  15.620  64.265  1.00  0.00    -0.104 C  
HETATM   36  H   UNL     1      -9.137  11.439  65.209  1.00  0.00     0.000 HD 
HETATM   37  C   UNL     1     -11.692  14.255  63.746  1.00  0.00     0.110 C  
HETATM   38  O   UNL     1      -8.961  12.312  65.539  1.00  0.00     0.160 OA 
HETATM   39  C   UNL     1     -12.530  16.491  64.464  1.00  0.00     2.148 C  
BRANCH  33  40
HETATM   40  N   UNL     1     -11.111  11.914  63.228  1.00  0.00    -0.349 NA 
HETATM   41  C   UNL     1     -12.517  11.755  62.863  1.00  0.00     0.330 C  
HETATM   42  C   UNL     1     -10.568  10.639  63.672  1.00  0.00     0.188 C  
ENDBRANCH  33  40
ENDBRANCH  30  31
ENDBRANCH  10  30
BRANCH  14  43
HETATM   43  C   UNL     1     -13.561  11.347  70.112  1.00  0.00     1.906 C  
HETATM   44  C   UNL     1     -13.897   9.982  70.664  1.00  0.00     0.483 C  
ENDBRANCH  14  43
BRANCH  20  45
HETATM   45  C   UNL     1     -10.556   8.293  69.214  1.00  0.00    -0.181 C  
BRANCH  45  46
HETATM   46  C   UNL     1      -9.699   7.225  68.531  1.00  0.00    -0.149 C  
BRANCH  46  47
HETATM   47  C   UNL     1      -8.201   7.501  68.655  1.00  0.00    -0.129 C  
BRANCH  47  48
HETATM   48  C   UNL     1      -7.677   7.138  70.038  1.00  0.00    -0.103 C  
BRANCH  48  49
HETATM   49  N   UNL     1      -8.061   5.797  70.418  1.00  0.00    -0.104 NA 
HETATM   50  C   UNL     1      -8.139   4.708  69.601  1.00  0.00    -0.064 A  
HETATM   51  N   UNL     1      -8.596   3.660  70.251  1.00  0.00    -0.059 NA 
HETATM   52  C   UNL     1      -8.835   4.098  71.534  1.00  0.00    -0.112 A  
HETATM   53  C   UNL     1      -8.470   5.418  71.660  1.00  0.00    -0.127 A  
BRANCH  52  54
HETATM   54  C   UNL     1      -9.403   3.256  72.565  1.00  0.00    -0.155 A  
HETATM   55  C   UNL     1      -8.611   2.779  73.611  1.00  0.00    -0.072 A  
HETATM   56  C   UNL     1      -9.165   1.914  74.552  1.00  0.00    -0.086 A  
HETATM   57  C   UNL     1     -10.493   1.540  74.412  1.00  0.00    -0.116 A  
HETATM   58  N   UNL     1     -11.307   2.012  73.447  1.00  0.00    -0.199 NA 
HETATM   59  C   UNL     1     -10.737   2.854  72.547  1.00  0.00     0.101 A  
ENDBRANCH  52  54
ENDBRANCH  48  49
ENDBRANCH  47  48
ENDBRANCH  46  47
ENDBRANCH  45  46
ENDBRANCH  20  45
TORSDOF 10
ENDMDL
MODEL       30
REMARK 921   NORMALIZED FREE ENERGY PREDICTED BY IDOCK:   11.45 KCAL/MOL
REMARK 922        TOTAL FREE ENERGY PREDICTED BY IDOCK:   18.54 KCAL/MOL
REMARK 923 INTER-LIGAND FREE ENERGY PREDICTED BY IDOCK:   12.49 KCAL/MOL
REMARK 924 INTRA-LIGAND FREE ENERGY PREDICTED BY IDOCK:    6.05 KCAL/MOL
REMARK 927      BINDING AFFINITY PREDICTED BY RF-SCORE:    0.00 PKD
ROOT
HETATM    1  C   UNL     1      -9.669   9.957  67.698  1.00  0.00    -0.155 C  
HETATM    2  C   UNL     1      -8.220  10.457  68.324  1.00  0.00    -0.114 C  
HETATM    3  C   UNL     1      -8.062  11.413  69.575  1.00  0.00     0.503 C  
HETATM    4  C   UNL     1      -6.872  10.210  67.589  1.00  0.00    -0.076 C  
HETATM    5  C   UNL     1      -7.353  12.796  69.569  1.00  0.00     0.485 C  
HETATM    6  O   UNL     1      -8.422  10.987  70.684  1.00  0.00     1.894 OA 
HETATM    7  C   UNL     1      -8.318  13.906  70.300  1.00  0.00     2.515 C  
HETATM    8  C   UNL     1      -6.651  13.077  68.250  1.00  0.00    -0.094 C  
HETATM    9  C   UNL     1      -7.977  15.481  70.031  1.00  0.00     0.338 C  
HETATM   10  C   UNL     1      -8.825  15.749  68.662  1.00  0.00    -0.199 C  
HETATM   11  O   UNL     1      -6.527  15.344  70.207  1.00  0.00    -0.106 OA 
HETATM   12  C   UNL     1      -8.127  16.869  70.695  1.00  0.00     4.173 C  
HETATM   13  C   UNL     1      -6.158  15.156  71.621  1.00  0.00     0.696 C  
HETATM   14  C   UNL     1     -11.181  11.819  66.149  1.00  0.00    -0.306 C  
HETATM   15  C   UNL     1     -10.063  16.686  68.308  1.00  0.00    -0.268 C  
HETATM   16  C   UNL     1      -9.814  18.116  67.837  1.00  0.00    -0.317 C  
HETATM   17  O   UNL     1     -11.280   7.155  66.779  1.00  0.00    -0.158 OA 
HETATM   18  C   UNL     1     -10.909  15.956  67.219  1.00  0.00    -0.279 C  
HETATM   19  O   UNL     1     -10.907  16.344  66.044  1.00  0.00    -0.225 OA 
HETATM   20  N   UNL     1      -9.493   8.652  66.998  1.00  0.00    -0.160 N  
HETATM   21  C   UNL     1     -11.654  14.686  67.623  1.00  0.00    -0.383 C  
HETATM   22  C   UNL     1     -12.355  13.958  66.514  1.00  0.00    -0.404 C  
HETATM   23  C   UNL     1     -12.649  14.909  68.757  1.00  0.00     0.318 C  
HETATM   24  C   UNL     1     -10.789   8.262  66.690  1.00  0.00     0.414 C  
HETATM   25  O   UNL     1     -11.388   9.343  66.133  1.00  0.00     1.300 OA 
HETATM   26  C   UNL     1     -12.382  10.308  67.864  1.00  0.00     2.922 C  
HETATM   27  O   UNL     1     -13.138  14.445  65.697  1.00  0.00    -0.475 OA 
HETATM   28  O   UNL     1     -12.269  12.618  66.749  1.00  0.00    -0.506 OA 
HETATM   29  C   UNL     1     -11.074  10.488  67.000  1.00  0.00    -0.110 C  
ENDROOT
BRANCH  10  30
HETATM   30  O   UNL     1      -8.295  15.088  67.566  1.00  0.00    -0.153 OA 
BRANCH  30  31
HETATM   31  C   UNL     1      -7.338  15.704  66.728  1.00  0.00     0.045 C  
HETATM   32  C   UNL     1      -7.871  16.908  65.863  1.00  0.00     0.136 C  
HETATM   33  C   UNL     1      -6.753  17.961  65.610  1.00  0.00    -0.146 C  
HETATM   34  O   UNL     1      -6.397  15.967  67.740  1.00  0.00    -0.125 OA 
HETATM   35  C   UNL     1      -5.474  17.005  67.633  1.00  0.00    -0.124 C  
HETATM   36  H   UNL     1      -8.707  17.113  64.095  1.00  0.00     0.000 HD 
HETATM   37  C   UNL     1      -5.984  18.237  66.909  1.00  0.00    -0.172 C  
HETATM   38  O   UNL     1      -8.385  16.386  64.616  1.00  0.00     3.981 OA 
HETATM   39  C   UNL     1      -5.165  17.356  69.093  1.00  0.00    -0.158 C  
BRANCH  33  40
HETATM   40  N   UNL     1      -7.043  19.255  64.928  1.00  0.00    -0.223 NA 
HETATM   41  C   UNL     1      -5.968  20.017  64.298  1.00  0.00    -0.268 C  
HETATM   42  C   UNL     1      -7.981  20.162  65.573  1.00  0.00     0.139 C  
ENDBRANCH  33  40
ENDBRANCH  30  31
ENDBRANCH  10  30
BRANCH  14  43
HETATM   43  C   UNL     1     -11.666  11.698  64.678  1.00  0.00    -0.157 C  
HETATM   44  C   UNL     1     -10.658  11.947  63.580  1.00  0.00    -0.500 C  
ENDBRANCH  14  43
BRANCH  20  45
HETATM   45  C   UNL     1      -8.731   8.629  65.742  1.00  0.00    -0.181 C  
BRANCH  45  46
HETATM   46  C   UNL     1      -7.477   9.505  65.775  1.00  0.00    -0.100 C  
BRANCH  46  47
HETATM   47  C   UNL     1      -6.723   9.509  64.446  1.00  0.00    -0.100 C  
BRANCH  47  48
HETATM   48  C   UNL     1      -7.459   8.705  63.382  1.00  0.00    -0.110 C  
BRANCH  48  49
HETATM   49  N   UNL     1      -7.353   7.284  63.621  1.00  0.00    -0.079 NA 
HETATM   50  C   UNL     1      -7.908   6.287  62.873  1.00  0.00    -0.100 A  
HETATM   51  N   UNL     1      -7.682   5.109  63.413  1.00  0.00    -0.071 NA 
HETATM   52  C   UNL     1      -6.965   5.360  64.560  1.00  0.00    -0.049 A  
HETATM   53  C   UNL     1      -6.722   6.709  64.681  1.00  0.00    -0.042 A  
BRANCH  52  54
HETATM   54  C   UNL     1      -6.560   4.322  65.484  1.00  0.00    -0.044 A  
HETATM   55  C   UNL     1      -6.547   4.560  66.860  1.00  0.00    -0.050 A  
HETATM   56  C   UNL     1      -6.088   3.568  67.722  1.00  0.00    -0.028 A  
HETATM   57  C   UNL     1      -5.643   2.369  67.183  1.00  0.00    -0.018 A  
HETATM   58  N   UNL     1      -5.683   2.079  65.868  1.00  0.00    -0.016 NA 
HETATM   59  C   UNL     1      -6.137   3.067  65.054  1.00  0.00    -0.019 A  
ENDBRANCH  52  54
ENDBRANCH  48  49
ENDBRANCH  47  48
ENDBRANCH  46  47
ENDBRANCH  45  46
ENDBRANCH  20  45
TORSDOF 10
ENDMDL
MODEL       31
REMARK 921   NORMALIZED FREE ENERGY PREDICTED BY IDOCK:   12.00 KCAL/MOL
REMARK 922        TOTAL FREE ENERGY PREDICTED BY IDOCK:   19.41 KCAL/MOL
REMARK 923 INTER-LIGAND FREE ENERGY PREDICTED BY IDOCK:   12.59 KCAL/MOL
REMARK 924 INTRA-LIGAND FREE ENERGY PREDICTED BY IDOCK:    6.82 KCAL/MOL
REMARK 927      BINDING AFFINITY PREDICTED BY RF-SCORE:    0.00 PKD
ROOT
HETATM    1  C   UNL     1     -10.444   8.324  69.392  1.00  0.00    -0.220 C  
HETATM    2  C   UNL     1     -10.441   9.621  70.422  1.00  0.00    -0.352 C  
HETATM    3  C   UNL     1     -11.477  10.815  70.368  1.00  0.00    -0.307 C  
HETATM    4  C   UNL     1      -9.265   9.896  71.402  1.00  0.00     1.542 C  
HETATM    5  C   UNL     1     -11.118  12.311  70.148  1.00  0.00     0.546 C  
HETATM    6  O   UNL     1     -12.663  10.571  70.641  1.00  0.00    -0.345 OA 
HETATM    7  C   UNL     1     -12.093  12.940  68.984  1.00  0.00    -0.198 C  
HETATM    8  C   UNL     1      -9.617  12.551  70.163  1.00  0.00     3.719 C  
HETATM    9  C   UNL     1     -11.619  14.344  68.295  1.00  0.00    -0.328 C  
HETATM   10  C   UNL     1     -10.662  13.789  67.095  1.00  0.00    -0.281 C  
HETATM   11  O   UNL     1     -11.239  14.997  69.553  1.00  0.00    -0.248 OA 
HETATM   12  C   UNL     1     -12.205  15.590  67.593  1.00  0.00     0.662 C  
HETATM   13  C   UNL     1     -12.415  15.392  70.347  1.00  0.00    -0.404 C  
HETATM   14  C   UNL     1      -9.477   8.712  66.734  1.00  0.00    -0.191 C  
HETATM   15  C   UNL     1     -10.749  13.857  65.507  1.00  0.00    -0.306 C  
HETATM   16  C   UNL     1     -10.133  15.042  64.769  1.00  0.00    -0.009 C  
HETATM   17  O   UNL     1     -10.378   4.965  69.438  1.00  0.00    -0.207 OA 
HETATM   18  C   UNL     1     -10.110  12.549  64.944  1.00  0.00    -0.226 C  
HETATM   19  O   UNL     1      -9.002  12.567  64.395  1.00  0.00     0.897 OA 
HETATM   20  N   UNL     1      -9.810   7.150  70.059  1.00  0.00    -0.178 N  
HETATM   21  C   UNL     1     -10.843  11.232  65.186  1.00  0.00    -0.268 C  
HETATM   22  C   UNL     1     -10.130   9.993  64.730  1.00  0.00    -0.059 C  
HETATM   23  C   UNL     1     -12.255  11.216  64.609  1.00  0.00     1.319 C  
HETATM   24  C   UNL     1     -10.042   6.102  69.178  1.00  0.00    -0.170 C  
HETATM   25  O   UNL     1      -9.691   6.555  67.949  1.00  0.00    -0.122 OA 
HETATM   26  C   UNL     1     -11.608   7.308  67.129  1.00  0.00     1.147 C  
HETATM   27  O   UNL     1      -9.645   9.795  63.615  1.00  0.00    -0.142 OA 
HETATM   28  O   UNL     1     -10.395   8.987  65.611  1.00  0.00     0.224 OA 
HETATM   29  C   UNL     1     -10.302   7.884  67.803  1.00  0.00    -0.226 C  
ENDROOT
BRANCH  10  30
HETATM   30  O   UNL     1      -9.489  13.221  67.565  1.00  0.00    -0.206 OA 
BRANCH  30  31
HETATM   31  C   UNL     1      -8.473  14.010  68.150  1.00  0.00    -0.172 C  
HETATM   32  C   UNL     1      -8.400  13.959  69.724  1.00  0.00     1.256 C  
HETATM   33  C   UNL     1      -6.940  14.152  70.228  1.00  0.00     0.292 C  
HETATM   34  O   UNL     1      -7.410  13.464  67.409  1.00  0.00    -0.163 OA 
HETATM   35  C   UNL     1      -6.102  13.468  67.889  1.00  0.00    -0.151 C  
HETATM   36  H   UNL     1      -9.229  14.948  71.207  1.00  0.00     0.000 HD 
HETATM   37  C   UNL     1      -5.975  13.301  69.391  1.00  0.00    -0.100 C  
HETATM   38  O   UNL     1      -9.274  14.979  70.259  1.00  0.00     0.299 OA 
HETATM   39  C   UNL     1      -5.461  12.269  67.180  1.00  0.00    -0.074 C  
BRANCH  33  40
HETATM   40  N   UNL     1      -6.590  14.014  71.671  1.00  0.00     0.605 NA 
HETATM   41  C   UNL     1      -7.634  14.043  72.692  1.00  0.00     6.717 C  
HETATM   42  C   UNL     1      -5.409  14.718  72.149  1.00  0.00    -0.022 C  
ENDBRANCH  33  40
ENDBRANCH  30  31
ENDBRANCH  10  30
BRANCH  14  43
HETATM   43  C   UNL     1      -8.311   7.989  66.005  1.00  0.00    -0.126 C  
HETATM   44  C   UNL     1      -6.954   8.653  66.013  1.00  0.00    -0.079 C  
ENDBRANCH  14  43
BRANCH  20  45
HETATM   45  C   UNL     1      -8.363   7.184  70.308  1.00  0.00    -0.136 C  
BRANCH  45  46
HETATM   46  C   UNL     1      -7.524   7.161  69.029  1.00  0.00    -0.094 C  
BRANCH  46  47
HETATM   47  C   UNL     1      -6.114   6.616  69.255  1.00  0.00    -0.026 C  
BRANCH  47  48
HETATM   48  C   UNL     1      -6.141   5.280  69.987  1.00  0.00    -0.018 C  
BRANCH  48  49
HETATM   49  N   UNL     1      -6.380   4.181  69.080  1.00  0.00    -0.031 NA 
HETATM   50  C   UNL     1      -6.263   2.851  69.361  1.00  0.00    -0.028 A  
HETATM   51  N   UNL     1      -6.477   2.120  68.288  1.00  0.00    -0.029 NA 
HETATM   52  C   UNL     1      -6.728   3.017  67.275  1.00  0.00    -0.045 A  
HETATM   53  C   UNL     1      -6.708   4.303  67.764  1.00  0.00    -0.051 A  
BRANCH  52  54
HETATM   54  C   UNL     1      -6.961   2.617  65.904  1.00  0.00    -0.052 A  
HETATM   55  C   UNL     1      -8.250   2.630  65.368  1.00  0.00    -0.089 A  
HETATM   56  C   UNL     1      -8.457   2.175  64.068  1.00  0.00    -0.082 A  
HETATM   57  C   UNL     1      -7.370   1.707  63.344  1.00  0.00    -0.048 A  
HETATM   58  N   UNL     1      -6.103   1.721  63.804  1.00  0.00    -0.013 NA 
HETATM   59  C   UNL     1      -5.935   2.172  65.074  1.00  0.00    -0.018 A  
ENDBRANCH  52  54
ENDBRANCH  48  49
ENDBRANCH  47  48
ENDBRANCH  46  47
ENDBRANCH  45  46
ENDBRANCH  20  45
TORSDOF 10
ENDMDL
MODEL       32
REMARK 921   NORMALIZED FREE ENERGY PREDICTED BY IDOCK:   12.54 KCAL/MOL
REMARK 922        TOTAL FREE ENERGY PREDICTED BY IDOCK:   20.26 KCAL/MOL
REMARK 923 INTER-LIGAND FREE ENERGY PREDICTED BY IDOCK:    5.41 KCAL/MOL
REMARK 924 INTRA-LIGAND FREE ENERGY PREDICTED BY IDOCK:   14.86 KCAL/MOL
REMARK 927      BINDING AFFINITY PREDICTED BY RF-SCORE:    0.00 PKD
ROOT
HETATM    1  C   UNL     1      -8.079   5.570  66.821  1.00  0.00    -0.105 C  
HETATM    2  C   UNL     1      -6.720   5.788  67.742  1.00  0.00    -0.058 C  
HETATM    3  C   UNL     1      -6.427   5.039  69.104  1.00  0.00    -0.035 C  
HETATM    4  C   UNL     1      -5.705   6.932  67.460  1.00  0.00    -0.020 C  
HETATM    5  C   UNL     1      -6.209   5.725  70.481  1.00  0.00    -0.031 C  
HETATM    6  O   UNL     1      -6.233   3.813  69.066  1.00  0.00    -0.027 OA 
HETATM    7  C   UNL     1      -7.141   4.983  71.613  1.00  0.00    -0.058 C  
HETATM    8  C   UNL     1      -6.128   7.238  70.365  1.00  0.00    -0.027 C  
HETATM    9  C   UNL     1      -7.398   5.791  73.010  1.00  0.00    -0.095 C  
HETATM   10  C   UNL     1      -8.709   6.679  72.614  1.00  0.00    -0.123 C  
HETATM   11  O   UNL     1      -6.007   6.223  73.182  1.00  0.00    -0.051 OA 
HETATM   12  C   UNL     1      -7.711   5.533  74.501  1.00  0.00    -0.098 C  
HETATM   13  C   UNL     1      -5.130   5.113  73.591  1.00  0.00    -0.013 C  
HETATM   14  C   UNL     1     -10.516   6.763  67.711  1.00  0.00    -0.222 C  
HETATM   15  C   UNL     1     -10.211   6.709  73.142  1.00  0.00    -0.238 C  
HETATM   16  C   UNL     1     -10.578   7.610  74.317  1.00  0.00     1.651 C  
HETATM   17  O   UNL     1      -9.001   4.907  63.658  1.00  0.00    -0.121 OA 
HETATM   18  C   UNL     1     -11.127   7.085  71.937  1.00  0.00    -0.242 C  
HETATM   19  O   UNL     1     -11.650   8.203  71.858  1.00  0.00    -0.272 OA 
HETATM   20  N   UNL     1      -7.779   5.893  65.396  1.00  0.00    -0.088 N  
HETATM   21  C   UNL     1     -11.271   6.071  70.804  1.00  0.00    -0.340 C  
HETATM   22  C   UNL     1     -12.066   6.528  69.615  1.00  0.00     0.500 C  
HETATM   23  C   UNL     1     -11.827   4.729  71.267  1.00  0.00     2.751 C  
HETATM   24  C   UNL     1      -8.924   5.496  64.717  1.00  0.00     0.098 C  
HETATM   25  O   UNL     1      -9.971   6.013  65.405  1.00  0.00     0.516 OA 
HETATM   26  C   UNL     1     -10.537   4.359  66.768  1.00  0.00     0.404 C  
HETATM   27  O   UNL     1     -13.192   7.028  69.634  1.00  0.00     2.347 OA 
HETATM   28  O   UNL     1     -11.511   5.997  68.489  1.00  0.00    -0.091 OA 
HETATM   29  C   UNL     1      -9.729   5.713  66.824  1.00  0.00    -0.154 C  
ENDROOT
BRANCH  10  30
HETATM   30  O   UNL     1      -8.425   7.670  71.689  1.00  0.00    -0.105 OA 
BRANCH  30  31
HETATM   31  C   UNL     1      -9.419   8.167  70.815  1.00  0.00    -0.162 C  
HETATM   32  C   UNL     1     -10.104   9.512  71.267  1.00  0.00    -0.126 C  
HETATM   33  C   UNL     1     -10.543  10.362  70.039  1.00  0.00    -0.229 C  
HETATM   34  O   UNL     1      -8.616   8.175  69.661  1.00  0.00    -0.128 OA 
HETATM   35  C   UNL     1      -8.872   9.035  68.595  1.00  0.00    -0.137 C  
HETATM   36  H   UNL     1     -11.649  10.003  72.380  1.00  0.00     0.000 HD 
HETATM   37  C   UNL     1      -9.423  10.392  68.990  1.00  0.00    -0.205 C  
HETATM   38  O   UNL     1     -11.236   9.192  72.108  1.00  0.00    -0.326 OA 
HETATM   39  C   UNL     1      -7.496   9.208  67.941  1.00  0.00    -0.084 C  
BRANCH  33  40
HETATM   40  N   UNL     1     -11.098  11.737  70.203  1.00  0.00     0.201 NA 
HETATM   41  C   UNL     1     -12.536  11.943  70.348  1.00  0.00    -0.073 C  
HETATM   42  C   UNL     1     -10.526  12.796  69.384  1.00  0.00     0.387 C  
ENDBRANCH  33  40
ENDBRANCH  30  31
ENDBRANCH  10  30
BRANCH  14  43
HETATM   43  C   UNL     1     -11.424   7.789  66.979  1.00  0.00     1.490 C  
HETATM   44  C   UNL     1     -10.780   9.047  66.446  1.00  0.00     0.243 C  
ENDBRANCH  14  43
BRANCH  20  45
HETATM   45  C   UNL     1      -7.533   7.295  65.033  1.00  0.00    -0.089 C  
BRANCH  45  46
HETATM   46  C   UNL     1      -7.370   7.515  63.528  1.00  0.00    -0.090 C  
BRANCH  46  47
HETATM   47  C   UNL     1      -7.880   8.881  63.070  1.00  0.00    -0.133 C  
BRANCH  47  48
HETATM   48  C   UNL     1      -9.376   9.032  63.318  1.00  0.00     0.876 C  
BRANCH  48  49
HETATM   49  N   UNL     1      -9.767  10.421  63.387  1.00  0.00    -0.305 NA 
HETATM   50  C   UNL     1      -9.588  11.368  62.421  1.00  0.00     0.210 A  
HETATM   51  N   UNL     1      -9.988  12.550  62.836  1.00  0.00     0.410 NA 
HETATM   52  C   UNL     1     -10.429  12.357  64.126  1.00  0.00    -0.389 A  
HETATM   53  C   UNL     1     -10.330  11.028  64.467  1.00  0.00    -0.354 A  
BRANCH  52  54
HETATM   54  C   UNL     1     -10.905  13.433  64.968  1.00  0.00    -0.337 A  
HETATM   55  C   UNL     1     -10.006  14.317  65.569  1.00  0.00    -0.341 A  
HETATM   56  C   UNL     1     -10.485  15.302  66.430  1.00  0.00    -0.307 A  
HETATM   57  C   UNL     1     -11.848  15.367  66.676  1.00  0.00     0.279 A  
HETATM   58  N   UNL     1     -12.755  14.566  66.083  1.00  0.00    -0.089 NA 
HETATM   59  C   UNL     1     -12.257  13.618  65.248  1.00  0.00    -0.439 A  
ENDBRANCH  52  54
ENDBRANCH  48  49
ENDBRANCH  47  48
ENDBRANCH  46  47
ENDBRANCH  45  46
ENDBRANCH  20  45
TORSDOF 10
ENDMDL
MODEL       33
REMARK 921   NORMALIZED FREE ENERGY PREDICTED BY IDOCK:   12.63 KCAL/MOL
REMARK 922        TOTAL FREE ENERGY PREDICTED BY IDOCK:   20.41 KCAL/MOL
REMARK 923 INTER-LIGAND FREE ENERGY PREDICTED BY IDOCK:   -4.74 KCAL/MOL
REMARK 924 INTRA-LIGAND FREE ENERGY PREDICTED BY IDOCK:   25.15 KCAL/MOL
REMARK 927      BINDING AFFINITY PREDICTED BY RF-SCORE:    0.00 PKD
ROOT
HETATM    1  C   UNL     1      -6.484   9.303  68.715  1.00  0.00    -0.048 C  
HETATM    2  C   UNL     1      -6.893   8.400  70.041  1.00  0.00    -0.042 C  
HETATM    3  C   UNL     1      -6.336   6.952  70.350  1.00  0.00    -0.039 C  
HETATM    4  C   UNL     1      -8.052   8.808  70.995  1.00  0.00    -0.186 C  
HETATM    5  C   UNL     1      -7.198   5.667  70.502  1.00  0.00    -0.074 C  
HETATM    6  O   UNL     1      -5.129   6.835  70.615  1.00  0.00    -0.018 OA 
HETATM    7  C   UNL     1      -6.547   4.463  69.593  1.00  0.00    -0.033 C  
HETATM    8  C   UNL     1      -8.687   5.969  70.498  1.00  0.00    -0.138 C  
HETATM    9  C   UNL     1      -7.504   3.180  69.263  1.00  0.00    -0.048 C  
HETATM   10  C   UNL     1      -8.258   3.699  67.911  1.00  0.00    -0.084 C  
HETATM   11  O   UNL     1      -8.035   3.047  70.623  1.00  0.00    -0.046 OA 
HETATM   12  C   UNL     1      -7.413   1.673  68.936  1.00  0.00    -0.043 C  
HETATM   13  C   UNL     1      -7.037   2.492  71.554  1.00  0.00    -0.032 C  
HETATM   14  C   UNL     1      -7.631   8.597  66.197  1.00  0.00    -0.093 C  
HETATM   15  C   UNL     1      -8.263   3.197  66.400  1.00  0.00    -0.090 C  
HETATM   16  C   UNL     1      -9.278   2.147  65.959  1.00  0.00     0.013 C  
HETATM   17  O   UNL     1      -5.384  12.370  67.894  1.00  0.00    -0.065 OA 
HETATM   18  C   UNL     1      -8.433   4.451  65.487  1.00  0.00    -0.116 C  
HETATM   19  O   UNL     1      -9.500   4.674  64.903  1.00  0.00    -0.155 OA 
HETATM   20  N   UNL     1      -6.646  10.753  69.023  1.00  0.00    -0.053 N  
HETATM   21  C   UNL     1      -7.281   5.451  65.423  1.00  0.00    -0.068 C  
HETATM   22  C   UNL     1      -7.541   6.697  64.627  1.00  0.00    -0.105 C  
HETATM   23  C   UNL     1      -5.975   4.832  64.936  1.00  0.00    -0.021 C  
HETATM   24  C   UNL     1      -6.103  11.391  67.917  1.00  0.00    -0.050 C  
HETATM   25  O   UNL     1      -6.637  10.785  66.828  1.00  0.00    -0.088 OA 
HETATM   26  C   UNL     1      -5.132   9.234  66.332  1.00  0.00    -0.036 C  
HETATM   27  O   UNL     1      -7.972   6.754  63.474  1.00  0.00    -0.119 OA 
HETATM   28  O   UNL     1      -6.909   7.742  65.233  1.00  0.00    -0.050 OA 
HETATM   29  C   UNL     1      -6.528   9.338  67.060  1.00  0.00    -0.067 C  
ENDROOT
BRANCH  10  30
HETATM   30  O   UNL     1      -9.142   4.737  68.156  1.00  0.00    -0.109 OA 
BRANCH  30  31
HETATM   31  C   UNL     1      -9.190   5.380  69.414  1.00  0.00    -0.117 C  
HETATM   32  C   UNL     1     -10.007   6.728  69.453  1.00  0.00    -0.157 C  
HETATM   33  C   UNL     1     -10.658   6.952  70.848  1.00  0.00    -0.218 C  
HETATM   34  O   UNL     1      -9.681   4.275  70.131  1.00  0.00    -0.187 OA 
HETATM   35  C   UNL     1     -10.413   4.429  71.307  1.00  0.00     0.129 C  
HETATM   36  H   UNL     1      -9.608   8.627  69.138  1.00  0.00     0.000 HD 
HETATM   37  C   UNL     1     -11.307   5.653  71.344  1.00  0.00    -0.085 C  
HETATM   38  O   UNL     1      -9.116   7.815  69.114  1.00  0.00    -0.145 OA 
HETATM   39  C   UNL     1     -11.272   3.160  71.358  1.00  0.00     2.914 C  
BRANCH  33  40
HETATM   40  N   UNL     1     -11.588   8.091  71.098  1.00  0.00    -0.280 NA 
HETATM   41  C   UNL     1     -11.069   9.405  71.468  1.00  0.00    -0.376 C  
HETATM   42  C   UNL     1     -12.809   7.814  71.843  1.00  0.00    -0.292 C  
ENDBRANCH  33  40
ENDBRANCH  30  31
ENDBRANCH  10  30
BRANCH  14  43
HETATM   43  C   UNL     1      -8.503   9.461  65.246  1.00  0.00    -0.161 C  
HETATM   44  C   UNL     1      -7.950   9.782  63.877  1.00  0.00    -0.146 C  
ENDBRANCH  14  43
BRANCH  20  45
HETATM   45  C   UNL     1      -8.005  11.283  69.195  1.00  0.00     0.003 C  
BRANCH  45  46
HETATM   46  C   UNL     1      -8.164  12.723  68.703  1.00  0.00     0.012 C  
BRANCH  46  47
HETATM   47  C   UNL     1      -9.422  12.925  67.859  1.00  0.00    -0.208 C  
BRANCH  47  48
HETATM   48  C   UNL     1      -9.085  13.440  66.466  1.00  0.00    -0.113 C  
BRANCH  48  49
HETATM   49  N   UNL     1      -9.603  14.772  66.251  1.00  0.00    -0.297 NA 
HETATM   50  C   UNL     1     -10.444  15.170  65.253  1.00  0.00    -0.409 A  
HETATM   51  N   UNL     1     -10.657  16.466  65.302  1.00  0.00    -0.609 NA 
HETATM   52  C   UNL     1      -9.913  16.922  66.367  1.00  0.00    -0.309 A  
HETATM   53  C   UNL     1      -9.282  15.870  66.988  1.00  0.00    -0.214 A  
BRANCH  52  54
HETATM   54  C   UNL     1      -9.828  18.320  66.731  1.00  0.00    -0.344 A  
HETATM   55  C   UNL     1     -10.539  19.286  66.016  1.00  0.00    -0.550 A  
HETATM   56  C   UNL     1     -10.386  20.631  66.343  1.00  0.00     0.161 A  
HETATM   57  C   UNL     1      -9.516  20.974  67.368  1.00  0.00    -0.120 A  
HETATM   58  N   UNL     1      -8.847  20.073  68.115  1.00  0.00    -0.234 NA 
HETATM   59  C   UNL     1      -9.019  18.770  67.772  1.00  0.00    -0.286 A  
ENDBRANCH  52  54
ENDBRANCH  48  49
ENDBRANCH  47  48
ENDBRANCH  46  47
ENDBRANCH  45  46
ENDBRANCH  20  45
TORSDOF 10
ENDMDL
MODEL       34
REMARK 921   NORMALIZED FREE ENERGY PREDICTED BY IDOCK:   12.77 KCAL/MOL
REMARK 922        TOTAL FREE ENERGY PREDICTED BY IDOCK:   20.63 KCAL/MOL
REMARK 923 INTER-LIGAND FREE ENERGY PREDICTED BY IDOCK:   18.09 KCAL/MOL
REMARK 924 INTRA-LIGAND FREE ENERGY PREDICTED BY IDOCK:    2.54 KCAL/MOL
REMARK 927      BINDING AFFINITY PREDICTED BY RF-SCORE:    0.00 PKD
ROOT
HETATM    1  C   UNL     1     -12.281  12.876  66.752  1.00  0.00    -0.133 C  
HETATM    2  C   UNL     1     -12.029  12.545  68.355  1.00  0.00    -0.271 C  
HETATM    3  C   UNL     1     -12.571  13.426  69.551  1.00  0.00     0.230 C  
HETATM    4  C   UNL     1     -11.031  11.449  68.826  1.00  0.00    -0.272 C  
HETATM    5  C   UNL     1     -11.694  14.124  70.627  1.00  0.00    -0.259 C  
HETATM    6  O   UNL     1     -13.799  13.475  69.730  1.00  0.00     2.415 OA 
HETATM    7  C   UNL     1     -12.167  15.690  70.784  1.00  0.00    -0.463 C  
HETATM    8  C   UNL     1     -10.230  13.728  70.523  1.00  0.00     2.565 C  
HETATM    9  C   UNL     1     -11.128  16.710  71.526  1.00  0.00     0.590 C  
HETATM   10  C   UNL     1     -10.211  17.187  70.262  1.00  0.00     0.919 C  
HETATM   11  O   UNL     1     -10.788  15.794  72.620  1.00  0.00     0.620 OA 
HETATM   12  C   UNL     1     -11.118  18.017  72.350  1.00  0.00     2.738 C  
HETATM   13  C   UNL     1     -11.886  15.665  73.594  1.00  0.00    -0.258 C  
HETATM   14  C   UNL     1     -10.767  14.982  65.557  1.00  0.00    -0.359 C  
HETATM   15  C   UNL     1      -9.976  18.591  69.550  1.00  0.00     0.207 C  
HETATM   16  C   UNL     1      -8.871  19.515  70.053  1.00  0.00     1.000 C  
HETATM   17  O   UNL     1     -13.364  11.407  63.930  1.00  0.00     0.089 OA 
HETATM   18  C   UNL     1      -9.724  18.314  68.035  1.00  0.00    -0.312 C  
HETATM   19  O   UNL     1      -8.595  18.429  67.545  1.00  0.00    -0.254 OA 
HETATM   20  N   UNL     1     -12.215  11.613  65.960  1.00  0.00     0.740 N  
HETATM   21  C   UNL     1     -10.891  17.793  67.199  1.00  0.00    -0.125 C  
HETATM   22  C   UNL     1     -10.567  17.430  65.779  1.00  0.00    -0.182 C  
HETATM   23  C   UNL     1     -12.093  18.732  67.194  1.00  0.00     3.090 C  
HETATM   24  C   UNL     1     -12.621  11.997  64.689  1.00  0.00    -0.030 C  
HETATM   25  O   UNL     1     -11.918  13.115  64.387  1.00  0.00    -0.360 OA 
HETATM   26  C   UNL     1     -13.281  14.746  65.017  1.00  0.00     0.773 C  
HETATM   27  O   UNL     1      -9.981  18.136  64.957  1.00  0.00     0.655 OA 
HETATM   28  O   UNL     1     -11.315  16.347  65.424  1.00  0.00     0.029 OA 
HETATM   29  C   UNL     1     -12.006  13.994  65.562  1.00  0.00    -0.384 C  
ENDROOT
BRANCH  10  30
HETATM   30  O   UNL     1      -9.407  16.171  69.771  1.00  0.00    -0.082 OA 
BRANCH  30  31
HETATM   31  C   UNL     1      -8.006  16.187  69.958  1.00  0.00     0.905 C  
HETATM   32  C   UNL     1      -7.372  14.824  70.432  1.00  0.00     0.526 C  
HETATM   33  C   UNL     1      -5.920  14.660  69.896  1.00  0.00    -0.132 C  
HETATM   34  O   UNL     1      -7.687  16.668  68.676  1.00  0.00    -0.200 OA 
HETATM   35  C   UNL     1      -6.453  16.411  68.082  1.00  0.00    -0.129 C  
HETATM   36  H   UNL     1      -7.019  13.960  72.163  1.00  0.00     0.000 HD 
HETATM   37  C   UNL     1      -5.857  15.056  68.415  1.00  0.00    -0.109 C  
HETATM   38  O   UNL     1      -7.401  14.782  71.877  1.00  0.00     2.077 OA 
HETATM   39  C   UNL     1      -6.760  16.484  66.581  1.00  0.00    -0.117 C  
BRANCH  33  40
HETATM   40  N   UNL     1      -5.155  13.396  70.098  1.00  0.00    -0.085 NA 
HETATM   41  C   UNL     1      -5.223  12.323  69.111  1.00  0.00    -0.063 C  
HETATM   42  C   UNL     1      -5.125  12.833  71.441  1.00  0.00    -0.162 C  
ENDBRANCH  33  40
ENDBRANCH  30  31
ENDBRANCH  10  30
BRANCH  14  43
HETATM   43  C   UNL     1      -9.801  14.921  64.342  1.00  0.00     1.590 C  
HETATM   44  C   UNL     1      -9.304  13.563  63.903  1.00  0.00     3.289 C  
ENDBRANCH  14  43
BRANCH  20  45
HETATM   45  C   UNL     1     -10.914  10.949  65.809  1.00  0.00     0.025 C  
BRANCH  45  46
HETATM   46  C   UNL     1     -10.857   9.567  66.463  1.00  0.00     0.102 C  
BRANCH  46  47
HETATM   47  C   UNL     1      -9.622   8.767  66.049  1.00  0.00    -0.297 C  
BRANCH  47  48
HETATM   48  C   UNL     1      -9.907   7.271  66.020  1.00  0.00     0.322 C  
BRANCH  48  49
HETATM   49  N   UNL     1      -9.954   6.712  67.352  1.00  0.00    -0.135 NA 
HETATM   50  C   UNL     1      -9.956   5.388  67.681  1.00  0.00    -0.162 A  
HETATM   51  N   UNL     1     -10.085   5.224  68.979  1.00  0.00    -0.197 NA 
HETATM   52  C   UNL     1     -10.184   6.493  69.504  1.00  0.00    -0.186 A  
HETATM   53  C   UNL     1     -10.066   7.429  68.503  1.00  0.00    -0.175 A  
BRANCH  52  54
HETATM   54  C   UNL     1     -10.395   6.753  70.911  1.00  0.00    -0.222 A  
HETATM   55  C   UNL     1     -10.752   8.029  71.353  1.00  0.00    -0.270 A  
HETATM   56  C   UNL     1     -10.882   8.270  72.719  1.00  0.00    -0.308 A  
HETATM   57  C   UNL     1     -10.640   7.231  73.605  1.00  0.00    -0.307 A  
HETATM   58  N   UNL     1     -10.340   5.974  73.222  1.00  0.00    -0.209 NA 
HETATM   59  C   UNL     1     -10.222   5.771  71.884  1.00  0.00    -0.200 A  
ENDBRANCH  52  54
ENDBRANCH  48  49
ENDBRANCH  47  48
ENDBRANCH  46  47
ENDBRANCH  45  46
ENDBRANCH  20  45
TORSDOF 10
ENDMDL
MODEL       35
REMARK 921   NORMALIZED FREE ENERGY PREDICTED BY IDOCK:   13.61 KCAL/MOL
REMARK 922        TOTAL FREE ENERGY PREDICTED BY IDOCK:   21.96 KCAL/MOL
REMARK 923 INTER-LIGAND FREE ENERGY PREDICTED BY IDOCK:   11.61 KCAL/MOL
REMARK 924 INTRA-LIGAND FREE ENERGY PREDICTED BY IDOCK:   10.35 KCAL/MOL
REMARK 927      BINDING AFFINITY PREDICTED BY RF-SCORE:    0.00 PKD
ROOT
HETATM    1  C   UNL     1      -7.547   7.002  66.789  1.00  0.00    -0.090 C  
HETATM    2  C   UNL     1      -6.420   7.382  67.941  1.00  0.00    -0.049 C  
HETATM    3  C   UNL     1      -5.987   6.426  69.124  1.00  0.00    -0.021 C  
HETATM    4  C   UNL     1      -5.846   8.819  68.095  1.00  0.00    -0.042 C  
HETATM    5  C   UNL     1      -6.121   6.748  70.639  1.00  0.00    -0.028 C  
HETATM    6  O   UNL     1      -5.378   5.382  68.839  1.00  0.00    -0.003 OA 
HETATM    7  C   UNL     1      -6.820   5.474  71.407  1.00  0.00    -0.061 C  
HETATM    8  C   UNL     1      -6.562   8.181  70.886  1.00  0.00    -0.038 C  
HETATM    9  C   UNL     1      -7.443   5.751  72.892  1.00  0.00    -0.092 C  
HETATM   10  C   UNL     1      -8.947   6.252  72.504  1.00  0.00    -0.137 C  
HETATM   11  O   UNL     1      -6.305   6.538  73.378  1.00  0.00    -0.063 OA 
HETATM   12  C   UNL     1      -7.756   5.015  74.214  1.00  0.00    -0.093 C  
HETATM   13  C   UNL     1      -5.130   5.694  73.658  1.00  0.00    -0.022 C  
HETATM   14  C   UNL     1     -10.305   7.077  67.525  1.00  0.00    -0.225 C  
HETATM   15  C   UNL     1     -10.401   5.661  72.777  1.00  0.00    -0.224 C  
HETATM   16  C   UNL     1     -11.144   6.049  74.052  1.00  0.00     0.500 C  
HETATM   17  O   UNL     1      -7.946   6.960  63.452  1.00  0.00    -0.122 OA 
HETATM   18  C   UNL     1     -11.299   6.039  71.558  1.00  0.00    -0.246 C  
HETATM   19  O   UNL     1     -12.170   6.912  71.655  1.00  0.00    -0.326 OA 
HETATM   20  N   UNL     1      -7.274   7.774  65.542  1.00  0.00    -0.063 N  
HETATM   21  C   UNL     1     -10.999   5.376  70.216  1.00  0.00    -0.089 C  
HETATM   22  C   UNL     1     -11.813   5.861  69.051  1.00  0.00     1.640 C  
HETATM   23  C   UNL     1     -11.088   3.855  70.264  1.00  0.00     3.823 C  
HETATM   24  C   UNL     1      -8.156   7.235  64.617  1.00  0.00    -0.081 C  
HETATM   25  O   UNL     1      -9.366   7.189  65.227  1.00  0.00     0.425 OA 
HETATM   26  C   UNL     1      -9.422   5.138  66.067  1.00  0.00    -0.170 C  
HETATM   27  O   UNL     1     -13.040   5.956  69.003  1.00  0.00     6.802 OA 
HETATM   28  O   UNL     1     -11.027   5.857  67.938  1.00  0.00    -0.276 OA 
HETATM   29  C   UNL     1      -9.139   6.610  66.559  1.00  0.00    -0.149 C  
ENDROOT
BRANCH  10  30
HETATM   30  O   UNL     1      -8.957   7.492  71.888  1.00  0.00    -0.120 OA 
BRANCH  30  31
HETATM   31  C   UNL     1     -10.115   7.984  71.243  1.00  0.00    -0.185 C  
HETATM   32  C   UNL     1     -10.840   9.177  71.974  1.00  0.00    -0.182 C  
HETATM   33  C   UNL     1     -11.539  10.122  70.954  1.00  0.00    -0.372 C  
HETATM   34  O   UNL     1      -9.505   8.227  70.000  1.00  0.00    -0.165 OA 
HETATM   35  C   UNL     1      -9.999   9.182  69.114  1.00  0.00    -0.187 C  
HETATM   36  H   UNL     1     -12.232   9.348  73.353  1.00  0.00     0.000 HD 
HETATM   37  C   UNL     1     -10.602  10.408  69.772  1.00  0.00    -0.302 C  
HETATM   38  O   UNL     1     -11.795   8.629  72.912  1.00  0.00    -0.159 OA 
HETATM   39  C   UNL     1      -8.762   9.588  68.303  1.00  0.00    -0.120 C  
BRANCH  33  40
HETATM   40  N   UNL     1     -12.182  11.396  71.388  1.00  0.00    -0.142 NA 
HETATM   41  C   UNL     1     -12.951  11.451  72.628  1.00  0.00     1.565 C  
HETATM   42  C   UNL     1     -12.830  12.206  70.367  1.00  0.00     0.242 C  
ENDBRANCH  33  40
ENDBRANCH  30  31
ENDBRANCH  10  30
BRANCH  14  43
HETATM   43  C   UNL     1     -11.456   7.921  66.912  1.00  0.00     1.845 C  
HETATM   44  C   UNL     1     -11.084   9.159  66.130  1.00  0.00     1.627 C  
ENDBRANCH  14  43
BRANCH  20  45
HETATM   45  C   UNL     1      -7.503   9.225  65.554  1.00  0.00    -0.090 C  
BRANCH  45  46
HETATM   46  C   UNL     1      -7.851   9.798  64.179  1.00  0.00    -0.134 C  
BRANCH  46  47
HETATM   47  C   UNL     1      -8.393  11.226  64.252  1.00  0.00     0.578 C  
BRANCH  47  48
HETATM   48  C   UNL     1      -8.991  11.528  65.619  1.00  0.00    -0.074 C  
BRANCH  48  49
HETATM   49  N   UNL     1      -9.742  12.763  65.611  1.00  0.00    -0.179 NA 
HETATM   50  C   UNL     1     -11.045  12.922  65.240  1.00  0.00    -0.284 A  
HETATM   51  N   UNL     1     -11.395  14.189  65.276  1.00  0.00    -0.317 NA 
HETATM   52  C   UNL     1     -10.268  14.873  65.672  1.00  0.00    -0.358 A  
HETATM   53  C   UNL     1      -9.242  13.991  65.919  1.00  0.00     0.162 A  
BRANCH  52  54
HETATM   54  C   UNL     1     -10.215  16.314  65.783  1.00  0.00    -0.390 A  
HETATM   55  C   UNL     1      -9.490  16.923  66.810  1.00  0.00    -0.269 A  
HETATM   56  C   UNL     1      -9.511  18.310  66.935  1.00  0.00    -0.290 A  
HETATM   57  C   UNL     1     -10.267  19.049  66.038  1.00  0.00    -0.401 A  
HETATM   58  N   UNL     1     -10.943  18.508  65.004  1.00  0.00    -0.372 NA 
HETATM   59  C   UNL     1     -10.900  17.155  64.908  1.00  0.00     0.208 A  
ENDBRANCH  52  54
ENDBRANCH  48  49
ENDBRANCH  47  48
ENDBRANCH  46  47
ENDBRANCH  45  46
ENDBRANCH  20  45
TORSDOF 10
ENDMDL
MODEL       36
REMARK 921   NORMALIZED FREE ENERGY PREDICTED BY IDOCK:   14.04 KCAL/MOL
REMARK 922        TOTAL FREE ENERGY PREDICTED BY IDOCK:   22.65 KCAL/MOL
REMARK 923 INTER-LIGAND FREE ENERGY PREDICTED BY IDOCK:   15.33 KCAL/MOL
REMARK 924 INTRA-LIGAND FREE ENERGY PREDICTED BY IDOCK:    7.32 KCAL/MOL
REMARK 927      BINDING AFFINITY PREDICTED BY RF-SCORE:    0.00 PKD
ROOT
HETATM    1  C   UNL     1     -10.730  13.285  65.420  1.00  0.00    -0.297 C  
HETATM    2  C   UNL     1     -10.742  13.791  66.996  1.00  0.00    -0.283 C  
HETATM    3  C   UNL     1      -9.471  14.304  67.786  1.00  0.00    -0.216 C  
HETATM    4  C   UNL     1     -11.977  13.590  67.921  1.00  0.00    -0.372 C  
HETATM    5  C   UNL     1      -8.898  13.667  69.083  1.00  0.00     0.484 C  
HETATM    6  O   UNL     1      -8.949  15.370  67.423  1.00  0.00    -0.182 OA 
HETATM    7  C   UNL     1      -7.276  13.460  68.918  1.00  0.00    -0.062 C  
HETATM    8  C   UNL     1      -9.801  12.577  69.637  1.00  0.00     1.497 C  
HETATM    9  C   UNL     1      -6.548  12.433  69.959  1.00  0.00     0.205 C  
HETATM   10  C   UNL     1      -6.738  11.014  69.175  1.00  0.00    -0.084 C  
HETATM   11  O   UNL     1      -7.240  12.929  71.154  1.00  0.00     2.920 OA 
HETATM   12  C   UNL     1      -5.175  12.172  70.619  1.00  0.00    -0.138 C  
HETATM   13  C   UNL     1      -6.738  14.248  71.575  1.00  0.00     1.338 C  
HETATM   14  C   UNL     1      -9.642  10.709  64.841  1.00  0.00    -0.269 C  
HETATM   15  C   UNL     1      -5.718   9.972  68.536  1.00  0.00    -0.041 C  
HETATM   16  C   UNL     1      -5.156   8.844  69.397  1.00  0.00    -0.035 C  
HETATM   17  O   UNL     1     -12.338  13.788  62.512  1.00  0.00     0.116 OA 
HETATM   18  C   UNL     1      -6.414   9.333  67.294  1.00  0.00    -0.060 C  
HETATM   19  O   UNL     1      -6.826   8.167  67.324  1.00  0.00    -0.070 OA 
HETATM   20  N   UNL     1     -12.082  13.475  64.819  1.00  0.00    -0.385 N  
HETATM   21  C   UNL     1      -6.668  10.223  66.080  1.00  0.00    -0.114 C  
HETATM   22  C   UNL     1      -7.445   9.594  64.960  1.00  0.00    -0.116 C  
HETATM   23  C   UNL     1      -5.394  10.827  65.501  1.00  0.00    -0.140 C  
HETATM   24  C   UNL     1     -11.890  13.195  63.473  1.00  0.00    -0.476 C  
HETATM   25  O   UNL     1     -11.198  12.030  63.423  1.00  0.00    -0.413 OA 
HETATM   26  C   UNL     1      -9.090  12.708  63.301  1.00  0.00     2.429 C  
HETATM   27  O   UNL     1      -7.207   8.513  64.419  1.00  0.00    -0.086 OA 
HETATM   28  O   UNL     1      -8.244  10.544  64.396  1.00  0.00    -0.150 OA 
HETATM   29  C   UNL     1     -10.095  12.157  64.387  1.00  0.00    -0.274 C  
ENDROOT
BRANCH  10  30
HETATM   30  O   UNL     1      -8.058  10.594  69.142  1.00  0.00    -0.139 OA 
BRANCH  30  31
HETATM   31  C   UNL     1      -8.478   9.435  69.833  1.00  0.00    -0.177 C  
HETATM   32  C   UNL     1      -7.794   9.198  71.233  1.00  0.00    -0.019 C  
HETATM   33  C   UNL     1      -8.755   8.466  72.215  1.00  0.00    -0.209 C  
HETATM   34  O   UNL     1      -9.853   9.727  69.797  1.00  0.00    -0.206 OA 
HETATM   35  C   UNL     1     -10.736   9.224  70.751  1.00  0.00    -0.284 C  
HETATM   36  H   UNL     1      -6.169   8.295  71.873  1.00  0.00     0.000 HD 
HETATM   37  C   UNL     1     -10.156   9.090  72.146  1.00  0.00    -0.141 C  
HETATM   38  O   UNL     1      -6.581   8.438  71.029  1.00  0.00    -0.038 OA 
HETATM   39  C   UNL     1     -11.871  10.255  70.762  1.00  0.00    -0.459 C  
BRANCH  33  40
HETATM   40  N   UNL     1      -8.387   8.244  73.643  1.00  0.00    -0.310 NA 
HETATM   41  C   UNL     1      -7.002   8.388  74.082  1.00  0.00    -0.134 C  
HETATM   42  C   UNL     1      -9.012   7.124  74.333  1.00  0.00    -0.194 C  
ENDBRANCH  33  40
ENDBRANCH  30  31
ENDBRANCH  10  30
BRANCH  14  43
HETATM   43  C   UNL     1     -10.325   9.493  64.158  1.00  0.00     2.290 C  
HETATM   44  C   UNL     1      -9.860   9.107  62.773  1.00  0.00     2.015 C  
ENDBRANCH  14  43
BRANCH  20  45
HETATM   45  C   UNL     1     -13.180  12.616  65.280  1.00  0.00     0.958 C  
BRANCH  45  46
HETATM   46  C   UNL     1     -12.826  11.789  66.518  1.00  0.00     3.712 C  
BRANCH  46  47
HETATM   47  C   UNL     1     -12.102  10.488  66.172  1.00  0.00     3.474 C  
BRANCH  47  48
HETATM   48  C   UNL     1     -11.171  10.051  67.296  1.00  0.00     0.134 C  
BRANCH  48  49
HETATM   49  N   UNL     1     -10.956   8.621  67.284  1.00  0.00     0.012 NA 
HETATM   50  C   UNL     1     -11.666   7.685  67.976  1.00  0.00     1.759 A  
HETATM   51  N   UNL     1     -11.159   6.483  67.802  1.00  0.00    -0.310 NA 
HETATM   52  C   UNL     1     -10.072   6.658  66.975  1.00  0.00    -0.187 A  
HETATM   53  C   UNL     1      -9.958   7.981  66.616  1.00  0.00    -0.256 A  
BRANCH  52  54
HETATM   54  C   UNL     1      -9.197   5.576  66.580  1.00  0.00    -0.137 A  
HETATM   55  C   UNL     1      -7.867   5.546  67.005  1.00  0.00    -0.101 A  
HETATM   56  C   UNL     1      -7.026   4.531  66.555  1.00  0.00    -0.062 A  
HETATM   57  C   UNL     1      -7.536   3.580  65.683  1.00  0.00    -0.078 A  
HETATM   58  N   UNL     1      -8.823   3.543  65.285  1.00  0.00    -0.119 NA 
HETATM   59  C   UNL     1      -9.617   4.545  65.743  1.00  0.00    -0.188 A  
ENDBRANCH  52  54
ENDBRANCH  48  49
ENDBRANCH  47  48
ENDBRANCH  46  47
ENDBRANCH  45  46
ENDBRANCH  20  45
TORSDOF 10
ENDMDL
MODEL       37
REMARK 921   NORMALIZED FREE ENERGY PREDICTED BY IDOCK:   15.22 KCAL/MOL
REMARK 922        TOTAL FREE ENERGY PREDICTED BY IDOCK:   24.52 KCAL/MOL
REMARK 923 INTER-LIGAND FREE ENERGY PREDICTED BY IDOCK:   22.29 KCAL/MOL
REMARK 924 INTRA-LIGAND FREE ENERGY PREDICTED BY IDOCK:    2.23 KCAL/MOL
REMARK 927      BINDING AFFINITY PREDICTED BY RF-SCORE:    0.00 PKD
ROOT
HETATM    1  C   UNL     1     -12.174  12.690  66.700  1.00  0.00    -0.015 C  
HETATM    2  C   UNL     1     -11.963  12.426  68.321  1.00  0.00    -0.270 C  
HETATM    3  C   UNL     1     -12.519  13.367  69.465  1.00  0.00     0.033 C  
HETATM    4  C   UNL     1     -10.993  11.338  68.863  1.00  0.00    -0.274 C  
HETATM    5  C   UNL     1     -11.656  14.098  70.530  1.00  0.00    -0.205 C  
HETATM    6  O   UNL     1     -13.750  13.441  69.613  1.00  0.00     2.391 OA 
HETATM    7  C   UNL     1     -12.108  15.676  70.608  1.00  0.00    -0.443 C  
HETATM    8  C   UNL     1     -10.196  13.677  70.477  1.00  0.00     2.845 C  
HETATM    9  C   UNL     1     -11.070  16.713  71.329  1.00  0.00     0.443 C  
HETATM   10  C   UNL     1     -10.118  17.120  70.067  1.00  0.00     0.598 C  
HETATM   11  O   UNL     1     -10.769  15.841  72.469  1.00  0.00     0.834 OA 
HETATM   12  C   UNL     1     -11.059  18.054  72.095  1.00  0.00     2.785 C  
HETATM   13  C   UNL     1     -11.891  15.770  73.422  1.00  0.00    -0.328 C  
HETATM   14  C   UNL     1     -10.601  14.720  65.450  1.00  0.00    -0.378 C  
HETATM   15  C   UNL     1      -9.845  18.489  69.300  1.00  0.00    -0.095 C  
HETATM   16  C   UNL     1      -8.738  19.418  69.788  1.00  0.00     0.640 C  
HETATM   17  O   UNL     1     -13.215  11.115  63.920  1.00  0.00     0.826 OA 
HETATM   18  C   UNL     1      -9.564  18.142  67.805  1.00  0.00    -0.286 C  
HETATM   19  O   UNL     1      -8.422  18.220  67.336  1.00  0.00    -0.245 OA 
HETATM   20  N   UNL     1     -12.110  11.393  65.966  1.00  0.00     0.921 N  
HETATM   21  C   UNL     1     -10.720  17.602  66.966  1.00  0.00    -0.176 C  
HETATM   22  C   UNL     1     -10.370  17.172  65.571  1.00  0.00    -0.115 C  
HETATM   23  C   UNL     1     -11.906  18.557  66.892  1.00  0.00     2.443 C  
HETATM   24  C   UNL     1     -12.481  11.726  64.670  1.00  0.00     0.244 C  
HETATM   25  O   UNL     1     -11.754  12.821  64.336  1.00  0.00    -0.329 OA 
HETATM   26  C   UNL     1     -13.106  14.497  64.863  1.00  0.00     0.415 C  
HETATM   27  O   UNL     1      -9.754  17.833  64.733  1.00  0.00     1.763 OA 
HETATM   28  O   UNL     1     -11.125  16.085  65.246  1.00  0.00    -0.297 OA 
HETATM   29  C   UNL     1     -11.855  13.752  65.470  1.00  0.00    -0.363 C  
ENDROOT
BRANCH  10  30
HETATM   30  O   UNL     1      -9.319  16.073  69.639  1.00  0.00    -0.210 OA 
BRANCH  30  31
HETATM   31  C   UNL     1      -7.976  15.953  70.062  1.00  0.00     0.644 C  
HETATM   32  C   UNL     1      -7.602  14.582  70.744  1.00  0.00     1.666 C  
HETATM   33  C   UNL     1      -6.115  14.207  70.480  1.00  0.00    -0.174 C  
HETATM   34  O   UNL     1      -7.396  16.266  68.820  1.00  0.00    -0.166 OA 
HETATM   35  C   UNL     1      -6.125  15.817  68.468  1.00  0.00    -0.102 C  
HETATM   36  H   UNL     1      -7.642  13.860  72.573  1.00  0.00     0.000 HD 
HETATM   37  C   UNL     1      -5.764  14.445  69.005  1.00  0.00    -0.088 C  
HETATM   38  O   UNL     1      -7.867  14.687  72.162  1.00  0.00     3.332 OA 
HETATM   39  C   UNL     1      -6.175  15.775  66.936  1.00  0.00     0.412 C  
BRANCH  33  40
HETATM   40  N   UNL     1      -5.556  12.893  70.910  1.00  0.00    -0.224 NA 
HETATM   41  C   UNL     1      -6.062  11.649  70.337  1.00  0.00    -0.074 C  
HETATM   42  C   UNL     1      -5.280  12.709  72.328  1.00  0.00     0.208 C  
ENDBRANCH  33  40
ENDBRANCH  30  31
ENDBRANCH  10  30
BRANCH  14  43
HETATM   43  C   UNL     1      -9.610  14.592  64.262  1.00  0.00     2.730 C  
HETATM   44  C   UNL     1      -9.169  13.205  63.856  1.00  0.00     2.611 C  
ENDBRANCH  14  43
BRANCH  20  45
HETATM   45  C   UNL     1     -10.816  10.705  65.874  1.00  0.00     0.040 C  
BRANCH  45  46
HETATM   46  C   UNL     1     -10.634   9.609  66.927  1.00  0.00    -0.241 C  
BRANCH  46  47
HETATM   47  C   UNL     1      -9.194   9.506  67.431  1.00  0.00    -0.152 C  
BRANCH  47  48
HETATM   48  C   UNL     1      -8.286   8.849  66.400  1.00  0.00    -0.115 C  
BRANCH  48  49
HETATM   49  N   UNL     1      -7.981   7.481  66.754  1.00  0.00    -0.112 NA 
HETATM   50  C   UNL     1      -7.101   6.652  66.123  1.00  0.00    -0.063 A  
HETATM   51  N   UNL     1      -7.122   5.448  66.653  1.00  0.00    -0.068 NA 
HETATM   52  C   UNL     1      -8.064   5.503  67.655  1.00  0.00    -0.101 A  
HETATM   53  C   UNL     1      -8.579   6.774  67.752  1.00  0.00    -0.121 A  
BRANCH  52  54
HETATM   54  C   UNL     1      -8.435   4.356  68.455  1.00  0.00    -0.102 A  
HETATM   55  C   UNL     1      -8.626   3.106  67.862  1.00  0.00    -0.119 A  
HETATM   56  C   UNL     1      -9.050   2.034  68.642  1.00  0.00    -0.201 A  
HETATM   57  C   UNL     1      -9.284   2.244  69.994  1.00  0.00    -0.116 A  
HETATM   58  N   UNL     1      -9.067   3.419  70.617  1.00  0.00    -0.102 NA 
HETATM   59  C   UNL     1      -8.652   4.444  69.828  1.00  0.00    -0.069 A  
ENDBRANCH  52  54
ENDBRANCH  48  49
ENDBRANCH  47  48
ENDBRANCH  46  47
ENDBRANCH  45  46
ENDBRANCH  20  45
TORSDOF 10
ENDMDL
MODEL       38
REMARK 921   NORMALIZED FREE ENERGY PREDICTED BY IDOCK:   15.78 KCAL/MOL
REMARK 922        TOTAL FREE ENERGY PREDICTED BY IDOCK:   25.40 KCAL/MOL
REMARK 923 INTER-LIGAND FREE ENERGY PREDICTED BY IDOCK:   17.40 KCAL/MOL
REMARK 924 INTRA-LIGAND FREE ENERGY PREDICTED BY IDOCK:    8.01 KCAL/MOL
REMARK 927      BINDING AFFINITY PREDICTED BY RF-SCORE:    0.00 PKD
ROOT
HETATM    1  C   UNL     1      -6.387   8.407  64.889  1.00  0.00    -0.060 C  
HETATM    2  C   UNL     1      -6.807  10.006  64.984  1.00  0.00    -0.132 C  
HETATM    3  C   UNL     1      -6.332  10.994  66.124  1.00  0.00    -0.096 C  
HETATM    4  C   UNL     1      -7.905  10.629  64.075  1.00  0.00     0.131 C  
HETATM    5  C   UNL     1      -7.266  11.763  67.099  1.00  0.00    -0.147 C  
HETATM    6  O   UNL     1      -5.126  11.283  66.180  1.00  0.00    -0.121 OA 
HETATM    7  C   UNL     1      -6.724  11.573  68.638  1.00  0.00    -0.072 C  
HETATM    8  C   UNL     1      -8.733  11.608  66.733  1.00  0.00    -0.189 C  
HETATM    9  C   UNL     1      -7.770  11.922  69.844  1.00  0.00     1.428 C  
HETATM   10  C   UNL     1      -8.536  10.490  70.011  1.00  0.00     0.436 C  
HETATM   11  O   UNL     1      -8.262  13.168  69.247  1.00  0.00     0.421 OA 
HETATM   12  C   UNL     1      -7.785  12.388  71.317  1.00  0.00     8.486 C  
HETATM   13  C   UNL     1      -7.269  14.254  69.337  1.00  0.00    -0.051 C  
HETATM   14  C   UNL     1      -7.662   6.571  66.666  1.00  0.00    -0.099 C  
HETATM   15  C   UNL     1      -8.624   9.429  71.194  1.00  0.00     0.052 C  
HETATM   16  C   UNL     1      -9.718   9.566  72.248  1.00  0.00     1.708 C  
HETATM   17  O   UNL     1      -5.126   6.172  62.719  1.00  0.00    -0.016 OA 
HETATM   18  C   UNL     1      -8.747   8.013  70.548  1.00  0.00    -0.135 C  
HETATM   19  O   UNL     1      -9.817   7.394  70.569  1.00  0.00    -0.180 OA 
HETATM   20  N   UNL     1      -6.448   7.954  63.469  1.00  0.00    -0.066 N  
HETATM   21  C   UNL     1      -7.537   7.462  69.797  1.00  0.00    -0.095 C  
HETATM   22  C   UNL     1      -7.745   6.152  69.095  1.00  0.00    -0.100 C  
HETATM   23  C   UNL     1      -6.290   7.349  70.667  1.00  0.00    -0.039 C  
HETATM   24  C   UNL     1      -5.904   6.677  63.504  1.00  0.00    -0.031 C  
HETATM   25  O   UNL     1      -6.512   6.033  64.529  1.00  0.00    -0.032 OA 
HETATM   26  C   UNL     1      -5.125   6.375  66.225  1.00  0.00    -0.013 C  
HETATM   27  O   UNL     1      -8.211   5.123  69.586  1.00  0.00    -0.090 OA 
HETATM   28  O   UNL     1      -7.029   6.160  67.935  1.00  0.00    -0.071 OA 
HETATM   29  C   UNL     1      -6.486   6.954  65.675  1.00  0.00    -0.050 C  
ENDROOT
BRANCH  10  30
HETATM   30  O   UNL     1      -9.345  10.186  68.928  1.00  0.00    -0.160 OA 
BRANCH  30  31
HETATM   31  C   UNL     1     -10.703  10.575  68.894  1.00  0.00    -0.220 C  
HETATM   32  C   UNL     1     -11.465  10.491  70.271  1.00  0.00    -0.333 C  
HETATM   33  C   UNL     1     -12.579  11.574  70.367  1.00  0.00    -0.157 C  
HETATM   34  O   UNL     1     -10.484  11.841  68.322  1.00  0.00    -0.192 OA 
HETATM   35  C   UNL     1     -11.375  12.896  68.512  1.00  0.00    -0.289 C  
HETATM   36  H   UNL     1     -12.478   9.112  71.240  1.00  0.00     0.000 HD 
HETATM   37  C   UNL     1     -12.045  12.926  69.872  1.00  0.00    -0.335 C  
HETATM   38  O   UNL     1     -12.019   9.163  70.409  1.00  0.00    -0.120 OA 
HETATM   39  C   UNL     1     -10.491  14.139  68.346  1.00  0.00    -0.254 C  
BRANCH  33  40
HETATM   40  N   UNL     1     -13.354  11.784  71.624  1.00  0.00    -0.258 NA 
HETATM   41  C   UNL     1     -13.392  13.099  72.259  1.00  0.00    -0.522 C  
HETATM   42  C   UNL     1     -13.284  10.744  72.640  1.00  0.00     0.952 C  
ENDBRANCH  33  40
ENDBRANCH  30  31
ENDBRANCH  10  30
BRANCH  14  43
HETATM   43  C   UNL     1      -8.511   5.315  66.326  1.00  0.00    -0.115 C  
HETATM   44  C   UNL     1      -9.997   5.375  66.592  1.00  0.00    -0.220 C  
ENDBRANCH  14  43
BRANCH  20  45
HETATM   45  C   UNL     1      -7.764   7.838  62.827  1.00  0.00    -0.131 C  
BRANCH  45  46
HETATM   46  C   UNL     1      -8.672   6.796  63.484  1.00  0.00     0.674 C  
BRANCH  46  47
HETATM   47  C   UNL     1     -10.048   7.355  63.848  1.00  0.00     6.656 C  
BRANCH  47  48
HETATM   48  C   UNL     1      -9.940   8.503  64.844  1.00  0.00     2.055 C  
BRANCH  48  49
HETATM   49  N   UNL     1     -10.280   9.769  64.235  1.00  0.00     0.647 NA 
HETATM   50  C   UNL     1     -10.143  10.105  62.921  1.00  0.00     0.578 A  
HETATM   51  N   UNL     1     -10.473  11.362  62.717  1.00  0.00    -0.003 NA 
HETATM   52  C   UNL     1     -10.824  11.856  63.953  1.00  0.00    -0.395 A  
HETATM   53  C   UNL     1     -10.743  10.862  64.901  1.00  0.00    -0.170 A  
BRANCH  52  54
HETATM   54  C   UNL     1     -11.202  13.235  64.176  1.00  0.00    -0.412 A  
HETATM   55  C   UNL     1     -10.234  14.201  64.462  1.00  0.00     0.002 A  
HETATM   56  C   UNL     1     -10.630  15.506  64.740  1.00  0.00    -0.246 A  
HETATM   57  C   UNL     1     -11.984  15.808  64.737  1.00  0.00     0.125 A  
HETATM   58  N   UNL     1     -12.948  14.920  64.421  1.00  0.00    -0.301 NA 
HETATM   59  C   UNL     1     -12.529  13.657  64.153  1.00  0.00    -0.234 A  
ENDBRANCH  52  54
ENDBRANCH  48  49
ENDBRANCH  47  48
ENDBRANCH  46  47
ENDBRANCH  45  46
ENDBRANCH  20  45
TORSDOF 10
ENDMDL
MODEL       39
REMARK 921   NORMALIZED FREE ENERGY PREDICTED BY IDOCK:   16.55 KCAL/MOL
REMARK 922        TOTAL FREE ENERGY PREDICTED BY IDOCK:   26.62 KCAL/MOL
REMARK 923 INTER-LIGAND FREE ENERGY PREDICTED BY IDOCK:   18.43 KCAL/MOL
REMARK 924 INTRA-LIGAND FREE ENERGY PREDICTED BY IDOCK:    8.19 KCAL/MOL
REMARK 927      BINDING AFFINITY PREDICTED BY RF-SCORE:    0.00 PKD
ROOT
HETATM    1  C   UNL     1      -9.723   9.732  68.065  1.00  0.00    -0.145 C  
HETATM    2  C   UNL     1      -8.271  10.239  68.680  1.00  0.00    -0.116 C  
HETATM    3  C   UNL     1      -8.109  11.213  69.915  1.00  0.00     0.946 C  
HETATM    4  C   UNL     1      -6.925   9.979  67.945  1.00  0.00    -0.084 C  
HETATM    5  C   UNL     1      -7.398  12.595  69.886  1.00  0.00     1.089 C  
HETATM    6  O   UNL     1      -8.466  10.805  71.032  1.00  0.00     2.376 OA 
HETATM    7  C   UNL     1      -8.360  13.718  70.603  1.00  0.00     4.219 C  
HETATM    8  C   UNL     1      -6.699  12.856  68.562  1.00  0.00    -0.091 C  
HETATM    9  C   UNL     1      -8.017  15.288  70.309  1.00  0.00     0.704 C  
HETATM   10  C   UNL     1      -8.868  15.537  68.938  1.00  0.00    -0.217 C  
HETATM   11  O   UNL     1      -6.567  15.151  70.484  1.00  0.00    -0.027 OA 
HETATM   12  C   UNL     1      -8.163  16.686  70.952  1.00  0.00     5.024 C  
HETATM   13  C   UNL     1      -6.194  14.985  71.900  1.00  0.00     0.896 C  
HETATM   14  C   UNL     1     -11.236  11.572  66.491  1.00  0.00    -0.259 C  
HETATM   15  C   UNL     1     -10.105  16.470  68.573  1.00  0.00    -0.255 C  
HETATM   16  C   UNL     1      -9.856  17.892  68.080  1.00  0.00    -0.320 C  
HETATM   17  O   UNL     1     -11.339   6.918  67.193  1.00  0.00    -0.290 OA 
HETATM   18  C   UNL     1     -10.955  15.725  67.497  1.00  0.00    -0.293 C  
HETATM   19  O   UNL     1     -10.955  16.094  66.317  1.00  0.00    -0.190 OA 
HETATM   20  N   UNL     1      -9.550   8.416  67.384  1.00  0.00    -0.150 N  
HETATM   21  C   UNL     1     -11.701  14.462  67.923  1.00  0.00    -0.388 C  
HETATM   22  C   UNL     1     -12.405  13.718  66.826  1.00  0.00    -0.321 C  
HETATM   23  C   UNL     1     -12.693  14.703  69.055  1.00  0.00     0.430 C  
HETATM   24  C   UNL     1     -10.847   8.023  67.085  1.00  0.00    -0.080 C  
HETATM   25  O   UNL     1     -11.447   9.096  66.513  1.00  0.00     1.366 OA 
HETATM   26  C   UNL     1     -12.435  10.089  68.232  1.00  0.00     3.210 C  
HETATM   27  O   UNL     1     -13.190  14.194  66.004  1.00  0.00    -0.205 OA 
HETATM   28  O   UNL     1     -12.321  12.382  67.081  1.00  0.00    -0.380 OA 
HETATM   29  C   UNL     1     -11.128  10.254  67.362  1.00  0.00    -0.189 C  
ENDROOT
BRANCH  10  30
HETATM   30  O   UNL     1      -8.342  14.858  67.851  1.00  0.00    -0.135 OA 
BRANCH  30  31
HETATM   31  C   UNL     1      -7.378  15.456  67.008  1.00  0.00    -0.092 C  
HETATM   32  C   UNL     1      -7.891  16.678  66.155  1.00  0.00    -0.162 C  
HETATM   33  C   UNL     1      -6.751  17.705  65.897  1.00  0.00    -0.215 C  
HETATM   34  O   UNL     1      -6.422  15.691  68.012  1.00  0.00    -0.116 OA 
HETATM   35  C   UNL     1      -5.476  16.707  67.901  1.00  0.00    -0.120 C  
HETATM   36  H   UNL     1      -8.739  16.912  64.396  1.00  0.00     0.000 HD 
HETATM   37  C   UNL     1      -5.963  17.955  67.190  1.00  0.00    -0.160 C  
HETATM   38  O   UNL     1      -8.429  16.176  64.910  1.00  0.00     2.384 OA 
HETATM   39  C   UNL     1      -5.144  17.042  69.361  1.00  0.00    -0.138 C  
BRANCH  33  40
HETATM   40  N   UNL     1      -7.016  19.009  65.225  1.00  0.00    -0.488 NA 
HETATM   41  C   UNL     1      -7.055  19.098  63.767  1.00  0.00     3.792 C  
HETATM   42  C   UNL     1      -6.375  20.195  65.776  1.00  0.00    -0.219 C  
ENDBRANCH  33  40
ENDBRANCH  30  31
ENDBRANCH  10  30
BRANCH  14  43
HETATM   43  C   UNL     1     -11.724  11.429  65.024  1.00  0.00     0.188 C  
HETATM   44  C   UNL     1     -10.698  11.090  63.968  1.00  0.00    -0.331 C  
ENDBRANCH  14  43
BRANCH  20  45
HETATM   45  C   UNL     1      -8.791   8.373  66.127  1.00  0.00    -0.165 C  
BRANCH  45  46
HETATM   46  C   UNL     1      -7.498   9.190  66.168  1.00  0.00    -0.095 C  
BRANCH  46  47
HETATM   47  C   UNL     1      -6.255   8.322  66.367  1.00  0.00    -0.049 C  
BRANCH  47  48
HETATM   48  C   UNL     1      -6.475   6.905  65.855  1.00  0.00    -0.051 C  
BRANCH  48  49
HETATM   49  N   UNL     1      -7.156   6.085  66.831  1.00  0.00    -0.068 NA 
HETATM   50  C   UNL     1      -7.481   4.767  66.706  1.00  0.00    -0.086 A  
HETATM   51  N   UNL     1      -8.167   4.347  67.747  1.00  0.00    -0.098 NA 
HETATM   52  C   UNL     1      -8.299   5.445  68.568  1.00  0.00    -0.097 A  
HETATM   53  C   UNL     1      -7.641   6.524  68.025  1.00  0.00    -0.103 A  
BRANCH  52  54
HETATM   54  C   UNL     1      -9.046   5.420  69.807  1.00  0.00    -0.157 A  
HETATM   55  C   UNL     1     -10.423   5.652  69.813  1.00  0.00    -0.377 A  
HETATM   56  C   UNL     1     -11.106   5.691  71.025  1.00  0.00    -0.202 A  
HETATM   57  C   UNL     1     -10.391   5.509  72.200  1.00  0.00    -0.213 A  
HETATM   58  N   UNL     1      -9.072   5.235  72.239  1.00  0.00    -0.138 NA 
HETATM   59  C   UNL     1      -8.436   5.202  71.040  1.00  0.00    -0.120 A  
ENDBRANCH  52  54
ENDBRANCH  48  49
ENDBRANCH  47  48
ENDBRANCH  46  47
ENDBRANCH  45  46
ENDBRANCH  20  45
TORSDOF 10
ENDMDL
MODEL       40
REMARK 921   NORMALIZED FREE ENERGY PREDICTED BY IDOCK:   17.13 KCAL/MOL
REMARK 922        TOTAL FREE ENERGY PREDICTED BY IDOCK:   27.54 KCAL/MOL
REMARK 923 INTER-LIGAND FREE ENERGY PREDICTED BY IDOCK:   11.68 KCAL/MOL
REMARK 924 INTRA-LIGAND FREE ENERGY PREDICTED BY IDOCK:   15.86 KCAL/MOL
REMARK 927      BINDING AFFINITY PREDICTED BY RF-SCORE:    0.00 PKD
ROOT
HETATM    1  C   UNL     1     -10.993   8.958  70.894  1.00  0.00    -0.266 C  
HETATM    2  C   UNL     1     -11.859   7.552  70.770  1.00  0.00    -0.254 C  
HETATM    3  C   UNL     1     -11.574   6.244  71.613  1.00  0.00    -0.297 C  
HETATM    4  C   UNL     1     -12.898   7.317  69.637  1.00  0.00     2.463 C  
HETATM    5  C   UNL     1     -11.212   4.853  71.023  1.00  0.00     0.861 C  
HETATM    6  O   UNL     1     -11.770   6.284  72.838  1.00  0.00    -0.109 OA 
HETATM    7  C   UNL     1      -9.901   4.251  71.811  1.00  0.00    -0.250 C  
HETATM    8  C   UNL     1     -11.328   4.821  69.508  1.00  0.00     3.300 C  
HETATM    9  C   UNL     1      -9.096   3.026  71.089  1.00  0.00    -0.112 C  
HETATM   10  C   UNL     1      -8.057   3.858  70.143  1.00  0.00    -0.056 C  
HETATM   11  O   UNL     1     -10.296   2.276  70.704  1.00  0.00     0.561 OA 
HETATM   12  C   UNL     1      -8.204   1.813  71.434  1.00  0.00    -0.054 C  
HETATM   13  C   UNL     1     -10.933   1.623  71.861  1.00  0.00     0.658 C  
HETATM   14  C   UNL     1      -8.401   9.054  69.699  1.00  0.00    -0.125 C  
HETATM   15  C   UNL     1      -6.470   3.985  70.110  1.00  0.00    -0.032 C  
HETATM   16  C   UNL     1      -5.654   3.001  69.276  1.00  0.00    -0.018 C  
HETATM   17  O   UNL     1     -11.440  12.260  71.328  1.00  0.00     1.379 OA 
HETATM   18  C   UNL     1      -6.123   5.430  69.633  1.00  0.00    -0.021 C  
HETATM   19  O   UNL     1      -5.675   5.636  68.499  1.00  0.00    -0.010 OA 
HETATM   20  N   UNL     1     -11.846  10.113  70.488  1.00  0.00    -0.301 N  
HETATM   21  C   UNL     1      -6.455   6.591  70.568  1.00  0.00    -0.044 C  
HETATM   22  C   UNL     1      -6.212   7.965  70.015  1.00  0.00    -0.030 C  
HETATM   23  C   UNL     1      -5.763   6.487  71.923  1.00  0.00    -0.036 C  
HETATM   24  C   UNL     1     -11.078  11.223  70.810  1.00  0.00     1.072 C  
HETATM   25  O   UNL     1      -9.840  10.986  70.312  1.00  0.00     0.887 OA 
HETATM   26  C   UNL     1      -8.773  10.088  72.036  1.00  0.00     4.124 C  
HETATM   27  O   UNL     1      -5.174   8.370  69.489  1.00  0.00    -0.029 OA 
HETATM   28  O   UNL     1      -7.179   8.802  70.486  1.00  0.00    -0.047 OA 
HETATM   29  C   UNL     1      -9.485   9.616  70.709  1.00  0.00    -0.054 C  
ENDROOT
BRANCH  10  30
HETATM   30  O   UNL     1      -8.691   4.517  69.103  1.00  0.00    -0.082 OA 
BRANCH  30  31
HETATM   31  C   UNL     1      -8.047   5.554  68.389  1.00  0.00    -0.099 C  
HETATM   32  C   UNL     1      -7.607   5.191  66.920  1.00  0.00    -0.088 C  
HETATM   33  C   UNL     1      -7.647   6.441  65.994  1.00  0.00    -0.087 C  
HETATM   34  O   UNL     1      -9.058   6.514  68.571  1.00  0.00    -0.129 OA 
HETATM   35  C   UNL     1      -9.239   7.568  67.678  1.00  0.00    -0.127 C  
HETATM   36  H   UNL     1      -6.015   4.401  66.079  1.00  0.00     0.000 HD 
HETATM   37  C   UNL     1      -8.941   7.232  66.229  1.00  0.00    -0.185 C  
HETATM   38  O   UNL     1      -6.280   4.620  66.965  1.00  0.00    -0.033 OA 
HETATM   39  C   UNL     1     -10.725   7.912  67.833  1.00  0.00    -0.147 C  
BRANCH  33  40
HETATM   40  N   UNL     1      -7.400   6.331  64.527  1.00  0.00    -0.065 NA 
HETATM   41  C   UNL     1      -6.182   6.879  63.938  1.00  0.00    -0.036 C  
HETATM   42  C   UNL     1      -8.528   6.559  63.634  1.00  0.00     0.297 C  
ENDBRANCH  33  40
ENDBRANCH  30  31
ENDBRANCH  10  30
BRANCH  14  43
HETATM   43  C   UNL     1      -7.867  10.019  68.605  1.00  0.00    -0.091 C  
HETATM   44  C   UNL     1      -7.111  11.247  69.054  1.00  0.00    -0.116 C  
ENDBRANCH  14  43
BRANCH  20  45
HETATM   45  C   UNL     1     -12.214  10.246  69.072  1.00  0.00     0.509 C  
BRANCH  45  46
HETATM   46  C   UNL     1     -11.040  10.635  68.172  1.00  0.00    -0.343 C  
BRANCH  46  47
HETATM   47  C   UNL     1     -10.949  12.143  67.936  1.00  0.00    -0.272 C  
BRANCH  47  48
HETATM   48  C   UNL     1      -9.948  12.797  68.879  1.00  0.00     0.115 C  
BRANCH  48  49
HETATM   49  N   UNL     1      -9.859  14.222  68.656  1.00  0.00    -0.236 NA 
HETATM   50  C   UNL     1     -10.692  14.981  67.888  1.00  0.00    -0.268 A  
HETATM   51  N   UNL     1     -10.282  16.230  67.836  1.00  0.00    -0.254 NA 
HETATM   52  C   UNL     1      -9.131  16.271  68.592  1.00  0.00    -0.228 A  
HETATM   53  C   UNL     1      -8.879  15.035  69.138  1.00  0.00    -0.184 A  
BRANCH  52  54
HETATM   54  C   UNL     1      -8.329  17.465  68.746  1.00  0.00    -0.223 A  
HETATM   55  C   UNL     1      -7.266  17.725  67.880  1.00  0.00    -0.210 A  
HETATM   56  C   UNL     1      -6.466  18.846  68.092  1.00  0.00    -0.231 A  
HETATM   57  C   UNL     1      -6.745  19.669  69.173  1.00  0.00    -0.348 A  
HETATM   58  N   UNL     1      -7.789  19.483  70.006  1.00  0.00     0.499 NA 
HETATM   59  C   UNL     1      -8.549  18.383  69.771  1.00  0.00     1.181 A  
ENDBRANCH  52  54
ENDBRANCH  48  49
ENDBRANCH  47  48
ENDBRANCH  46  47
ENDBRANCH  45  46
ENDBRANCH  20  45
TORSDOF 10
ENDMDL
MODEL       41
REMARK 921   NORMALIZED FREE ENERGY PREDICTED BY IDOCK:   17.79 KCAL/MOL
REMARK 922        TOTAL FREE ENERGY PREDICTED BY IDOCK:   28.59 KCAL/MOL
REMARK 923 INTER-LIGAND FREE ENERGY PREDICTED BY IDOCK:    5.03 KCAL/MOL
REMARK 924 INTRA-LIGAND FREE ENERGY PREDICTED BY IDOCK:   23.56 KCAL/MOL
REMARK 927      BINDING AFFINITY PREDICTED BY RF-SCORE:    0.00 PKD
ROOT
HETATM    1  C   UNL     1     -10.517   8.152  69.065  1.00  0.00    -0.198 C  
HETATM    2  C   UNL     1     -10.523   9.439  70.107  1.00  0.00    -0.280 C  
HETATM    3  C   UNL     1     -11.534  10.653  70.031  1.00  0.00    -0.325 C  
HETATM    4  C   UNL     1      -9.374   9.683  71.127  1.00  0.00     0.257 C  
HETATM    5  C   UNL     1     -11.140  12.144  69.838  1.00  0.00     0.172 C  
HETATM    6  O   UNL     1     -12.733  10.430  70.263  1.00  0.00    -0.283 OA 
HETATM    7  C   UNL     1     -12.064  12.802  68.649  1.00  0.00    -0.152 C  
HETATM    8  C   UNL     1      -9.636  12.355  69.903  1.00  0.00     2.566 C  
HETATM    9  C   UNL     1     -11.541  14.203  67.990  1.00  0.00    -0.334 C  
HETATM   10  C   UNL     1     -10.556  13.641  66.816  1.00  0.00    -0.273 C  
HETATM   11  O   UNL     1     -11.190  14.837  69.265  1.00  0.00    -0.256 OA 
HETATM   12  C   UNL     1     -12.080  15.467  67.282  1.00  0.00     0.481 C  
HETATM   13  C   UNL     1     -12.383  15.247  70.026  1.00  0.00    -0.328 C  
HETATM   14  C   UNL     1      -9.457   8.546  66.443  1.00  0.00    -0.232 C  
HETATM   15  C   UNL     1     -10.590  13.726  65.226  1.00  0.00    -0.363 C  
HETATM   16  C   UNL     1      -9.929  14.905  64.520  1.00  0.00     0.785 C  
HETATM   17  O   UNL     1     -10.516   4.792  69.079  1.00  0.00    -0.046 OA 
HETATM   18  C   UNL     1      -9.958  12.411  64.671  1.00  0.00    -0.173 C  
HETATM   19  O   UNL     1      -8.833  12.412  64.159  1.00  0.00     1.037 OA 
HETATM   20  N   UNL     1      -9.927   6.959  69.740  1.00  0.00    -0.177 N  
HETATM   21  C   UNL     1     -10.724  11.106  64.877  1.00  0.00    -0.318 C  
HETATM   22  C   UNL     1     -10.020   9.858  64.432  1.00  0.00     0.155 C  
HETATM   23  C   UNL     1     -12.116  11.122  64.254  1.00  0.00     0.899 C  
HETATM   24  C   UNL     1     -10.150   5.925  68.841  1.00  0.00    -0.180 C  
HETATM   25  O   UNL     1      -9.751   6.382  67.629  1.00  0.00    -0.117 OA 
HETATM   26  C   UNL     1     -11.626   7.180  66.755  1.00  0.00     1.554 C  
HETATM   27  O   UNL     1      -9.502   9.661  63.331  1.00  0.00    -0.121 OA 
HETATM   28  O   UNL     1     -10.333   8.849  65.294  1.00  0.00     0.942 OA 
HETATM   29  C   UNL     1     -10.332   7.724  67.476  1.00  0.00    -0.264 C  
ENDROOT
BRANCH  10  30
HETATM   30  O   UNL     1      -9.410  13.046  67.318  1.00  0.00    -0.205 OA 
BRANCH  30  31
HETATM   31  C   UNL     1      -8.975  11.784  66.854  1.00  0.00    -0.195 C  
HETATM   32  C   UNL     1      -7.771  11.816  65.836  1.00  0.00     0.632 C  
HETATM   33  C   UNL     1      -6.886  10.543  65.969  1.00  0.00    -0.134 C  
HETATM   34  O   UNL     1      -8.767  11.219  68.124  1.00  0.00    -0.141 OA 
HETATM   35  C   UNL     1      -7.861  10.179  68.326  1.00  0.00    -0.093 C  
HETATM   36  H   UNL     1      -7.579  11.961  63.885  1.00  0.00     0.000 HD 
HETATM   37  C   UNL     1      -6.625  10.234  67.450  1.00  0.00    -0.068 C  
HETATM   38  O   UNL     1      -8.304  11.941  64.498  1.00  0.00     1.139 OA 
HETATM   39  C   UNL     1      -7.458  10.341  69.797  1.00  0.00    -0.169 C  
BRANCH  33  40
HETATM   40  N   UNL     1      -5.612  10.399  65.207  1.00  0.00    -0.114 NA 
HETATM   41  C   UNL     1      -5.330  11.265  64.065  1.00  0.00     0.854 C  
HETATM   42  C   UNL     1      -5.140   9.049  64.933  1.00  0.00    -0.037 C  
ENDBRANCH  33  40
ENDBRANCH  30  31
ENDBRANCH  10  30
BRANCH  14  43
HETATM   43  C   UNL     1      -8.282   7.807  65.745  1.00  0.00    -0.132 C  
HETATM   44  C   UNL     1      -8.597   6.543  64.980  1.00  0.00     0.057 C  
ENDBRANCH  14  43
BRANCH  20  45
HETATM   45  C   UNL     1      -8.489   6.964  70.036  1.00  0.00    -0.140 C  
BRANCH  45  46
HETATM   46  C   UNL     1      -7.609   6.937  68.784  1.00  0.00    -0.105 C  
BRANCH  46  47
HETATM   47  C   UNL     1      -6.218   6.363  69.051  1.00  0.00    -0.034 C  
BRANCH  47  48
HETATM   48  C   UNL     1      -6.293   5.022  69.767  1.00  0.00    -0.030 C  
BRANCH  48  49
HETATM   49  N   UNL     1      -6.522   3.935  68.842  1.00  0.00    -0.039 NA 
HETATM   50  C   UNL     1      -6.438   2.601  69.113  1.00  0.00    -0.029 A  
HETATM   51  N   UNL     1      -6.629   1.885  68.027  1.00  0.00    -0.028 NA 
HETATM   52  C   UNL     1      -6.831   2.796  67.015  1.00  0.00    -0.045 A  
HETATM   53  C   UNL     1      -6.803   4.076  67.518  1.00  0.00    -0.051 A  
BRANCH  52  54
HETATM   54  C   UNL     1      -7.025   2.413  65.633  1.00  0.00    -0.051 A  
HETATM   55  C   UNL     1      -8.309   2.338  65.089  1.00  0.00    -0.092 A  
HETATM   56  C   UNL     1      -8.474   1.901  63.778  1.00  0.00    -0.081 A  
HETATM   57  C   UNL     1      -7.350   1.539  63.049  1.00  0.00    -0.036 A  
HETATM   58  N   UNL     1      -6.090   1.641  63.517  1.00  0.00    -0.009 NA 
HETATM   59  C   UNL     1      -5.964   2.072  64.798  1.00  0.00    -0.017 A  
ENDBRANCH  52  54
ENDBRANCH  48  49
ENDBRANCH  47  48
ENDBRANCH  46  47
ENDBRANCH  45  46
ENDBRANCH  20  45
TORSDOF 10
ENDMDL
MODEL       42
REMARK 921   NORMALIZED FREE ENERGY PREDICTED BY IDOCK:   18.97 KCAL/MOL
REMARK 922        TOTAL FREE ENERGY PREDICTED BY IDOCK:   30.46 KCAL/MOL
REMARK 923 INTER-LIGAND FREE ENERGY PREDICTED BY IDOCK:   25.35 KCAL/MOL
REMARK 924 INTRA-LIGAND FREE ENERGY PREDICTED BY IDOCK:    5.11 KCAL/MOL
REMARK 927      BINDING AFFINITY PREDICTED BY RF-SCORE:    0.00 PKD
ROOT
HETATM    1  C   UNL     1     -12.531  12.851  66.353  1.00  0.00     0.136 C  
HETATM    2  C   UNL     1     -12.130  12.479  67.916  1.00  0.00    -0.120 C  
HETATM    3  C   UNL     1     -12.578  13.314  69.183  1.00  0.00     0.479 C  
HETATM    4  C   UNL     1     -11.073  11.392  68.263  1.00  0.00    -0.300 C  
HETATM    5  C   UNL     1     -11.621  13.999  70.197  1.00  0.00    -0.273 C  
HETATM    6  O   UNL     1     -13.786  13.331  69.472  1.00  0.00     2.807 OA 
HETATM    7  C   UNL     1     -12.106  15.549  70.444  1.00  0.00    -0.426 C  
HETATM    8  C   UNL     1     -10.165  13.637  69.949  1.00  0.00     1.143 C  
HETATM    9  C   UNL     1     -11.024  16.569  71.120  1.00  0.00     0.413 C  
HETATM   10  C   UNL     1     -10.233  17.101  69.795  1.00  0.00     0.151 C  
HETATM   11  O   UNL     1     -10.569  15.629  72.151  1.00  0.00     0.595 OA 
HETATM   12  C   UNL     1     -10.964  17.852  71.980  1.00  0.00     2.731 C  
HETATM   13  C   UNL     1     -11.573  15.449  73.214  1.00  0.00    -0.116 C  
HETATM   14  C   UNL     1     -11.171  15.022  65.092  1.00  0.00    -0.388 C  
HETATM   15  C   UNL     1     -10.090  18.530  69.107  1.00  0.00    -0.171 C  
HETATM   16  C   UNL     1      -8.961  19.463  69.537  1.00  0.00     0.236 C  
HETATM   17  O   UNL     1     -13.837  11.441  63.596  1.00  0.00     0.292 OA 
HETATM   18  C   UNL     1      -9.971  18.303  67.568  1.00  0.00    -0.335 C  
HETATM   19  O   UNL     1      -8.892  18.456  66.983  1.00  0.00    -0.259 OA 
HETATM   20  N   UNL     1     -12.514  11.613  65.521  1.00  0.00     1.120 N  
HETATM   21  C   UNL     1     -11.198  17.781  66.825  1.00  0.00     0.645 C  
HETATM   22  C   UNL     1     -10.997  17.466  65.371  1.00  0.00     0.137 C  
HETATM   23  C   UNL     1     -12.413  18.694  66.956  1.00  0.00     5.087 C  
HETATM   24  C   UNL     1     -13.040  12.024  64.304  1.00  0.00     0.176 C  
HETATM   25  O   UNL     1     -12.387  13.166  63.974  1.00  0.00    -0.544 OA 
HETATM   26  C   UNL     1     -13.719  14.748  64.773  1.00  0.00     2.351 C  
HETATM   27  O   UNL     1     -10.501  18.208  64.522  1.00  0.00     1.122 OA 
HETATM   28  O   UNL     1     -11.754  16.378  65.052  1.00  0.00     0.193 OA 
HETATM   29  C   UNL     1     -12.385  14.008  65.179  1.00  0.00    -0.453 C  
ENDROOT
BRANCH  10  30
HETATM   30  O   UNL     1      -9.459  16.118  69.202  1.00  0.00    -0.236 OA 
BRANCH  30  31
HETATM   31  C   UNL     1      -8.408  15.486  69.906  1.00  0.00     0.194 C  
HETATM   32  C   UNL     1      -7.737  14.267  69.167  1.00  0.00    -0.011 C  
HETATM   33  C   UNL     1      -6.233  14.134  69.548  1.00  0.00    -0.119 C  
HETATM   34  O   UNL     1      -7.645  16.649  70.116  1.00  0.00     0.912 OA 
HETATM   35  C   UNL     1      -6.266  16.598  70.302  1.00  0.00     0.160 C  
HETATM   36  H   UNL     1      -8.061  12.330  69.061  1.00  0.00     0.000 HD 
HETATM   37  C   UNL     1      -5.557  15.512  69.516  1.00  0.00    -0.109 C  
HETATM   38  O   UNL     1      -8.466  13.065  69.506  1.00  0.00     0.960 OA 
HETATM   39  C   UNL     1      -5.792  17.975  69.821  1.00  0.00    -0.240 C  
BRANCH  33  40
HETATM   40  N   UNL     1      -5.347  13.138  68.881  1.00  0.00    -0.071 NA 
HETATM   41  C   UNL     1      -5.425  12.925  67.438  1.00  0.00    -0.003 C  
HETATM   42  C   UNL     1      -5.132  11.867  69.558  1.00  0.00    -0.061 C  
ENDBRANCH  33  40
ENDBRANCH  30  31
ENDBRANCH  10  30
BRANCH  14  43
HETATM   43  C   UNL     1     -10.318  15.016  63.795  1.00  0.00     3.374 C  
HETATM   44  C   UNL     1     -10.052  13.685  63.130  1.00  0.00     4.414 C  
ENDBRANCH  14  43
BRANCH  20  45
HETATM   45  C   UNL     1     -11.219  10.981  65.234  1.00  0.00     0.174 C  
BRANCH  45  46
HETATM   46  C   UNL     1     -10.996   9.676  66.001  1.00  0.00     0.817 C  
BRANCH  46  47
HETATM   47  C   UNL     1      -9.647   9.635  66.718  1.00  0.00    -0.225 C  
BRANCH  47  48
HETATM   48  C   UNL     1      -9.393   8.276  67.357  1.00  0.00    -0.141 C  
BRANCH  48  49
HETATM   49  N   UNL     1      -8.670   8.399  68.602  1.00  0.00    -0.132 NA 
HETATM   50  C   UNL     1      -8.095   9.529  69.103  1.00  0.00    -0.103 A  
HETATM   51  N   UNL     1      -7.447   9.276  70.220  1.00  0.00    -0.096 NA 
HETATM   52  C   UNL     1      -7.602   7.925  70.437  1.00  0.00    -0.082 A  
HETATM   53  C   UNL     1      -8.393   7.375  69.456  1.00  0.00    -0.132 A  
BRANCH  52  54
HETATM   54  C   UNL     1      -6.988   7.227  71.546  1.00  0.00    -0.059 A  
HETATM   55  C   UNL     1      -5.834   6.463  71.354  1.00  0.00    -0.028 A  
HETATM   56  C   UNL     1      -5.302   5.745  72.423  1.00  0.00    -0.022 A  
HETATM   57  C   UNL     1      -5.946   5.801  73.650  1.00  0.00    -0.060 A  
HETATM   58  N   UNL     1      -7.032   6.562  73.892  1.00  0.00    -0.081 NA 
HETATM   59  C   UNL     1      -7.525   7.251  72.831  1.00  0.00    -0.076 A  
ENDBRANCH  52  54
ENDBRANCH  48  49
ENDBRANCH  47  48
ENDBRANCH  46  47
ENDBRANCH  45  46
ENDBRANCH  20  45
TORSDOF 10
ENDMDL
MODEL       43
REMARK 921   NORMALIZED FREE ENERGY PREDICTED BY IDOCK:   19.54 KCAL/MOL
REMARK 922        TOTAL FREE ENERGY PREDICTED BY IDOCK:   31.37 KCAL/MOL
REMARK 923 INTER-LIGAND FREE ENERGY PREDICTED BY IDOCK:   19.28 KCAL/MOL
REMARK 924 INTRA-LIGAND FREE ENERGY PREDICTED BY IDOCK:   12.09 KCAL/MOL
REMARK 927      BINDING AFFINITY PREDICTED BY RF-SCORE:    0.00 PKD
ROOT
HETATM    1  C   UNL     1      -6.824   5.417  66.145  1.00  0.00    -0.058 C  
HETATM    2  C   UNL     1      -7.461   6.300  64.898  1.00  0.00    -0.084 C  
HETATM    3  C   UNL     1      -7.008   7.766  64.511  1.00  0.00    -0.060 C  
HETATM    4  C   UNL     1      -8.735   5.849  64.129  1.00  0.00     0.254 C  
HETATM    5  C   UNL     1      -7.927   9.019  64.494  1.00  0.00    -0.131 C  
HETATM    6  O   UNL     1      -5.859   7.924  64.068  1.00  0.00    -0.051 OA 
HETATM    7  C   UNL     1      -7.190  10.248  65.298  1.00  0.00    -0.134 C  
HETATM    8  C   UNL     1      -9.388   8.665  64.722  1.00  0.00     0.511 C  
HETATM    9  C   UNL     1      -8.130  11.497  65.771  1.00  0.00     0.310 C  
HETATM   10  C   UNL     1      -8.653  10.957  67.220  1.00  0.00    -0.128 C  
HETATM   11  O   UNL     1      -8.865  11.608  64.506  1.00  0.00     0.254 OA 
HETATM   12  C   UNL     1      -8.044  13.008  66.083  1.00  0.00     1.279 C  
HETATM   13  C   UNL     1      -8.039  12.194  63.437  1.00  0.00     2.931 C  
HETATM   14  C   UNL     1      -7.603   6.090  68.809  1.00  0.00    -0.091 C  
HETATM   15  C   UNL     1      -8.447  11.463  68.715  1.00  0.00    -0.089 C  
HETATM   16  C   UNL     1      -9.422  12.478  69.307  1.00  0.00     0.827 C  
HETATM   17  O   UNL     1      -5.506   2.392  66.784  1.00  0.00    -0.015 OA 
HETATM   18  C   UNL     1      -8.434  10.207  69.640  1.00  0.00    -0.157 C  
HETATM   19  O   UNL     1      -9.392   9.948  70.378  1.00  0.00    -0.193 OA 
HETATM   20  N   UNL     1      -6.980   3.960  65.861  1.00  0.00    -0.064 N  
HETATM   21  C   UNL     1      -7.251   9.248  69.528  1.00  0.00    -0.061 C  
HETATM   22  C   UNL     1      -7.344   7.996  70.351  1.00  0.00    -0.063 C  
HETATM   23  C   UNL     1      -5.909   9.914  69.814  1.00  0.00    -0.042 C  
HETATM   24  C   UNL     1      -6.254   3.345  66.872  1.00  0.00    -0.028 C  
HETATM   25  O   UNL     1      -6.639   3.935  68.030  1.00  0.00    -0.040 OA 
HETATM   26  C   UNL     1      -5.132   5.539  68.297  1.00  0.00    -0.003 C  
HETATM   27  O   UNL     1      -7.594   7.928  71.556  1.00  0.00    -0.073 OA 
HETATM   28  O   UNL     1      -6.775   6.972  69.654  1.00  0.00    -0.046 OA 
HETATM   29  C   UNL     1      -6.617   5.385  67.787  1.00  0.00    -0.053 C  
ENDROOT
BRANCH  10  30
HETATM   30  O   UNL     1      -9.527   9.888  67.109  1.00  0.00    -0.153 OA 
BRANCH  30  31
HETATM   31  C   UNL     1     -10.835   9.951  67.640  1.00  0.00    -0.257 C  
HETATM   32  C   UNL     1     -10.939   9.777  69.203  1.00  0.00    -0.175 C  
HETATM   33  C   UNL     1     -12.142  10.578  69.782  1.00  0.00    -0.214 C  
HETATM   34  O   UNL     1     -11.168  11.197  67.078  1.00  0.00    -0.300 OA 
HETATM   35  C   UNL     1     -12.128  12.028  67.651  1.00  0.00     0.125 C  
HETATM   36  H   UNL     1     -11.125   8.263  70.443  1.00  0.00     0.000 HD 
HETATM   37  C   UNL     1     -12.185  11.984  69.166  1.00  0.00    -0.106 C  
HETATM   38  O   UNL     1     -11.063   8.367  69.501  1.00  0.00    -0.111 OA 
HETATM   39  C   UNL     1     -11.704  13.428  67.192  1.00  0.00    -0.424 C  
BRANCH  33  40
HETATM   40  N   UNL     1     -12.374  10.679  71.251  1.00  0.00    -0.379 NA 
HETATM   41  C   UNL     1     -12.764  11.952  71.853  1.00  0.00    -0.109 C  
HETATM   42  C   UNL     1     -11.449   9.978  72.130  1.00  0.00     1.150 C  
ENDBRANCH  33  40
ENDBRANCH  30  31
ENDBRANCH  10  30
BRANCH  14  43
HETATM   43  C   UNL     1      -8.291   5.198  69.878  1.00  0.00    -0.093 C  
HETATM   44  C   UNL     1      -7.409   4.484  70.876  1.00  0.00    -0.051 C  
ENDBRANCH  14  43
BRANCH  20  45
HETATM   45  C   UNL     1      -8.330   3.382  65.895  1.00  0.00    -0.103 C  
BRANCH  45  46
HETATM   46  C   UNL     1      -9.228   3.866  64.755  1.00  0.00    -0.149 C  
BRANCH  46  47
HETATM   47  C   UNL     1     -10.716   3.790  65.099  1.00  0.00     0.267 C  
BRANCH  47  48
HETATM   48  C   UNL     1     -11.333   5.177  65.224  1.00  0.00     1.034 C  
BRANCH  48  49
HETATM   49  N   UNL     1     -11.593   5.521  66.603  1.00  0.00     1.048 NA 
HETATM   50  C   UNL     1     -12.212   6.648  67.060  1.00  0.00     4.050 A  
HETATM   51  N   UNL     1     -12.216   6.686  68.374  1.00  0.00     2.207 NA 
HETATM   52  C   UNL     1     -11.562   5.543  68.778  1.00  0.00     1.950 A  
HETATM   53  C   UNL     1     -11.202   4.792  67.684  1.00  0.00     2.416 A  
BRANCH  52  54
HETATM   54  C   UNL     1     -11.302   5.230  70.166  1.00  0.00     1.074 A  
HETATM   55  C   UNL     1     -11.374   6.223  71.145  1.00  0.00    -0.364 A  
HETATM   56  C   UNL     1     -11.052   5.911  72.464  1.00  0.00    -0.328 A  
HETATM   57  C   UNL     1     -10.654   4.616  72.765  1.00  0.00    -0.208 A  
HETATM   58  N   UNL     1     -10.617   3.616  71.862  1.00  0.00     0.188 NA 
HETATM   59  C   UNL     1     -10.938   3.953  70.586  1.00  0.00     2.596 A  
ENDBRANCH  52  54
ENDBRANCH  48  49
ENDBRANCH  47  48
ENDBRANCH  46  47
ENDBRANCH  45  46
ENDBRANCH  20  45
TORSDOF 10
ENDMDL
MODEL       44
REMARK 921   NORMALIZED FREE ENERGY PREDICTED BY IDOCK:   19.74 KCAL/MOL
REMARK 922        TOTAL FREE ENERGY PREDICTED BY IDOCK:   31.68 KCAL/MOL
REMARK 923 INTER-LIGAND FREE ENERGY PREDICTED BY IDOCK:   27.49 KCAL/MOL
REMARK 924 INTRA-LIGAND FREE ENERGY PREDICTED BY IDOCK:    4.20 KCAL/MOL
REMARK 927      BINDING AFFINITY PREDICTED BY RF-SCORE:    0.00 PKD
ROOT
HETATM    1  C   UNL     1     -12.530  12.851  66.353  1.00  0.00     0.136 C  
HETATM    2  C   UNL     1     -12.133  12.471  67.915  1.00  0.00    -0.120 C  
HETATM    3  C   UNL     1     -12.570  13.310  69.183  1.00  0.00     0.479 C  
HETATM    4  C   UNL     1     -11.091  11.370  68.260  1.00  0.00    -0.300 C  
HETATM    5  C   UNL     1     -11.603  13.981  70.198  1.00  0.00    -0.273 C  
HETATM    6  O   UNL     1     -13.777  13.343  69.474  1.00  0.00     2.694 OA 
HETATM    7  C   UNL     1     -12.068  15.537  70.447  1.00  0.00    -0.426 C  
HETATM    8  C   UNL     1     -10.153  13.600  69.949  1.00  0.00     1.310 C  
HETATM    9  C   UNL     1     -10.972  16.542  71.125  1.00  0.00     0.413 C  
HETATM   10  C   UNL     1     -10.176  17.066  69.800  1.00  0.00     0.100 C  
HETATM   11  O   UNL     1     -10.530  15.595  72.154  1.00  0.00     0.903 OA 
HETATM   12  C   UNL     1     -10.895  17.822  71.986  1.00  0.00     2.848 C  
HETATM   13  C   UNL     1     -11.535  15.426  73.218  1.00  0.00     0.110 C  
HETATM   14  C   UNL     1     -11.143  15.006  65.095  1.00  0.00    -0.401 C  
HETATM   15  C   UNL     1     -10.014  18.494  69.114  1.00  0.00    -0.221 C  
HETATM   16  C   UNL     1      -8.873  19.411  69.545  1.00  0.00     0.260 C  
HETATM   17  O   UNL     1     -13.856  11.462  63.595  1.00  0.00     0.292 OA 
HETATM   18  C   UNL     1      -9.899  18.267  67.575  1.00  0.00    -0.317 C  
HETATM   19  O   UNL     1      -8.819  18.407  66.989  1.00  0.00    -0.259 OA 
HETATM   20  N   UNL     1     -12.530  11.614  65.519  1.00  0.00     1.120 N  
HETATM   21  C   UNL     1     -11.133  17.762  66.831  1.00  0.00     0.320 C  
HETATM   22  C   UNL     1     -10.937  17.447  65.377  1.00  0.00     0.137 C  
HETATM   23  C   UNL     1     -12.336  18.691  66.965  1.00  0.00     4.465 C  
HETATM   24  C   UNL     1     -13.051  12.034  64.303  1.00  0.00     0.176 C  
HETATM   25  O   UNL     1     -12.384  13.167  63.974  1.00  0.00    -0.544 OA 
HETATM   26  C   UNL     1     -13.694  14.766  64.776  1.00  0.00     2.351 C  
HETATM   27  O   UNL     1     -10.432  18.184  64.529  1.00  0.00     1.122 OA 
HETATM   28  O   UNL     1     -11.708  16.369  65.056  1.00  0.00     0.193 OA 
HETATM   29  C   UNL     1     -12.370  14.008  65.180  1.00  0.00    -0.453 C  
ENDROOT
BRANCH  10  30
HETATM   30  O   UNL     1      -9.414  16.073  69.205  1.00  0.00    -0.236 OA 
BRANCH  30  31
HETATM   31  C   UNL     1      -8.371  15.428  69.907  1.00  0.00     0.160 C  
HETATM   32  C   UNL     1      -7.715  14.201  69.166  1.00  0.00     0.023 C  
HETATM   33  C   UNL     1      -6.213  14.050  69.545  1.00  0.00    -0.117 C  
HETATM   34  O   UNL     1      -7.594  16.581  70.117  1.00  0.00     0.816 OA 
HETATM   35  C   UNL     1      -6.214  16.513  70.302  1.00  0.00     0.129 C  
HETATM   36  H   UNL     1      -8.064  12.269  69.058  1.00  0.00     0.000 HD 
HETATM   37  C   UNL     1      -5.520  15.419  69.514  1.00  0.00    -0.101 C  
HETATM   38  O   UNL     1      -8.459  13.008  69.505  1.00  0.00     0.960 OA 
HETATM   39  C   UNL     1      -5.725  17.884  69.823  1.00  0.00    -0.240 C  
BRANCH  33  40
HETATM   40  N   UNL     1      -5.340  13.043  68.876  1.00  0.00    -0.070 NA 
HETATM   41  C   UNL     1      -5.422  12.833  67.433  1.00  0.00    -0.041 C  
HETATM   42  C   UNL     1      -5.140  11.769  69.552  1.00  0.00    -0.057 C  
ENDBRANCH  33  40
ENDBRANCH  30  31
ENDBRANCH  10  30
BRANCH  14  43
HETATM   43  C   UNL     1     -10.290  14.991  63.797  1.00  0.00     3.374 C  
HETATM   44  C   UNL     1      -9.208  13.943  63.675  1.00  0.00     6.375 C  
ENDBRANCH  14  43
BRANCH  20  45
HETATM   45  C   UNL     1     -11.244  10.966  65.230  1.00  0.00     0.288 C  
BRANCH  45  46
HETATM   46  C   UNL     1     -11.054   9.636  65.963  1.00  0.00     1.162 C  
BRANCH  46  47
HETATM   47  C   UNL     1      -9.715   9.549  66.695  1.00  0.00    -0.270 C  
BRANCH  47  48
HETATM   48  C   UNL     1      -8.579  10.116  65.853  1.00  0.00    -0.147 C  
BRANCH  48  49
HETATM   49  N   UNL     1      -8.028   9.120  64.963  1.00  0.00    -0.115 NA 
HETATM   50  C   UNL     1      -8.122   9.100  63.602  1.00  0.00    -0.160 A  
HETATM   51  N   UNL     1      -7.577   8.011  63.106  1.00  0.00    -0.119 NA 
HETATM   52  C   UNL     1      -7.125   7.297  64.193  1.00  0.00    -0.067 A  
HETATM   53  C   UNL     1      -7.368   7.995  65.352  1.00  0.00    -0.069 A  
BRANCH  52  54
HETATM   54  C   UNL     1      -6.505   5.994  64.081  1.00  0.00    -0.033 A  
HETATM   55  C   UNL     1      -6.067   5.315  65.219  1.00  0.00    -0.030 A  
HETATM   56  C   UNL     1      -5.410   4.094  65.079  1.00  0.00    -0.009 A  
HETATM   57  C   UNL     1      -5.199   3.593  63.803  1.00  0.00    -0.009 A  
HETATM   58  N   UNL     1      -5.646   4.191  62.681  1.00  0.00    -0.009 NA 
HETATM   59  C   UNL     1      -6.283   5.378  62.851  1.00  0.00    -0.021 A  
ENDBRANCH  52  54
ENDBRANCH  48  49
ENDBRANCH  47  48
ENDBRANCH  46  47
ENDBRANCH  45  46
ENDBRANCH  20  45
TORSDOF 10
ENDMDL
MODEL       45
REMARK 921   NORMALIZED FREE ENERGY PREDICTED BY IDOCK:   23.60 KCAL/MOL
REMARK 922        TOTAL FREE ENERGY PREDICTED BY IDOCK:   37.79 KCAL/MOL
REMARK 923 INTER-LIGAND FREE ENERGY PREDICTED BY IDOCK:   22.67 KCAL/MOL
REMARK 924 INTRA-LIGAND FREE ENERGY PREDICTED BY IDOCK:   15.13 KCAL/MOL
REMARK 927      BINDING AFFINITY PREDICTED BY RF-SCORE:    0.00 PKD
ROOT
HETATM    1  C   UNL     1      -8.673  10.666  71.000  1.00  0.00     3.804 C  
HETATM    2  C   UNL     1      -7.358  11.628  70.703  1.00  0.00     2.898 C  
HETATM    3  C   UNL     1      -7.226  13.136  71.161  1.00  0.00     4.304 C  
HETATM    4  C   UNL     1      -6.217  11.195  69.739  1.00  0.00    -0.119 C  
HETATM    5  C   UNL     1      -7.024  14.351  70.214  1.00  0.00     0.173 C  
HETATM    6  O   UNL     1      -7.154  13.373  72.378  1.00  0.00     3.914 OA 
HETATM    7  C   UNL     1      -8.093  15.535  70.610  1.00  0.00     1.822 C  
HETATM    8  C   UNL     1      -6.785  13.926  68.774  1.00  0.00    -0.102 C  
HETATM    9  C   UNL     1      -8.353  16.705  69.499  1.00  0.00     0.338 C  
HETATM   10  C   UNL     1      -9.541  16.025  68.610  1.00  0.00    -0.222 C  
HETATM   11  O   UNL     1      -6.938  16.894  69.160  1.00  0.00    -0.224 OA 
HETATM   12  C   UNL     1      -8.781  18.186  69.400  1.00  0.00     0.456 C  
HETATM   13  C   UNL     1      -6.204  17.598  70.226  1.00  0.00     0.239 C  
HETATM   14  C   UNL     1     -11.027  11.084  69.439  1.00  0.00    -0.248 C  
HETATM   15  C   UNL     1     -11.062  16.412  68.339  1.00  0.00    -0.351 C  
HETATM   16  C   UNL     1     -11.408  17.337  67.176  1.00  0.00     0.585 C  
HETATM   17  O   UNL     1      -9.461   7.649  72.252  1.00  0.00    -0.147 OA 
HETATM   18  C   UNL     1     -11.860  15.083  68.157  1.00  0.00    -0.260 C  
HETATM   19  O   UNL     1     -12.262  14.729  67.042  1.00  0.00    -0.231 OA 
HETATM   20  N   UNL     1      -8.256   9.234  71.021  1.00  0.00    -0.138 N  
HETATM   21  C   UNL     1     -12.036  14.181  69.376  1.00  0.00    -0.372 C  
HETATM   22  C   UNL     1     -12.706  12.863  69.122  1.00  0.00     0.882 C  
HETATM   23  C   UNL     1     -12.751  14.870  70.534  1.00  0.00    -0.399 C  
HETATM   24  C   UNL     1      -9.390   8.563  71.456  1.00  0.00    -0.222 C  
HETATM   25  O   UNL     1     -10.421   9.039  70.715  1.00  0.00    -0.209 OA 
HETATM   26  C   UNL     1     -11.232  10.670  71.980  1.00  0.00     2.892 C  
HETATM   27  O   UNL     1     -13.775  12.684  68.536  1.00  0.00     4.811 OA 
HETATM   28  O   UNL     1     -12.139  11.922  69.930  1.00  0.00    -0.301 OA 
HETATM   29  C   UNL     1     -10.297  10.505  70.720  1.00  0.00     0.921 C  
ENDROOT
BRANCH  10  30
HETATM   30  O   UNL     1      -9.102  14.939  67.871  1.00  0.00    -0.177 OA 
BRANCH  30  31
HETATM   31  C   UNL     1      -8.111  15.080  66.874  1.00  0.00    -0.126 C  
HETATM   32  C   UNL     1      -7.675  16.562  66.559  1.00  0.00    -0.288 C  
HETATM   33  C   UNL     1      -6.186  16.629  66.113  1.00  0.00     0.818 C  
HETATM   34  O   UNL     1      -7.174  14.215  67.466  1.00  0.00    -0.172 OA 
HETATM   35  C   UNL     1      -5.808  14.336  67.225  1.00  0.00     0.573 C  
HETATM   36  H   UNL     1      -8.286  17.983  65.345  1.00  0.00     0.000 HD 
HETATM   37  C   UNL     1      -5.319  15.759  67.034  1.00  0.00     0.442 C  
HETATM   38  O   UNL     1      -8.548  17.090  65.535  1.00  0.00    -0.280 OA 
HETATM   39  C   UNL     1      -5.171  13.737  68.485  1.00  0.00    -0.091 C  
BRANCH  33  40
HETATM   40  N   UNL     1      -5.500  17.934  65.886  1.00  0.00    -0.192 NA 
HETATM   41  C   UNL     1      -5.708  19.050  66.805  1.00  0.00    -0.158 C  
HETATM   42  C   UNL     1      -5.425  18.427  64.518  1.00  0.00    -0.024 C  
ENDBRANCH  33  40
ENDBRANCH  30  31
ENDBRANCH  10  30
BRANCH  14  43
HETATM   43  C   UNL     1     -11.781  10.082  68.523  1.00  0.00     0.288 C  
HETATM   44  C   UNL     1     -11.096   8.776  68.191  1.00  0.00     0.245 C  
ENDBRANCH  14  43
BRANCH  20  45
HETATM   45  C   UNL     1      -7.848   8.606  69.757  1.00  0.00    -0.093 C  
BRANCH  45  46
HETATM   46  C   UNL     1      -7.715   7.085  69.848  1.00  0.00    -0.108 C  
BRANCH  46  47
HETATM   47  C   UNL     1      -6.508   6.548  69.078  1.00  0.00    -0.043 C  
BRANCH  47  48
HETATM   48  C   UNL     1      -6.100   7.489  67.952  1.00  0.00    -0.043 C  
BRANCH  48  49
HETATM   49  N   UNL     1      -7.196   7.742  67.045  1.00  0.00    -0.087 NA 
HETATM   50  C   UNL     1      -8.022   6.812  66.485  1.00  0.00    -0.105 A  
HETATM   51  N   UNL     1      -8.865   7.373  65.645  1.00  0.00    -0.083 NA 
HETATM   52  C   UNL     1      -8.558   8.715  65.656  1.00  0.00    -0.168 A  
HETATM   53  C   UNL     1      -7.545   8.962  66.553  1.00  0.00    -0.092 A  
BRANCH  52  54
HETATM   54  C   UNL     1      -9.225   9.686  64.815  1.00  0.00    -0.298 A  
HETATM   55  C   UNL     1      -8.968   9.734  63.443  1.00  0.00    -0.271 A  
HETATM   56  C   UNL     1      -9.570  10.722  62.668  1.00  0.00    -0.296 A  
HETATM   57  C   UNL     1     -10.403  11.642  63.288  1.00  0.00    -0.398 A  
HETATM   58  N   UNL     1     -10.716  11.604  64.598  1.00  0.00    -0.299 NA 
HETATM   59  C   UNL     1     -10.114  10.628  65.326  1.00  0.00    -0.297 A  
ENDBRANCH  52  54
ENDBRANCH  48  49
ENDBRANCH  47  48
ENDBRANCH  46  47
ENDBRANCH  45  46
ENDBRANCH  20  45
TORSDOF 10
ENDMDL
MODEL       46
REMARK 921   NORMALIZED FREE ENERGY PREDICTED BY IDOCK:   24.33 KCAL/MOL
REMARK 922        TOTAL FREE ENERGY PREDICTED BY IDOCK:   38.96 KCAL/MOL
REMARK 923 INTER-LIGAND FREE ENERGY PREDICTED BY IDOCK:   17.03 KCAL/MOL
REMARK 924 INTRA-LIGAND FREE ENERGY PREDICTED BY IDOCK:   21.93 KCAL/MOL
REMARK 927      BINDING AFFINITY PREDICTED BY RF-SCORE:    0.00 PKD
ROOT
HETATM    1  C   UNL     1      -9.647  14.439  67.292  1.00  0.00    -0.227 C  
HETATM    2  C   UNL     1      -9.346  13.867  68.816  1.00  0.00    -0.031 C  
HETATM    3  C   UNL     1      -8.208  12.830  69.179  1.00  0.00     0.566 C  
HETATM    4  C   UNL     1     -10.313  14.130  70.005  1.00  0.00     0.664 C  
HETATM    5  C   UNL     1      -8.432  11.434  69.824  1.00  0.00     1.197 C  
HETATM    6  O   UNL     1      -7.027  13.192  69.055  1.00  0.00    -0.100 OA 
HETATM    7  C   UNL     1      -7.592  10.302  68.980  1.00  0.00    -0.102 C  
HETATM    8  C   UNL     1      -9.876  11.221  70.248  1.00  0.00     1.983 C  
HETATM    9  C   UNL     1      -8.015   8.739  69.208  1.00  0.00    -0.108 C  
HETATM   10  C   UNL     1      -9.205   8.579  68.103  1.00  0.00    -0.137 C  
HETATM   11  O   UNL     1      -8.117   8.832  70.669  1.00  0.00    -0.104 OA 
HETATM   12  C   UNL     1      -7.416   7.316  69.141  1.00  0.00    -0.093 C  
HETATM   13  C   UNL     1      -6.793   8.921  71.310  1.00  0.00    -0.090 C  
HETATM   14  C   UNL     1     -10.978  12.715  65.445  1.00  0.00    -0.286 C  
HETATM   15  C   UNL     1      -9.365   7.696  66.788  1.00  0.00    -0.218 C  
HETATM   16  C   UNL     1      -9.958   6.293  66.891  1.00  0.00    -0.215 C  
HETATM   17  O   UNL     1     -10.070  17.331  65.633  1.00  0.00    -0.566 OA 
HETATM   18  C   UNL     1     -10.224   8.513  65.774  1.00  0.00     0.860 C  
HETATM   19  O   UNL     1     -11.397   8.201  65.536  1.00  0.00     5.021 OA 
HETATM   20  N   UNL     1     -10.291  15.782  67.375  1.00  0.00    -0.276 N  
HETATM   21  C   UNL     1      -9.609   9.771  65.166  1.00  0.00    -0.356 C  
HETATM   22  C   UNL     1     -10.517  10.585  64.290  1.00  0.00     0.003 C  
HETATM   23  C   UNL     1      -8.319   9.499  64.401  1.00  0.00    -0.174 C  
HETATM   24  C   UNL     1     -10.318  16.220  66.059  1.00  0.00    -0.349 C  
HETATM   25  O   UNL     1     -10.809  15.191  65.325  1.00  0.00    -0.347 OA 
HETATM   26  C   UNL     1      -8.977  14.141  64.651  1.00  0.00     3.637 C  
HETATM   27  O   UNL     1     -11.192  10.169  63.347  1.00  0.00     2.262 OA 
HETATM   28  O   UNL     1     -10.226  11.905  64.466  1.00  0.00    -0.261 OA 
HETATM   29  C   UNL     1     -10.088  13.986  65.761  1.00  0.00    -0.327 C  
ENDROOT
BRANCH  10  30
HETATM   30  O   UNL     1     -10.343   9.297  68.434  1.00  0.00    -0.196 OA 
BRANCH  30  31
HETATM   31  C   UNL     1     -10.574   9.740  69.756  1.00  0.00    -0.257 C  
HETATM   32  C   UNL     1     -11.445  11.047  69.889  1.00  0.00    -0.320 C  
HETATM   33  C   UNL     1     -12.274  11.041  71.207  1.00  0.00    -0.259 C  
HETATM   34  O   UNL     1     -11.104   8.527  70.232  1.00  0.00    -0.248 OA 
HETATM   35  C   UNL     1     -11.981   8.483  71.314  1.00  0.00    -0.294 C  
HETATM   36  H   UNL     1     -11.090  12.980  69.914  1.00  0.00     0.000 HD 
HETATM   37  C   UNL     1     -12.924   9.667  71.415  1.00  0.00    -0.474 C  
HETATM   38  O   UNL     1     -10.565  12.193  69.834  1.00  0.00     0.503 OA 
HETATM   39  C   UNL     1     -12.786   7.202  71.064  1.00  0.00    -0.268 C  
BRANCH  33  40
HETATM   40  N   UNL     1     -13.275  12.106  71.500  1.00  0.00    -0.279 NA 
HETATM   41  C   UNL     1     -13.881  12.873  70.414  1.00  0.00     2.651 C  
HETATM   42  C   UNL     1     -13.019  12.977  72.639  1.00  0.00     0.157 C  
ENDBRANCH  33  40
ENDBRANCH  30  31
ENDBRANCH  10  30
BRANCH  14  43
HETATM   43  C   UNL     1     -12.317  12.941  64.690  1.00  0.00    -0.501 C  
HETATM   44  C   UNL     1     -13.378  13.774  65.370  1.00  0.00     0.245 C  
ENDBRANCH  14  43
BRANCH  20  45
HETATM   45  C   UNL     1     -11.668  15.867  67.881  1.00  0.00     0.009 C  
BRANCH  45  46
HETATM   46  C   UNL     1     -11.959  17.164  68.639  1.00  0.00     1.617 C  
BRANCH  46  47
HETATM   47  C   UNL     1     -12.289  18.332  67.709  1.00  0.00     4.336 C  
BRANCH  47  48
HETATM   48  C   UNL     1     -11.408  19.541  67.994  1.00  0.00     0.846 C  
BRANCH  48  49
HETATM   49  N   UNL     1     -10.004  19.212  67.895  1.00  0.00    -0.342 NA 
HETATM   50  C   UNL     1      -9.100  19.745  67.025  1.00  0.00    -0.340 A  
HETATM   51  N   UNL     1      -7.925  19.167  67.149  1.00  0.00    -0.256 NA 
HETATM   52  C   UNL     1      -8.085  18.215  68.130  1.00  0.00    -0.281 A  
HETATM   53  C   UNL     1      -9.366  18.258  68.628  1.00  0.00    -0.303 A  
BRANCH  52  54
HETATM   54  C   UNL     1      -7.030  17.311  68.533  1.00  0.00    -0.209 A  
HETATM   55  C   UNL     1      -6.268  16.634  67.578  1.00  0.00    -0.187 A  
HETATM   56  C   UNL     1      -5.305  15.717  67.992  1.00  0.00    -0.131 A  
HETATM   57  C   UNL     1      -5.139  15.493  69.351  1.00  0.00    -0.093 A  
HETATM   58  N   UNL     1      -5.817  16.157  70.308  1.00  0.00    -0.159 NA 
HETATM   59  C   UNL     1      -6.747  17.045  69.871  1.00  0.00     0.237 A  
ENDBRANCH  52  54
ENDBRANCH  48  49
ENDBRANCH  47  48
ENDBRANCH  46  47
ENDBRANCH  45  46
ENDBRANCH  20  45
TORSDOF 10
ENDMDL
MODEL       47
REMARK 921   NORMALIZED FREE ENERGY PREDICTED BY IDOCK:   24.63 KCAL/MOL
REMARK 922        TOTAL FREE ENERGY PREDICTED BY IDOCK:   39.43 KCAL/MOL
REMARK 923 INTER-LIGAND FREE ENERGY PREDICTED BY IDOCK:   -6.51 KCAL/MOL
REMARK 924 INTRA-LIGAND FREE ENERGY PREDICTED BY IDOCK:   45.94 KCAL/MOL
REMARK 927      BINDING AFFINITY PREDICTED BY RF-SCORE:    0.00 PKD
ROOT
HETATM    1  C   UNL     1      -6.488   9.304  68.715  1.00  0.00    -0.048 C  
HETATM    2  C   UNL     1      -6.916   8.418  70.047  1.00  0.00    -0.043 C  
HETATM    3  C   UNL     1      -6.388   6.962  70.366  1.00  0.00    -0.039 C  
HETATM    4  C   UNL     1      -8.067   8.856  70.997  1.00  0.00    -0.205 C  
HETATM    5  C   UNL     1      -7.275   5.696  70.527  1.00  0.00    -0.074 C  
HETATM    6  O   UNL     1      -5.183   6.823  70.633  1.00  0.00    -0.018 OA 
HETATM    7  C   UNL     1      -6.647   4.473  69.626  1.00  0.00    -0.033 C  
HETATM    8  C   UNL     1      -8.758   6.027  70.519  1.00  0.00    -0.138 C  
HETATM    9  C   UNL     1      -7.629   3.207  69.304  1.00  0.00    -0.047 C  
HETATM   10  C   UNL     1      -8.371   3.731  67.948  1.00  0.00    -0.092 C  
HETATM   11  O   UNL     1      -8.164   3.094  70.665  1.00  0.00    -0.055 OA 
HETATM   12  C   UNL     1      -7.567   1.696  68.987  1.00  0.00    -0.042 C  
HETATM   13  C   UNL     1      -7.178   2.526  71.600  1.00  0.00    -0.035 C  
HETATM   14  C   UNL     1      -7.647   8.603  66.201  1.00  0.00    -0.093 C  
HETATM   15  C   UNL     1      -8.385   3.219  66.440  1.00  0.00    -0.099 C  
HETATM   16  C   UNL     1      -9.421   2.187  66.005  1.00  0.00     0.212 C  
HETATM   17  O   UNL     1      -5.327  12.343  67.874  1.00  0.00    -0.065 OA 
HETATM   18  C   UNL     1      -8.530   4.470  65.519  1.00  0.00    -0.121 C  
HETATM   19  O   UNL     1      -9.592   4.710  64.932  1.00  0.00    -0.144 OA 
HETATM   20  N   UNL     1      -6.622  10.759  69.013  1.00  0.00    -0.053 N  
HETATM   21  C   UNL     1      -7.358   5.447  65.449  1.00  0.00    -0.069 C  
HETATM   22  C   UNL     1      -7.593   6.692  64.644  1.00  0.00    -0.105 C  
HETATM   23  C   UNL     1      -6.065   4.799  64.967  1.00  0.00    -0.030 C  
HETATM   24  C   UNL     1      -6.065  11.379  67.903  1.00  0.00    -0.050 C  
HETATM   25  O   UNL     1      -6.610  10.777  66.818  1.00  0.00    -0.088 OA 
HETATM   26  C   UNL     1      -5.136   9.193  66.334  1.00  0.00    -0.036 C  
HETATM   27  O   UNL     1      -8.022   6.749  63.490  1.00  0.00    -0.119 OA 
HETATM   28  O   UNL     1      -6.942   7.728  65.244  1.00  0.00    -0.057 OA 
HETATM   29  C   UNL     1      -6.530   9.328  67.060  1.00  0.00    -0.067 C  
ENDROOT
BRANCH  10  30
HETATM   30  O   UNL     1      -9.236   4.788  68.185  1.00  0.00    -0.113 OA 
BRANCH  30  31
HETATM   31  C   UNL     1      -9.282   5.907  67.323  1.00  0.00    -0.113 C  
HETATM   32  C   UNL     1     -10.514   6.868  67.528  1.00  0.00    -0.247 C  
HETATM   33  C   UNL     1     -10.147   8.339  67.179  1.00  0.00    -0.264 C  
HETATM   34  O   UNL     1      -7.996   6.387  67.628  1.00  0.00    -0.111 OA 
HETATM   35  C   UNL     1      -7.661   7.732  67.485  1.00  0.00    -0.117 C  
HETATM   36  H   UNL     1     -12.349   6.976  66.831  1.00  0.00     0.000 HD 
HETATM   37  C   UNL     1      -8.786   8.703  67.789  1.00  0.00    -0.137 C  
HETATM   38  O   UNL     1     -11.607   6.396  66.707  1.00  0.00     0.048 OA 
HETATM   39  C   UNL     1      -6.526   7.924  68.497  1.00  0.00    -0.053 C  
BRANCH  33  40
HETATM   40  N   UNL     1     -11.104   9.457  67.416  1.00  0.00     0.018 NA 
HETATM   41  C   UNL     1     -11.323  10.476  66.392  1.00  0.00     0.574 C  
HETATM   42  C   UNL     1     -11.108  10.073  68.736  1.00  0.00    -0.173 C  
ENDBRANCH  33  40
ENDBRANCH  30  31
ENDBRANCH  10  30
BRANCH  14  43
HETATM   43  C   UNL     1      -8.501   9.478  65.244  1.00  0.00    -0.159 C  
HETATM   44  C   UNL     1      -7.943   9.776  63.872  1.00  0.00    -0.146 C  
ENDBRANCH  14  43
BRANCH  20  45
HETATM   45  C   UNL     1      -7.970  11.318  69.181  1.00  0.00     0.003 C  
BRANCH  45  46
HETATM   46  C   UNL     1      -8.099  12.758  68.683  1.00  0.00    -0.007 C  
BRANCH  46  47
HETATM   47  C   UNL     1      -9.352  12.983  67.837  1.00  0.00    -0.212 C  
BRANCH  47  48
HETATM   48  C   UNL     1      -9.003  13.482  66.441  1.00  0.00     0.034 C  
BRANCH  48  49
HETATM   49  N   UNL     1      -9.485  14.826  66.219  1.00  0.00    -0.299 NA 
HETATM   50  C   UNL     1     -10.320  15.240  65.224  1.00  0.00    -0.401 A  
HETATM   51  N   UNL     1     -10.497  16.542  65.265  1.00  0.00    -0.637 NA 
HETATM   52  C   UNL     1      -9.734  16.985  66.321  1.00  0.00    -0.283 A  
HETATM   53  C   UNL     1      -9.128  15.920  66.947  1.00  0.00    -0.231 A  
BRANCH  52  54
HETATM   54  C   UNL     1      -9.607  18.382  66.675  1.00  0.00    -0.320 A  
HETATM   55  C   UNL     1      -8.524  19.136  66.218  1.00  0.00    -0.311 A  
HETATM   56  C   UNL     1      -8.388  20.460  66.629  1.00  0.00    -0.231 A  
HETATM   57  C   UNL     1      -9.333  20.990  67.495  1.00  0.00    -0.054 A  
HETATM   58  N   UNL     1     -10.418  20.314  67.923  1.00  0.00    -0.257 NA 
HETATM   59  C   UNL     1     -10.522  19.027  67.503  1.00  0.00    -0.454 A  
ENDBRANCH  52  54
ENDBRANCH  48  49
ENDBRANCH  47  48
ENDBRANCH  46  47
ENDBRANCH  45  46
ENDBRANCH  20  45
TORSDOF 10
ENDMDL
MODEL       48
REMARK 921   NORMALIZED FREE ENERGY PREDICTED BY IDOCK:   25.49 KCAL/MOL
REMARK 922        TOTAL FREE ENERGY PREDICTED BY IDOCK:   40.78 KCAL/MOL
REMARK 923 INTER-LIGAND FREE ENERGY PREDICTED BY IDOCK:   25.20 KCAL/MOL
REMARK 924 INTRA-LIGAND FREE ENERGY PREDICTED BY IDOCK:   15.58 KCAL/MOL
REMARK 927      BINDING AFFINITY PREDICTED BY RF-SCORE:    0.00 PKD
ROOT
HETATM    1  C   UNL     1      -8.688  10.665  71.004  1.00  0.00     3.804 C  
HETATM    2  C   UNL     1      -7.373  11.623  70.697  1.00  0.00     2.898 C  
HETATM    3  C   UNL     1      -7.258  13.148  71.100  1.00  0.00     4.304 C  
HETATM    4  C   UNL     1      -6.211  11.163  69.771  1.00  0.00    -0.119 C  
HETATM    5  C   UNL     1      -7.046  14.329  70.112  1.00  0.00     0.243 C  
HETATM    6  O   UNL     1      -7.211  13.431  72.308  1.00  0.00     4.415 OA 
HETATM    7  C   UNL     1      -8.129  15.519  70.442  1.00  0.00     1.162 C  
HETATM    8  C   UNL     1      -6.776  13.852  68.694  1.00  0.00    -0.098 C  
HETATM    9  C   UNL     1      -8.374  16.645  69.284  1.00  0.00    -0.019 C  
HETATM   10  C   UNL     1      -9.541  15.925  68.398  1.00  0.00    -0.208 C  
HETATM   11  O   UNL     1      -6.955  16.831  68.965  1.00  0.00    -0.196 OA 
HETATM   12  C   UNL     1      -8.809  18.119  69.121  1.00  0.00     0.107 C  
HETATM   13  C   UNL     1      -6.245  17.579  70.017  1.00  0.00    -0.022 C  
HETATM   14  C   UNL     1     -11.014  11.009  69.384  1.00  0.00    -0.248 C  
HETATM   15  C   UNL     1     -11.059  16.291  68.084  1.00  0.00    -0.329 C  
HETATM   16  C   UNL     1     -11.388  17.170  66.881  1.00  0.00     0.709 C  
HETATM   17  O   UNL     1      -9.482   7.692  72.354  1.00  0.00    -0.149 OA 
HETATM   18  C   UNL     1     -11.845  14.952  67.937  1.00  0.00    -0.259 C  
HETATM   19  O   UNL     1     -12.223  14.553  66.829  1.00  0.00    -0.376 OA 
HETATM   20  N   UNL     1      -8.263   9.237  71.087  1.00  0.00    -0.086 N  
HETATM   21  C   UNL     1     -12.040  14.095  69.186  1.00  0.00    -0.362 C  
HETATM   22  C   UNL     1     -12.697  12.763  68.969  1.00  0.00     0.998 C  
HETATM   23  C   UNL     1     -12.781  14.821  70.303  1.00  0.00    -0.324 C  
HETATM   24  C   UNL     1      -9.402   8.576  71.525  1.00  0.00    -0.222 C  
HETATM   25  O   UNL     1     -10.420   9.017  70.747  1.00  0.00    -0.209 OA 
HETATM   26  C   UNL     1     -11.265  10.688  71.934  1.00  0.00     2.401 C  
HETATM   27  O   UNL     1     -13.753  12.556  68.369  1.00  0.00     5.126 OA 
HETATM   28  O   UNL     1     -12.140  11.857  69.822  1.00  0.00    -0.290 OA 
HETATM   29  C   UNL     1     -10.305  10.482  70.699  1.00  0.00     0.683 C  
ENDROOT
BRANCH  10  30
HETATM   30  O   UNL     1      -9.082  14.814  67.709  1.00  0.00    -0.180 OA 
BRANCH  30  31
HETATM   31  C   UNL     1      -8.060  14.922  66.739  1.00  0.00     0.027 C  
HETATM   32  C   UNL     1      -7.614  16.392  66.388  1.00  0.00    -0.158 C  
HETATM   33  C   UNL     1      -6.111  16.445  65.986  1.00  0.00     1.779 C  
HETATM   34  O   UNL     1      -7.143  14.077  67.389  1.00  0.00    -0.180 OA 
HETATM   35  C   UNL     1      -5.769  14.190  67.185  1.00  0.00     0.906 C  
HETATM   36  H   UNL     1      -8.185  17.772  65.109  1.00  0.00     0.000 HD 
HETATM   37  C   UNL     1      -5.274  15.606  66.962  1.00  0.00     0.550 C  
HETATM   38  O   UNL     1      -8.454  16.886  65.320  1.00  0.00     0.498 OA 
HETATM   39  C   UNL     1      -5.173  13.634  68.484  1.00  0.00    -0.089 C  
BRANCH  33  40
HETATM   40  N   UNL     1      -5.418  17.742  65.736  1.00  0.00    -0.180 NA 
HETATM   41  C   UNL     1      -5.614  18.873  66.639  1.00  0.00    -0.153 C  
HETATM   42  C   UNL     1      -5.345  18.213  64.360  1.00  0.00     0.214 C  
ENDBRANCH  33  40
ENDBRANCH  30  31
ENDBRANCH  10  30
BRANCH  14  43
HETATM   43  C   UNL     1     -11.744   9.967  68.492  1.00  0.00     0.288 C  
HETATM   44  C   UNL     1     -10.920   9.200  67.484  1.00  0.00    -0.010 C  
ENDBRANCH  14  43
BRANCH  20  45
HETATM   45  C   UNL     1      -7.827   8.565  69.855  1.00  0.00    -0.096 C  
BRANCH  45  46
HETATM   46  C   UNL     1      -7.799   7.040  69.972  1.00  0.00    -0.113 C  
BRANCH  46  47
HETATM   47  C   UNL     1      -6.387   6.464  69.863  1.00  0.00    -0.039 C  
BRANCH  47  48
HETATM   48  C   UNL     1      -5.862   6.535  68.435  1.00  0.00    -0.020 C  
BRANCH  48  49
HETATM   49  N   UNL     1      -6.504   5.560  67.583  1.00  0.00    -0.049 NA 
HETATM   50  C   UNL     1      -6.365   4.205  67.643  1.00  0.00    -0.037 A  
HETATM   51  N   UNL     1      -7.027   3.617  66.671  1.00  0.00    -0.057 NA 
HETATM   52  C   UNL     1      -7.605   4.638  65.949  1.00  0.00    -0.090 A  
HETATM   53  C   UNL     1      -7.317   5.851  66.530  1.00  0.00    -0.078 A  
BRANCH  52  54
HETATM   54  C   UNL     1      -8.383   4.416  64.750  1.00  0.00    -0.109 A  
HETATM   55  C   UNL     1      -7.862   4.736  63.494  1.00  0.00    -0.081 A  
HETATM   56  C   UNL     1      -8.657   4.578  62.361  1.00  0.00    -0.102 A  
HETATM   57  C   UNL     1      -9.955   4.115  62.517  1.00  0.00    -0.144 A  
HETATM   58  N   UNL     1     -10.482   3.749  63.702  1.00  0.00    -0.241 NA 
HETATM   59  C   UNL     1      -9.682   3.913  64.786  1.00  0.00    -0.187 A  
ENDBRANCH  52  54
ENDBRANCH  48  49
ENDBRANCH  47  48
ENDBRANCH  46  47
ENDBRANCH  45  46
ENDBRANCH  20  45
TORSDOF 10
ENDMDL
MODEL       49
REMARK 921   NORMALIZED FREE ENERGY PREDICTED BY IDOCK:   33.37 KCAL/MOL
REMARK 922        TOTAL FREE ENERGY PREDICTED BY IDOCK:   53.27 KCAL/MOL
REMARK 923 INTER-LIGAND FREE ENERGY PREDICTED BY IDOCK:   45.25 KCAL/MOL
REMARK 924 INTRA-LIGAND FREE ENERGY PREDICTED BY IDOCK:    8.03 KCAL/MOL
REMARK 927      BINDING AFFINITY PREDICTED BY RF-SCORE:    0.00 PKD
ROOT
HETATM    1  C   UNL     1      -7.924   5.989  67.323  1.00  0.00    -0.102 C  
HETATM    2  C   UNL     1      -6.765   6.282  68.468  1.00  0.00    -0.064 C  
HETATM    3  C   UNL     1      -6.255   5.221  69.525  1.00  0.00    -0.026 C  
HETATM    4  C   UNL     1      -6.230   7.714  68.757  1.00  0.00    -0.036 C  
HETATM    5  C   UNL     1      -6.340   5.373  71.069  1.00  0.00    -0.034 C  
HETATM    6  O   UNL     1      -5.626   4.236  69.106  1.00  0.00    -0.015 OA 
HETATM    7  C   UNL     1      -6.967   4.000  71.719  1.00  0.00    -0.037 C  
HETATM    8  C   UNL     1      -6.816   6.756  71.486  1.00  0.00    -0.066 C  
HETATM    9  C   UNL     1      -7.540   4.094  73.246  1.00  0.00    -0.080 C  
HETATM   10  C   UNL     1      -9.074   4.580  72.970  1.00  0.00    -0.119 C  
HETATM   11  O   UNL     1      -6.408   4.864  73.774  1.00  0.00    -0.055 OA 
HETATM   12  C   UNL     1      -7.778   3.210  74.492  1.00  0.00    -0.057 C  
HETATM   13  C   UNL     1      -5.198   4.037  73.919  1.00  0.00    -0.003 C  
HETATM   14  C   UNL     1     -10.652   5.887  68.162  1.00  0.00    -0.244 C  
HETATM   15  C   UNL     1     -10.496   3.913  73.229  1.00  0.00    -0.256 C  
HETATM   16  C   UNL     1     -11.200   4.135  74.565  1.00  0.00     0.754 C  
HETATM   17  O   UNL     1      -8.453   6.291  64.019  1.00  0.00     0.027 OA 
HETATM   18  C   UNL     1     -11.453   4.387  72.091  1.00  0.00     0.864 C  
HETATM   19  O   UNL     1     -12.346   5.214  72.313  1.00  0.00     0.491 OA 
HETATM   20  N   UNL     1      -7.724   6.900  66.159  1.00  0.00    -0.089 N  
HETATM   21  C   UNL     1     -11.186   3.884  70.675  1.00  0.00     3.840 C  
HETATM   22  C   UNL     1     -12.060   4.462  69.600  1.00  0.00    11.153 C  
HETATM   23  C   UNL     1     -11.225   2.364  70.561  1.00  0.00     5.118 C  
HETATM   24  C   UNL     1      -8.626   6.432  65.213  1.00  0.00    -0.044 C  
HETATM   25  O   UNL     1      -9.808   6.278  65.857  1.00  0.00     0.085 OA 
HETATM   26  C   UNL     1      -9.766   4.148  66.471  1.00  0.00    -0.228 C  
HETATM   27  O   UNL     1     -13.290   4.517  69.606  1.00  0.00    17.289 OA 
HETATM   28  O   UNL     1     -11.318   4.605  68.465  1.00  0.00     2.323 OA 
HETATM   29  C   UNL     1      -9.511   5.568  67.110  1.00  0.00    -0.122 C  
ENDROOT
BRANCH  10  30
HETATM   30  O   UNL     1      -9.146   5.879  72.493  1.00  0.00    -0.137 OA 
BRANCH  30  31
HETATM   31  C   UNL     1     -10.359   6.415  72.003  1.00  0.00    -0.197 C  
HETATM   32  C   UNL     1     -11.128   7.365  72.998  1.00  0.00    -0.343 C  
HETATM   33  C   UNL     1     -11.927   8.458  72.231  1.00  0.00    -0.389 C  
HETATM   34  O   UNL     1      -9.818   6.967  70.829  1.00  0.00    -0.185 OA 
HETATM   35  C   UNL     1     -10.409   8.054  70.189  1.00  0.00    -0.215 C  
HETATM   36  H   UNL     1     -12.469   7.132  74.418  1.00  0.00     0.000 HD 
HETATM   37  C   UNL     1     -11.061   9.061  71.117  1.00  0.00    -0.371 C  
HETATM   38  O   UNL     1     -12.005   6.559  73.818  1.00  0.00     1.519 OA 
HETATM   39  C   UNL     1      -9.235   8.714  69.455  1.00  0.00    -0.150 C  
BRANCH  33  40
HETATM   40  N   UNL     1     -12.632   9.557  72.952  1.00  0.00     0.299 NA 
HETATM   41  C   UNL     1     -14.080   9.509  73.141  1.00  0.00     0.941 C  
HETATM   42  C   UNL     1     -12.213  10.923  72.675  1.00  0.00     2.933 C  
ENDBRANCH  33  40
ENDBRANCH  30  31
ENDBRANCH  10  30
BRANCH  14  43
HETATM   43  C   UNL     1     -11.852   6.751  67.685  1.00  0.00     1.450 C  
HETATM   44  C   UNL     1     -11.550   8.013  66.912  1.00  0.00     2.592 C  
ENDBRANCH  14  43
BRANCH  20  45
HETATM   45  C   UNL     1      -7.998   8.332  66.337  1.00  0.00    -0.096 C  
BRANCH  45  46
HETATM   46  C   UNL     1      -8.670   8.979  65.123  1.00  0.00    -0.223 C  
BRANCH  46  47
HETATM   47  C   UNL     1      -8.756  10.501  65.236  1.00  0.00    -0.200 C  
BRANCH  47  48
HETATM   48  C   UNL     1      -8.632  10.963  66.682  1.00  0.00    -0.148 C  
BRANCH  48  49
HETATM   49  N   UNL     1      -9.389  12.171  66.922  1.00  0.00    -0.197 NA 
HETATM   50  C   UNL     1      -9.707  13.130  66.006  1.00  0.00    -0.226 A  
HETATM   51  N   UNL     1     -10.338  14.135  66.573  1.00  0.00    -0.279 NA 
HETATM   52  C   UNL     1     -10.415  13.815  67.909  1.00  0.00    -0.246 A  
HETATM   53  C   UNL     1      -9.861  12.576  68.132  1.00  0.00    -0.221 A  
BRANCH  52  54
HETATM   54  C   UNL     1     -10.994  14.695  68.901  1.00  0.00    -0.264 A  
HETATM   55  C   UNL     1     -10.694  16.059  68.903  1.00  0.00    -0.275 A  
HETATM   56  C   UNL     1     -11.209  16.873  69.910  1.00  0.00     0.301 A  
HETATM   57  C   UNL     1     -11.999  16.297  70.894  1.00  0.00    -0.065 A  
HETATM   58  N   UNL     1     -12.352  14.997  70.904  1.00  0.00    -0.306 NA 
HETATM   59  C   UNL     1     -11.836  14.231  69.909  1.00  0.00    -0.322 A  
ENDBRANCH  52  54
ENDBRANCH  48  49
ENDBRANCH  47  48
ENDBRANCH  46  47
ENDBRANCH  45  46
ENDBRANCH  20  45
TORSDOF 10
ENDMDL
MODEL       50
REMARK 921   NORMALIZED FREE ENERGY PREDICTED BY IDOCK:   37.47 KCAL/MOL
REMARK 922        TOTAL FREE ENERGY PREDICTED BY IDOCK:   59.78 KCAL/MOL
REMARK 923 INTER-LIGAND FREE ENERGY PREDICTED BY IDOCK:   53.02 KCAL/MOL
REMARK 924 INTRA-LIGAND FREE ENERGY PREDICTED BY IDOCK:    6.76 KCAL/MOL
REMARK 927      BINDING AFFINITY PREDICTED BY RF-SCORE:    0.00 PKD
ROOT
HETATM    1  C   UNL     1     -10.029   5.119  68.139  1.00  0.00    -0.145 C  
HETATM    2  C   UNL     1     -11.042   6.157  68.938  1.00  0.00    -0.417 C  
HETATM    3  C   UNL     1     -12.185   7.006  68.248  1.00  0.00     3.231 C  
HETATM    4  C   UNL     1     -10.809   6.564  70.420  1.00  0.00    -0.326 C  
HETATM    5  C   UNL     1     -12.284   8.557  68.255  1.00  0.00     4.482 C  
HETATM    6  O   UNL     1     -13.152   6.399  67.762  1.00  0.00     8.202 OA 
HETATM    7  C   UNL     1     -12.560   9.093  66.726  1.00  0.00    11.347 C  
HETATM    8  C   UNL     1     -11.244   9.197  69.160  1.00  0.00     0.147 C  
HETATM    9  C   UNL     1     -12.275  10.674  66.428  1.00  0.00     3.684 C  
HETATM   10  C   UNL     1     -10.687  10.633  66.052  1.00  0.00    -0.057 C  
HETATM   11  O   UNL     1     -12.922  11.166  67.649  1.00  0.00     2.830 OA 
HETATM   12  C   UNL     1     -12.726  11.815  65.489  1.00  0.00     1.931 C  
HETATM   13  C   UNL     1     -14.391  11.069  67.573  1.00  0.00    19.581 C  
HETATM   14  C   UNL     1      -7.912   6.236  66.581  1.00  0.00    -0.108 C  
HETATM   15  C   UNL     1      -9.868  10.962  64.727  1.00  0.00    -0.343 C  
HETATM   16  C   UNL     1      -9.376  12.385  64.479  1.00  0.00     0.456 C  
HETATM   17  O   UNL     1      -8.895   1.960  68.287  1.00  0.00    -0.078 OA 
HETATM   18  C   UNL     1      -8.634  10.007  64.687  1.00  0.00    -0.181 C  
HETATM   19  O   UNL     1      -7.494  10.430  64.910  1.00  0.00    -0.137 OA 
HETATM   20  N   UNL     1      -9.545   4.066  69.077  1.00  0.00    -0.173 N  
HETATM   21  C   UNL     1      -8.889   8.517  64.470  1.00  0.00     0.119 C  
HETATM   22  C   UNL     1      -7.682   7.629  64.559  1.00  0.00    -0.126 C  
HETATM   23  C   UNL     1      -9.614   8.216  63.163  1.00  0.00     3.099 C  
HETATM   24  C   UNL     1      -8.870   3.173  68.256  1.00  0.00    -0.121 C  
HETATM   25  O   UNL     1      -8.054   3.921  67.472  1.00  0.00    -0.089 OA 
HETATM   26  C   UNL     1      -9.276   4.250  65.652  1.00  0.00    -0.148 C  
HETATM   27  O   UNL     1      -6.616   7.779  63.961  1.00  0.00    -0.056 OA 
HETATM   28  O   UNL     1      -8.053   6.446  65.127  1.00  0.00    -0.127 OA 
HETATM   29  C   UNL     1      -8.869   5.032  66.960  1.00  0.00    -0.106 C  
ENDROOT
BRANCH  10  30
HETATM   30  O   UNL     1      -9.886  10.336  67.143  1.00  0.00    -0.173 OA 
BRANCH  30  31
HETATM   31  C   UNL     1      -9.595  11.308  68.127  1.00  0.00    -0.186 C  
HETATM   32  C   UNL     1      -9.626  12.804  67.631  1.00  0.00    -0.192 C  
HETATM   33  C   UNL     1     -10.066  13.768  68.771  1.00  0.00    -0.136 C  
HETATM   34  O   UNL     1     -10.567  10.885  69.051  1.00  0.00    -0.195 OA 
HETATM   35  C   UNL     1     -11.113  11.755  69.992  1.00  0.00     0.233 C  
HETATM   36  H   UNL     1      -8.333  14.053  66.835  1.00  0.00     0.000 HD 
HETATM   37  C   UNL     1     -11.275  13.186  69.517  1.00  0.00    -0.151 C  
HETATM   38  O   UNL     1      -8.314  13.151  67.134  1.00  0.00    -0.181 OA 
HETATM   39  C   UNL     1     -12.492  11.147  70.277  1.00  0.00    -0.354 C  
BRANCH  33  40
HETATM   40  N   UNL     1     -10.300  15.218  68.516  1.00  0.00    -0.227 NA 
HETATM   41  C   UNL     1     -11.312  15.950  69.273  1.00  0.00    -0.355 C  
HETATM   42  C   UNL     1     -10.294  15.669  67.132  1.00  0.00    -0.285 C  
ENDBRANCH  33  40
ENDBRANCH  30  31
ENDBRANCH  10  30
BRANCH  14  43
HETATM   43  C   UNL     1      -6.381   6.009  66.711  1.00  0.00    -0.041 C  
HETATM   44  C   UNL     1      -5.822   4.684  66.249  1.00  0.00    -0.022 C  
ENDBRANCH  14  43
BRANCH  20  45
HETATM   45  C   UNL     1      -8.611   4.454  70.143  1.00  0.00    -0.073 C  
BRANCH  45  46
HETATM   46  C   UNL     1      -7.146   4.444  69.701  1.00  0.00    -0.050 C  
BRANCH  46  47
HETATM   47  C   UNL     1      -6.278   5.409  70.509  1.00  0.00    -0.026 C  
BRANCH  47  48
HETATM   48  C   UNL     1      -7.126   6.377  71.324  1.00  0.00    -0.077 C  
BRANCH  48  49
HETATM   49  N   UNL     1      -6.502   7.677  71.426  1.00  0.00    -0.038 NA 
HETATM   50  C   UNL     1      -5.903   8.209  72.529  1.00  0.00    -0.048 A  
HETATM   51  N   UNL     1      -5.506   9.443  72.303  1.00  0.00    -0.127 NA 
HETATM   52  C   UNL     1      -5.878   9.718  71.007  1.00  0.00    -0.082 A  
HETATM   53  C   UNL     1      -6.466   8.612  70.438  1.00  0.00    -0.036 A  
BRANCH  52  54
HETATM   54  C   UNL     1      -5.672  11.006  70.381  1.00  0.00    -0.130 A  
HETATM   55  C   UNL     1      -5.277  12.110  71.140  1.00  0.00    -0.123 A  
HETATM   56  C   UNL     1      -5.153  13.354  70.526  1.00  0.00    -0.107 A  
HETATM   57  C   UNL     1      -5.439  13.462  69.173  1.00  0.00    -0.074 A  
HETATM   58  N   UNL     1      -5.776  12.416  68.394  1.00  0.00    -0.054 NA 
HETATM   59  C   UNL     1      -5.887  11.217  69.021  1.00  0.00    -0.041 A  
ENDBRANCH  52  54
ENDBRANCH  48  49
ENDBRANCH  47  48
ENDBRANCH  46  47
ENDBRANCH  45  46
ENDBRANCH  20  45
TORSDOF 10
ENDMDL
MODEL       51
REMARK 921   NORMALIZED FREE ENERGY PREDICTED BY IDOCK:   39.87 KCAL/MOL
REMARK 922        TOTAL FREE ENERGY PREDICTED BY IDOCK:   63.58 KCAL/MOL
REMARK 923 INTER-LIGAND FREE ENERGY PREDICTED BY IDOCK:    5.53 KCAL/MOL
REMARK 924 INTRA-LIGAND FREE ENERGY PREDICTED BY IDOCK:   58.06 KCAL/MOL
REMARK 927      BINDING AFFINITY PREDICTED BY RF-SCORE:    0.00 PKD
ROOT
HETATM    1  C   UNL     1      -7.140   7.410  69.473  1.00  0.00    -0.069 C  
HETATM    2  C   UNL     1      -6.436   8.597  68.558  1.00  0.00    -0.055 C  
HETATM    3  C   UNL     1      -6.259  10.100  69.018  1.00  0.00    -0.043 C  
HETATM    4  C   UNL     1      -6.088   8.389  67.057  1.00  0.00    -0.055 C  
HETATM    5  C   UNL     1      -6.855  11.341  68.295  1.00  0.00    -0.064 C  
HETATM    6  O   UNL     1      -5.485  10.335  69.960  1.00  0.00    -0.040 OA 
HETATM    7  C   UNL     1      -7.602  12.306  69.395  1.00  0.00     0.458 C  
HETATM    8  C   UNL     1      -7.499  10.979  66.967  1.00  0.00    -0.127 C  
HETATM    9  C   UNL     1      -8.649  13.420  68.818  1.00  0.00     0.116 C  
HETATM   10  C   UNL     1     -10.025  12.543  68.756  1.00  0.00    -0.015 C  
HETATM   11  O   UNL     1      -7.789  13.866  67.717  1.00  0.00    -0.137 OA 
HETATM   12  C   UNL     1      -9.247  14.799  69.176  1.00  0.00    -0.089 C  
HETATM   13  C   UNL     1      -6.659  14.682  68.195  1.00  0.00    -0.134 C  
HETATM   14  C   UNL     1      -9.985   7.407  69.720  1.00  0.00    -0.188 C  
HETATM   15  C   UNL     1     -11.424  12.649  69.510  1.00  0.00    -0.294 C  
HETATM   16  C   UNL     1     -12.537  13.506  68.915  1.00  0.00     0.502 C  
HETATM   17  O   UNL     1      -6.562   4.289  70.576  1.00  0.00    -0.030 OA 
HETATM   18  C   UNL     1     -11.972  11.199  69.692  1.00  0.00    -0.359 C  
HETATM   19  O   UNL     1     -12.922  10.788  69.016  1.00  0.00     0.159 OA 
HETATM   20  N   UNL     1      -6.606   6.078  69.066  1.00  0.00    -0.049 N  
HETATM   21  C   UNL     1     -11.232  10.269  70.650  1.00  0.00    -0.406 C  
HETATM   22  C   UNL     1     -11.726   8.853  70.699  1.00  0.00    -0.179 C  
HETATM   23  C   UNL     1     -11.166  10.806  72.076  1.00  0.00     3.286 C  
HETATM   24  C   UNL     1      -7.125   5.208  70.015  1.00  0.00    -0.058 C  
HETATM   25  O   UNL     1      -8.446   5.495  70.113  1.00  0.00    -0.113 OA 
HETATM   26  C   UNL     1      -8.519   6.939  71.794  1.00  0.00    -0.115 C  
HETATM   27  O   UNL     1     -12.891   8.488  70.864  1.00  0.00    -0.051 OA 
HETATM   28  O   UNL     1     -10.659   8.024  70.879  1.00  0.00    -0.209 OA 
HETATM   29  C   UNL     1      -8.549   6.958  70.216  1.00  0.00    -0.140 C  
ENDROOT
BRANCH  10  30
HETATM   30  O   UNL     1      -9.992  11.561  67.780  1.00  0.00    -0.177 OA 
BRANCH  30  31
HETATM   31  C   UNL     1     -10.500  10.265  68.024  1.00  0.00    -0.196 C  
HETATM   32  C   UNL     1     -10.676   9.357  66.748  1.00  0.00    -0.059 C  
HETATM   33  C   UNL     1     -10.473   7.853  67.093  1.00  0.00    -0.344 C  
HETATM   34  O   UNL     1      -9.535   9.901  68.981  1.00  0.00    -0.166 OA 
HETATM   35  C   UNL     1      -9.200   8.569  69.216  1.00  0.00    -0.153 C  
HETATM   36  H   UNL     1     -12.098   9.043  65.427  1.00  0.00     0.000 HD 
HETATM   37  C   UNL     1      -9.239   7.678  67.989  1.00  0.00    -0.138 C  
HETATM   38  O   UNL     1     -11.992   9.590  66.196  1.00  0.00     3.757 OA 
HETATM   39  C   UNL     1      -7.763   8.654  69.745  1.00  0.00    -0.088 C  
BRANCH  33  40
HETATM   40  N   UNL     1     -10.460   6.806  66.032  1.00  0.00     0.623 NA 
HETATM   41  C   UNL     1     -11.526   5.809  65.960  1.00  0.00     1.340 C  
HETATM   42  C   UNL     1      -9.181   6.187  65.710  1.00  0.00     0.011 C  
ENDBRANCH  33  40
ENDBRANCH  30  31
ENDBRANCH  10  30
BRANCH  14  43
HETATM   43  C   UNL     1     -10.996   6.292  69.336  1.00  0.00    -0.440 C  
HETATM   44  C   UNL     1     -10.442   4.945  68.932  1.00  0.00     0.035 C  
ENDBRANCH  14  43
BRANCH  20  45
HETATM   45  C   UNL     1      -6.984   5.545  67.750  1.00  0.00    -0.066 C  
BRANCH  45  46
HETATM   46  C   UNL     1      -7.033   6.611  66.653  1.00  0.00    -0.067 C  
BRANCH  46  47
HETATM   47  C   UNL     1      -5.643   7.023  66.166  1.00  0.00    -0.026 C  
BRANCH  47  48
HETATM   48  C   UNL     1      -5.540   6.956  64.648  1.00  0.00    -0.032 C  
BRANCH  48  49
HETATM   49  N   UNL     1      -6.689   7.557  64.009  1.00  0.00    -0.052 NA 
HETATM   50  C   UNL     1      -7.282   7.152  62.850  1.00  0.00    -0.073 A  
HETATM   51  N   UNL     1      -8.257   7.966  62.507  1.00  0.00    -0.158 NA 
HETATM   52  C   UNL     1      -8.281   8.941  63.479  1.00  0.00    -0.177 A  
HETATM   53  C   UNL     1      -7.333   8.676  64.440  1.00  0.00    -0.103 A  
BRANCH  52  54
HETATM   54  C   UNL     1      -9.184  10.071  63.443  1.00  0.00    -0.317 A  
HETATM   55  C   UNL     1     -10.085  10.228  62.388  1.00  0.00     0.533 A  
HETATM   56  C   UNL     1     -10.895  11.360  62.341  1.00  0.00     1.354 A  
HETATM   57  C   UNL     1     -10.772  12.311  63.344  1.00  0.00    -0.391 A  
HETATM   58  N   UNL     1      -9.950  12.178  64.404  1.00  0.00    -0.248 NA 
HETATM   59  C   UNL     1      -9.176  11.062  64.421  1.00  0.00    -0.158 A  
ENDBRANCH  52  54
ENDBRANCH  48  49
ENDBRANCH  47  48
ENDBRANCH  46  47
ENDBRANCH  45  46
ENDBRANCH  20  45
TORSDOF 10
ENDMDL
MODEL       52
REMARK 921   NORMALIZED FREE ENERGY PREDICTED BY IDOCK:   43.29 KCAL/MOL
REMARK 922        TOTAL FREE ENERGY PREDICTED BY IDOCK:   69.00 KCAL/MOL
REMARK 923 INTER-LIGAND FREE ENERGY PREDICTED BY IDOCK:   31.79 KCAL/MOL
REMARK 924 INTRA-LIGAND FREE ENERGY PREDICTED BY IDOCK:   37.21 KCAL/MOL
REMARK 927      BINDING AFFINITY PREDICTED BY RF-SCORE:    0.00 PKD
ROOT
HETATM    1  C   UNL     1      -9.891  13.425  64.939  1.00  0.00    -0.016 C  
HETATM    2  C   UNL     1     -10.826  14.779  64.757  1.00  0.00    -0.395 C  
HETATM    3  C   UNL     1     -10.260  16.245  64.577  1.00  0.00     1.373 C  
HETATM    4  C   UNL     1     -12.366  14.758  64.978  1.00  0.00    -0.209 C  
HETATM    5  C   UNL     1     -10.543  17.444  65.525  1.00  0.00    -0.115 C  
HETATM    6  O   UNL     1      -9.638  16.507  63.535  1.00  0.00     6.873 OA 
HETATM    7  C   UNL     1      -9.126  18.188  65.900  1.00  0.00     0.180 C  
HETATM    8  C   UNL     1     -11.585  17.111  66.579  1.00  0.00     1.541 C  
HETATM    9  C   UNL     1      -9.128  19.182  67.197  1.00  0.00    -0.287 C  
HETATM   10  C   UNL     1      -8.809  18.122  68.396  1.00  0.00    -0.293 C  
HETATM   11  O   UNL     1     -10.393  19.846  66.863  1.00  0.00    -0.427 OA 
HETATM   12  C   UNL     1      -8.394  20.422  67.755  1.00  0.00    -0.220 C  
HETATM   13  C   UNL     1     -10.248  20.773  65.728  1.00  0.00     0.770 C  
HETATM   14  C   UNL     1      -8.637  12.982  67.466  1.00  0.00    -0.192 C  
HETATM   15  C   UNL     1      -7.595  17.954  69.413  1.00  0.00     0.199 C  
HETATM   16  C   UNL     1      -7.625  18.688  70.750  1.00  0.00     3.297 C  
HETATM   17  O   UNL     1      -9.509  10.337  63.670  1.00  0.00    -0.274 OA 
HETATM   18  C   UNL     1      -7.428  16.429  69.699  1.00  0.00     0.158 C  
HETATM   19  O   UNL     1      -7.765  15.944  70.786  1.00  0.00     1.739 OA 
HETATM   20  N   UNL     1     -10.642  12.227  64.463  1.00  0.00    -0.293 N  
HETATM   21  C   UNL     1      -6.938  15.537  68.561  1.00  0.00    -0.114 C  
HETATM   22  C   UNL     1      -6.908  14.064  68.852  1.00  0.00    -0.108 C  
HETATM   23  C   UNL     1      -5.572  15.948  68.021  1.00  0.00    -0.133 C  
HETATM   24  C   UNL     1      -9.698  11.210  64.494  1.00  0.00    -0.265 C  
HETATM   25  O   UNL     1      -9.092  11.290  65.703  1.00  0.00    -0.209 OA 
HETATM   26  C   UNL     1      -7.317  12.553  65.289  1.00  0.00     4.656 C  
HETATM   27  O   UNL     1      -6.386  13.519  69.826  1.00  0.00    -0.122 OA 
HETATM   28  O   UNL     1      -7.240  13.389  67.716  1.00  0.00    -0.121 OA 
HETATM   29  C   UNL     1      -8.759  12.707  65.911  1.00  0.00     0.594 C  
ENDROOT
BRANCH  10  30
HETATM   30  O   UNL     1      -9.856  17.246  68.630  1.00  0.00    -0.283 OA 
BRANCH  30  31
HETATM   31  C   UNL     1      -9.671  16.065  69.384  1.00  0.00    -0.248 C  
HETATM   32  C   UNL     1     -10.836  15.714  70.387  1.00  0.00    -0.340 C  
HETATM   33  C   UNL     1     -10.977  14.175  70.571  1.00  0.00     0.504 C  
HETATM   34  O   UNL     1      -9.451  15.216  68.284  1.00  0.00    -0.193 OA 
HETATM   35  C   UNL     1      -9.716  13.850  68.347  1.00  0.00    -0.226 C  
HETATM   36  H   UNL     1     -11.269  16.154  72.253  1.00  0.00     0.000 HD 
HETATM   37  C   UNL     1     -10.905  13.471  69.208  1.00  0.00    -0.107 C  
HETATM   38  O   UNL     1     -10.567  16.365  71.649  1.00  0.00     1.106 OA 
HETATM   39  C   UNL     1      -9.996  13.476  66.887  1.00  0.00    -0.256 C  
BRANCH  33  40
HETATM   40  N   UNL     1     -12.091  13.586  71.368  1.00  0.00    -0.034 NA 
HETATM   41  C   UNL     1     -13.477  13.749  70.938  1.00  0.00     0.072 C  
HETATM   42  C   UNL     1     -12.008  13.684  72.818  1.00  0.00     1.512 C  
ENDBRANCH  33  40
ENDBRANCH  30  31
ENDBRANCH  10  30
BRANCH  14  43
HETATM   43  C   UNL     1      -8.780  11.770  68.426  1.00  0.00    -0.155 C  
HETATM   44  C   UNL     1      -8.992  12.053  69.895  1.00  0.00     2.612 C  
ENDBRANCH  14  43
BRANCH  20  45
HETATM   45  C   UNL     1     -11.792  11.764  65.250  1.00  0.00     0.024 C  
BRANCH  45  46
HETATM   46  C   UNL     1     -12.106  10.279  65.054  1.00  0.00     5.288 C  
BRANCH  46  47
HETATM   47  C   UNL     1     -10.942   9.371  65.449  1.00  0.00     2.681 C  
BRANCH  47  48
HETATM   48  C   UNL     1     -11.409   8.203  66.308  1.00  0.00     3.298 C  
BRANCH  48  49
HETATM   49  N   UNL     1     -10.503   7.953  67.406  1.00  0.00    -0.279 NA 
HETATM   50  C   UNL     1     -10.648   7.016  68.386  1.00  0.00    -0.202 A  
HETATM   51  N   UNL     1      -9.682   7.106  69.274  1.00  0.00    -0.159 NA 
HETATM   52  C   UNL     1      -8.893   8.153  68.854  1.00  0.00    -0.141 A  
HETATM   53  C   UNL     1      -9.373   8.664  67.672  1.00  0.00    -0.137 A  
BRANCH  52  54
HETATM   54  C   UNL     1      -7.741   8.621  69.595  1.00  0.00    -0.089 A  
HETATM   55  C   UNL     1      -7.893   9.193  70.860  1.00  0.00    -0.163 A  
HETATM   56  C   UNL     1      -6.777   9.699  71.522  1.00  0.00     0.267 A  
HETATM   57  C   UNL     1      -5.541   9.629  70.895  1.00  0.00    -0.066 A  
HETATM   58  N   UNL     1      -5.341   9.044  69.698  1.00  0.00    -0.034 NA 
HETATM   59  C   UNL     1      -6.448   8.560  69.079  1.00  0.00    -0.048 A  
ENDBRANCH  52  54
ENDBRANCH  48  49
ENDBRANCH  47  48
ENDBRANCH  46  47
ENDBRANCH  45  46
ENDBRANCH  20  45
TORSDOF 10
ENDMDL
MODEL       53
REMARK 921   NORMALIZED FREE ENERGY PREDICTED BY IDOCK:   43.29 KCAL/MOL
REMARK 922        TOTAL FREE ENERGY PREDICTED BY IDOCK:   69.00 KCAL/MOL
REMARK 923 INTER-LIGAND FREE ENERGY PREDICTED BY IDOCK:   -1.19 KCAL/MOL
REMARK 924 INTRA-LIGAND FREE ENERGY PREDICTED BY IDOCK:   70.19 KCAL/MOL
REMARK 927      BINDING AFFINITY PREDICTED BY RF-SCORE:    0.00 PKD
ROOT
HETATM    1  C   UNL     1     -11.124   9.293  69.170  1.00  0.00     0.024 C  
HETATM    2  C   UNL     1     -12.021  10.617  68.740  1.00  0.00    -0.069 C  
HETATM    3  C   UNL     1     -11.835  11.430  67.396  1.00  0.00     0.047 C  
HETATM    4  C   UNL     1     -12.984  11.323  69.736  1.00  0.00     0.410 C  
HETATM    5  C   UNL     1     -11.473  12.938  67.297  1.00  0.00    -0.388 C  
HETATM    6  O   UNL     1     -12.115  10.864  66.327  1.00  0.00     0.905 OA 
HETATM    7  C   UNL     1     -10.241  13.135  66.229  1.00  0.00    -0.294 C  
HETATM    8  C   UNL     1     -11.484  13.623  68.654  1.00  0.00    -0.342 C  
HETATM    9  C   UNL     1      -9.423  14.548  66.287  1.00  0.00    -0.283 C  
HETATM   10  C   UNL     1      -8.296  14.204  67.417  1.00  0.00    -0.197 C  
HETATM   11  O   UNL     1     -10.615  15.396  66.400  1.00  0.00    -0.295 OA 
HETATM   12  C   UNL     1      -8.594  15.489  65.385  1.00  0.00     1.903 C  
HETATM   13  C   UNL     1     -11.351  15.486  65.127  1.00  0.00    -0.241 C  
HETATM   14  C   UNL     1      -8.453   9.715  70.088  1.00  0.00    -0.204 C  
HETATM   15  C   UNL     1      -6.708  14.099  67.381  1.00  0.00     0.012 C  
HETATM   16  C   UNL     1      -5.865  15.344  67.643  1.00  0.00    -0.115 C  
HETATM   17  O   UNL     1     -11.502   6.130  70.241  1.00  0.00    -0.375 OA 
HETATM   18  C   UNL     1      -6.285  13.002  68.407  1.00  0.00    -0.081 C  
HETATM   19  O   UNL     1      -5.752  13.305  69.481  1.00  0.00    -0.083 OA 
HETATM   20  N   UNL     1     -11.911   8.431  70.099  1.00  0.00     0.295 N  
HETATM   21  C   UNL     1      -6.647  11.552  68.094  1.00  0.00    -0.057 C  
HETATM   22  C   UNL     1      -6.324  10.552  69.166  1.00  0.00    -0.051 C  
HETATM   23  C   UNL     1      -6.055  11.056  66.779  1.00  0.00    -0.104 C  
HETATM   24  C   UNL     1     -11.135   7.288  70.230  1.00  0.00    -0.266 C  
HETATM   25  O   UNL     1      -9.872   7.713  70.481  1.00  0.00    -0.183 OA 
HETATM   26  C   UNL     1      -8.957   7.772  68.463  1.00  0.00    -0.133 C  
HETATM   27  O   UNL     1      -5.241  10.411  69.735  1.00  0.00    -0.038 OA 
HETATM   28  O   UNL     1      -7.297   9.596  69.178  1.00  0.00    -0.072 OA 
HETATM   29  C   UNL     1      -9.587   8.775  69.505  1.00  0.00    -0.167 C  
ENDROOT
BRANCH  10  30
HETATM   30  O   UNL     1      -8.835  14.063  68.686  1.00  0.00    -0.175 OA 
BRANCH  30  31
HETATM   31  C   UNL     1      -8.938  15.164  69.566  1.00  0.00    -0.127 C  
HETATM   32  C   UNL     1      -8.395  16.533  69.005  1.00  0.00    -0.202 C  
HETATM   33  C   UNL     1      -9.181  17.738  69.599  1.00  0.00     0.831 C  
HETATM   34  O   UNL     1     -10.318  15.035  69.809  1.00  0.00    -0.222 OA 
HETATM   35  C   UNL     1     -11.101  16.123  70.189  1.00  0.00    -0.371 C  
HETATM   36  H   UNL     1      -6.659  17.454  68.973  1.00  0.00     0.000 HD 
HETATM   37  C   UNL     1     -10.688  17.448  69.577  1.00  0.00     0.212 C  
HETATM   38  O   UNL     1      -6.986  16.629  69.312  1.00  0.00    -0.223 OA 
HETATM   39  C   UNL     1     -12.501  15.741  69.695  1.00  0.00    -0.006 C  
BRANCH  33  40
HETATM   40  N   UNL     1      -8.943  19.131  69.125  1.00  0.00    -0.194 NA 
HETATM   41  C   UNL     1      -7.750  19.863  69.544  1.00  0.00     0.178 C  
HETATM   42  C   UNL     1     -10.086  20.032  69.077  1.00  0.00    -0.229 C  
ENDBRANCH  33  40
ENDBRANCH  30  31
ENDBRANCH  10  30
BRANCH  14  43
HETATM   43  C   UNL     1      -7.815   9.317  71.447  1.00  0.00     0.124 C  
HETATM   44  C   UNL     1      -7.804   7.853  71.821  1.00  0.00    -0.110 C  
ENDBRANCH  14  43
BRANCH  20  45
HETATM   45  C   UNL     1     -12.175   8.925  71.457  1.00  0.00    -0.327 C  
BRANCH  45  46
HETATM   46  C   UNL     1     -11.582  10.310  71.727  1.00  0.00     0.375 C  
BRANCH  46  47
HETATM   47  C   UNL     1     -10.315  10.579  70.915  1.00  0.00     1.110 C  
BRANCH  47  48
HETATM   48  C   UNL     1     -10.564  11.596  69.809  1.00  0.00     0.431 C  
BRANCH  48  49
HETATM   49  N   UNL     1      -9.798  11.290  68.622  1.00  0.00    -0.203 NA 
HETATM   50  C   UNL     1      -8.440  11.321  68.497  1.00  0.00    -0.156 A  
HETATM   51  N   UNL     1      -8.073  11.064  67.260  1.00  0.00    -0.122 NA 
HETATM   52  C   UNL     1      -9.244  10.874  66.560  1.00  0.00    -0.171 A  
HETATM   53  C   UNL     1     -10.323  10.976  67.406  1.00  0.00    -0.207 A  
BRANCH  52  54
HETATM   54  C   UNL     1      -9.282  10.621  65.136  1.00  0.00    -0.241 A  
HETATM   55  C   UNL     1      -9.629  11.637  64.242  1.00  0.00    -0.131 A  
HETATM   56  C   UNL     1      -9.725  11.350  62.883  1.00  0.00    -0.344 A  
HETATM   57  C   UNL     1      -9.483  10.052  62.456  1.00  0.00    -0.196 A  
HETATM   58  N   UNL     1      -9.100   9.054  63.276  1.00  0.00     0.134 NA 
HETATM   59  C   UNL     1      -9.013   9.366  64.595  1.00  0.00    -0.187 A  
ENDBRANCH  52  54
ENDBRANCH  48  49
ENDBRANCH  47  48
ENDBRANCH  46  47
ENDBRANCH  45  46
ENDBRANCH  20  45
TORSDOF 10
ENDMDL
MODEL       54
REMARK 921   NORMALIZED FREE ENERGY PREDICTED BY IDOCK:   46.46 KCAL/MOL
REMARK 922        TOTAL FREE ENERGY PREDICTED BY IDOCK:   74.03 KCAL/MOL
REMARK 923 INTER-LIGAND FREE ENERGY PREDICTED BY IDOCK:   40.58 KCAL/MOL
REMARK 924 INTRA-LIGAND FREE ENERGY PREDICTED BY IDOCK:   33.45 KCAL/MOL
REMARK 927      BINDING AFFINITY PREDICTED BY RF-SCORE:    0.00 PKD
ROOT
HETATM    1  C   UNL     1      -9.876  11.359  70.326  1.00  0.00     2.326 C  
HETATM    2  C   UNL     1      -8.822  11.934  69.186  1.00  0.00     0.469 C  
HETATM    3  C   UNL     1      -7.903  13.208  69.372  1.00  0.00     0.697 C  
HETATM    4  C   UNL     1      -8.810  11.398  67.726  1.00  0.00    -0.143 C  
HETATM    5  C   UNL     1      -7.935  14.481  68.481  1.00  0.00    -0.142 C  
HETATM    6  O   UNL     1      -6.996  13.154  70.217  1.00  0.00     0.543 OA 
HETATM    7  C   UNL     1      -7.993  15.815  69.438  1.00  0.00    -0.211 C  
HETATM    8  C   UNL     1      -8.839  14.314  67.270  1.00  0.00    -0.224 C  
HETATM    9  C   UNL     1      -8.460  17.215  68.736  1.00  0.00    -0.225 C  
HETATM   10  C   UNL     1     -10.081  17.113  68.899  1.00  0.00    -0.322 C  
HETATM   11  O   UNL     1      -7.641  17.048  67.531  1.00  0.00    -0.159 OA 
HETATM   12  C   UNL     1      -8.288  18.743  68.884  1.00  0.00    -0.244 C  
HETATM   13  C   UNL     1      -6.210  17.269  67.801  1.00  0.00    -0.148 C  
HETATM   14  C   UNL     1     -12.331  12.763  70.722  1.00  0.00    -0.287 C  
HETATM   15  C   UNL     1     -11.157  17.975  69.697  1.00  0.00     1.791 C  
HETATM   16  C   UNL     1     -11.804  19.182  69.024  1.00  0.00     5.109 C  
HETATM   17  O   UNL     1     -10.694   8.512  71.914  1.00  0.00    -0.272 OA 
HETATM   18  C   UNL     1     -12.292  17.006  70.153  1.00  0.00     3.733 C  
HETATM   19  O   UNL     1     -13.402  17.025  69.609  1.00  0.00     4.813 OA 
HETATM   20  N   UNL     1     -10.088   9.896  70.125  1.00  0.00    -0.262 N  
HETATM   21  C   UNL     1     -11.958  15.961  71.215  1.00  0.00    -0.493 C  
HETATM   22  C   UNL     1     -13.048  14.979  71.531  1.00  0.00    -0.374 C  
HETATM   23  C   UNL     1     -11.465  16.571  72.523  1.00  0.00     0.070 C  
HETATM   24  C   UNL     1     -10.826   9.511  71.235  1.00  0.00    -0.343 C  
HETATM   25  O   UNL     1     -11.833  10.411  71.353  1.00  0.00    -0.332 OA 
HETATM   26  C   UNL     1     -11.002  11.906  72.764  1.00  0.00    12.449 C  
HETATM   27  O   UNL     1     -14.216  15.247  71.818  1.00  0.00    -0.495 OA 
HETATM   28  O   UNL     1     -12.481  13.768  71.793  1.00  0.00    -0.271 OA 
HETATM   29  C   UNL     1     -11.223  11.741  71.210  1.00  0.00     2.803 C  
ENDROOT
BRANCH  10  30
HETATM   30  O   UNL     1     -10.639  16.124  68.104  1.00  0.00    -0.267 OA 
BRANCH  30  31
HETATM   31  C   UNL     1      -9.829  15.231  67.367  1.00  0.00    -0.217 C  
HETATM   32  C   UNL     1     -10.599  14.064  66.639  1.00  0.00    -0.274 C  
HETATM   33  C   UNL     1      -9.874  13.642  65.328  1.00  0.00    -0.107 C  
HETATM   34  O   UNL     1      -9.196  16.212  66.583  1.00  0.00    -0.212 OA 
HETATM   35  C   UNL     1      -8.670  15.920  65.326  1.00  0.00     1.923 C  
HETATM   36  H   UNL     1     -11.177  12.246  67.113  1.00  0.00     0.000 HD 
HETATM   37  C   UNL     1      -9.448  14.886  64.535  1.00  0.00     2.393 C  
HETATM   38  O   UNL     1     -10.713  12.949  67.552  1.00  0.00    -0.223 OA 
HETATM   39  C   UNL     1      -8.721  17.269  64.599  1.00  0.00     5.845 C  
BRANCH  33  40
HETATM   40  N   UNL     1     -10.475  12.648  64.393  1.00  0.00    -0.352 NA 
HETATM   41  C   UNL     1     -11.803  12.871  63.826  1.00  0.00    -0.504 C  
HETATM   42  C   UNL     1     -10.302  11.236  64.707  1.00  0.00    -0.307 C  
ENDBRANCH  33  40
ENDBRANCH  30  31
ENDBRANCH  10  30
BRANCH  14  43
HETATM   43  C   UNL     1     -13.787  12.238  70.589  1.00  0.00     2.558 C  
HETATM   44  C   UNL     1     -13.986  10.758  70.355  1.00  0.00     2.005 C  
ENDBRANCH  14  43
BRANCH  20  45
HETATM   45  C   UNL     1     -10.837   9.454  68.941  1.00  0.00    -0.123 C  
BRANCH  45  46
HETATM   46  C   UNL     1      -9.943   9.104  67.750  1.00  0.00    -0.236 C  
BRANCH  46  47
HETATM   47  C   UNL     1      -8.537   9.692  67.873  1.00  0.00    -0.122 C  
BRANCH  47  48
HETATM   48  C   UNL     1      -7.753   9.037  69.003  1.00  0.00    -0.089 C  
BRANCH  48  49
HETATM   49  N   UNL     1      -8.113   7.646  69.165  1.00  0.00    -0.124 NA 
HETATM   50  C   UNL     1      -8.951   7.125  70.106  1.00  0.00    -0.145 A  
HETATM   51  N   UNL     1      -8.999   5.813  70.022  1.00  0.00    -0.137 NA 
HETATM   52  C   UNL     1      -8.147   5.478  68.994  1.00  0.00    -0.095 A  
HETATM   53  C   UNL     1      -7.618   6.614  68.428  1.00  0.00    -0.104 A  
BRANCH  52  54
HETATM   54  C   UNL     1      -7.869   4.111  68.611  1.00  0.00    -0.072 A  
HETATM   55  C   UNL     1      -8.374   3.589  67.418  1.00  0.00    -0.094 A  
HETATM   56  C   UNL     1      -8.150   2.251  67.106  1.00  0.00    -0.072 A  
HETATM   57  C   UNL     1      -7.437   1.467  68.002  1.00  0.00    -0.046 A  
HETATM   58  N   UNL     1      -6.891   1.940  69.140  1.00  0.00    -0.033 NA 
HETATM   59  C   UNL     1      -7.126   3.248  69.414  1.00  0.00    -0.041 A  
ENDBRANCH  52  54
ENDBRANCH  48  49
ENDBRANCH  47  48
ENDBRANCH  46  47
ENDBRANCH  45  46
ENDBRANCH  20  45
TORSDOF 10
ENDMDL
MODEL       55
REMARK 921   NORMALIZED FREE ENERGY PREDICTED BY IDOCK:   47.26 KCAL/MOL
REMARK 922        TOTAL FREE ENERGY PREDICTED BY IDOCK:   75.29 KCAL/MOL
REMARK 923 INTER-LIGAND FREE ENERGY PREDICTED BY IDOCK:   55.38 KCAL/MOL
REMARK 924 INTRA-LIGAND FREE ENERGY PREDICTED BY IDOCK:   19.91 KCAL/MOL
REMARK 927      BINDING AFFINITY PREDICTED BY RF-SCORE:    0.00 PKD
ROOT
HETATM    1  C   UNL     1     -11.378  15.396  66.563  1.00  0.00    -0.098 C  
HETATM    2  C   UNL     1     -11.689  15.507  68.185  1.00  0.00    -0.241 C  
HETATM    3  C   UNL     1     -10.676  16.078  69.257  1.00  0.00    -0.275 C  
HETATM    4  C   UNL     1     -12.933  14.841  68.838  1.00  0.00     1.196 C  
HETATM    5  C   UNL     1     -10.114  15.293  70.476  1.00  0.00     0.228 C  
HETATM    6  O   UNL     1     -10.390  17.286  69.206  1.00  0.00    -0.322 OA 
HETATM    7  C   UNL     1      -8.482  15.477  70.537  1.00  0.00     1.562 C  
HETATM    8  C   UNL     1     -10.783  13.939  70.645  1.00  0.00     1.483 C  
HETATM    9  C   UNL     1      -7.648  14.414  71.456  1.00  0.00     3.646 C  
HETATM   10  C   UNL     1      -7.402  13.209  70.382  1.00  0.00     2.225 C  
HETATM   11  O   UNL     1      -8.569  14.460  72.597  1.00  0.00     5.711 OA 
HETATM   12  C   UNL     1      -6.335  14.303  72.263  1.00  0.00     1.014 C  
HETATM   13  C   UNL     1      -8.451  15.721  73.350  1.00  0.00    14.249 C  
HETATM   14  C   UNL     1      -9.643  13.315  65.662  1.00  0.00     0.007 C  
HETATM   15  C   UNL     1      -6.095  12.583  69.721  1.00  0.00    -0.134 C  
HETATM   16  C   UNL     1      -5.377  11.431  70.418  1.00  0.00    -0.113 C  
HETATM   17  O   UNL     1     -12.725  16.211  63.594  1.00  0.00    -0.294 OA 
HETATM   18  C   UNL     1      -6.473  12.119  68.280  1.00  0.00    -0.055 C  
HETATM   19  O   UNL     1      -6.591  10.918  68.008  1.00  0.00    -0.061 OA 
HETATM   20  N   UNL     1     -12.661  15.432  65.801  1.00  0.00     0.896 N  
HETATM   21  C   UNL     1      -6.797  13.193  67.244  1.00  0.00    -0.001 C  
HETATM   22  C   UNL     1      -7.269  12.693  65.910  1.00  0.00     2.951 C  
HETATM   23  C   UNL     1      -5.650  14.170  67.014  1.00  0.00     1.261 C  
HETATM   24  C   UNL     1     -12.257  15.519  64.476  1.00  0.00    -0.055 C  
HETATM   25  O   UNL     1     -11.304  14.571  64.305  1.00  0.00    -0.264 OA 
HETATM   26  C   UNL     1      -9.422  15.687  64.666  1.00  0.00     2.274 C  
HETATM   27  O   UNL     1      -6.718  11.843  65.209  1.00  0.00     1.576 OA 
HETATM   28  O   UNL     1      -8.206  13.557  65.426  1.00  0.00     2.701 OA 
HETATM   29  C   UNL     1     -10.379  14.700  65.441  1.00  0.00    -0.383 C  
ENDROOT
BRANCH  10  30
HETATM   30  O   UNL     1      -8.568  12.539  70.052  1.00  0.00     2.566 OA 
BRANCH  30  31
HETATM   31  C   UNL     1      -8.625  11.127  70.030  1.00  0.00     1.576 C  
HETATM   32  C   UNL     1      -7.457  10.393  70.793  1.00  0.00     1.037 C  
HETATM   33  C   UNL     1      -7.936   9.036  71.386  1.00  0.00    -0.043 C  
HETATM   34  O   UNL     1      -9.932  11.019  70.538  1.00  0.00     1.275 OA 
HETATM   35  C   UNL     1     -10.363   9.884  71.221  1.00  0.00     0.342 C  
HETATM   36  H   UNL     1      -5.654   9.757  70.333  1.00  0.00     0.000 HD 
HETATM   37  C   UNL     1      -9.300   9.209  72.066  1.00  0.00     0.190 C  
HETATM   38  O   UNL     1      -6.358  10.199  69.873  1.00  0.00    -0.053 OA 
HETATM   39  C   UNL     1     -11.480  10.418  72.126  1.00  0.00     1.952 C  
BRANCH  33  40
HETATM   40  N   UNL     1      -7.052   8.215  72.262  1.00  0.00    -0.085 NA 
HETATM   41  C   UNL     1      -7.616   7.173  73.116  1.00  0.00    -0.075 C  
HETATM   42  C   UNL     1      -5.973   8.898  72.962  1.00  0.00    -0.040 C  
ENDBRANCH  33  40
ENDBRANCH  30  31
ENDBRANCH  10  30
BRANCH  14  43
HETATM   43  C   UNL     1      -9.932  12.175  64.648  1.00  0.00    -0.227 C  
HETATM   44  C   UNL     1      -8.812  11.210  64.332  1.00  0.00     0.095 C  
ENDBRANCH  14  43
BRANCH  20  45
HETATM   45  C   UNL     1     -13.563  14.277  65.896  1.00  0.00     1.781 C  
BRANCH  45  46
HETATM   46  C   UNL     1     -12.928  13.062  66.576  1.00  0.00     1.351 C  
BRANCH  46  47
HETATM   47  C   UNL     1     -11.940  12.327  65.670  1.00  0.00    -0.373 C  
BRANCH  47  48
HETATM   48  C   UNL     1     -12.191  10.824  65.672  1.00  0.00     3.499 C  
BRANCH  48  49
HETATM   49  N   UNL     1     -11.191  10.118  66.440  1.00  0.00     0.282 NA 
HETATM   50  C   UNL     1     -10.554  10.568  67.559  1.00  0.00    -0.259 A  
HETATM   51  N   UNL     1      -9.645   9.707  67.964  1.00  0.00    -0.142 NA 
HETATM   52  C   UNL     1      -9.692   8.669  67.061  1.00  0.00    -0.201 A  
HETATM   53  C   UNL     1     -10.677   8.897  66.128  1.00  0.00     0.887 A  
BRANCH  52  54
HETATM   54  C   UNL     1      -8.802   7.530  67.118  1.00  0.00    -0.127 A  
HETATM   55  C   UNL     1      -8.237   7.010  65.951  1.00  0.00    -0.133 A  
HETATM   56  C   UNL     1      -7.438   5.871  66.025  1.00  0.00    -0.085 A  
HETATM   57  C   UNL     1      -7.236   5.277  67.263  1.00  0.00    -0.075 A  
HETATM   58  N   UNL     1      -7.722   5.772  68.419  1.00  0.00    -0.095 NA 
HETATM   59  C   UNL     1      -8.495   6.883  68.313  1.00  0.00    -0.125 A  
ENDBRANCH  52  54
ENDBRANCH  48  49
ENDBRANCH  47  48
ENDBRANCH  46  47
ENDBRANCH  45  46
ENDBRANCH  20  45
TORSDOF 10
ENDMDL
MODEL       56
REMARK 921   NORMALIZED FREE ENERGY PREDICTED BY IDOCK:   48.13 KCAL/MOL
REMARK 922        TOTAL FREE ENERGY PREDICTED BY IDOCK:   76.66 KCAL/MOL
REMARK 923 INTER-LIGAND FREE ENERGY PREDICTED BY IDOCK:   52.96 KCAL/MOL
REMARK 924 INTRA-LIGAND FREE ENERGY PREDICTED BY IDOCK:   23.71 KCAL/MOL
REMARK 927      BINDING AFFINITY PREDICTED BY RF-SCORE:    0.00 PKD
ROOT
HETATM    1  C   UNL     1     -10.488   9.480  68.968  1.00  0.00    -0.213 C  
HETATM    2  C   UNL     1      -8.875   9.711  69.267  1.00  0.00    -0.164 C  
HETATM    3  C   UNL     1      -8.298  10.563  70.468  1.00  0.00     1.489 C  
HETATM    4  C   UNL     1      -7.776   9.295  68.249  1.00  0.00    -0.087 C  
HETATM    5  C   UNL     1      -7.388  11.816  70.330  1.00  0.00     1.754 C  
HETATM    6  O   UNL     1      -8.475  10.141  71.622  1.00  0.00     1.739 OA 
HETATM    7  C   UNL     1      -7.977  13.024  71.275  1.00  0.00     8.978 C  
HETATM    8  C   UNL     1      -6.949  12.053  68.894  1.00  0.00    -0.104 C  
HETATM    9  C   UNL     1      -7.447  14.538  70.964  1.00  0.00     1.985 C  
HETATM   10  C   UNL     1      -8.513  15.008  69.821  1.00  0.00     0.115 C  
HETATM   11  O   UNL     1      -6.036  14.165  70.814  1.00  0.00    -0.197 OA 
HETATM   12  C   UNL     1      -7.220  15.895  71.668  1.00  0.00     4.490 C  
HETATM   13  C   UNL     1      -5.408  13.848  72.108  1.00  0.00    -0.203 C  
HETATM   14  C   UNL     1     -11.969  11.635  67.822  1.00  0.00    -0.047 C  
HETATM   15  C   UNL     1      -9.626  16.145  69.764  1.00  0.00     0.066 C  
HETATM   16  C   UNL     1      -9.253  17.541  69.275  1.00  0.00     0.187 C  
HETATM   17  O   UNL     1     -12.697   7.017  68.378  1.00  0.00     4.081 OA 
HETATM   18  C   UNL     1     -10.795  15.615  68.876  1.00  0.00    -0.252 C  
HETATM   19  O   UNL     1     -10.981  16.059  67.737  1.00  0.00    -0.327 OA 
HETATM   20  N   UNL     1     -10.683   8.201  68.224  1.00  0.00    -0.084 N  
HETATM   21  C   UNL     1     -11.635  14.459  69.413  1.00  0.00    -0.349 C  
HETATM   22  C   UNL     1     -12.668  13.909  68.473  1.00  0.00     0.935 C  
HETATM   23  C   UNL     1     -12.313  14.775  70.742  1.00  0.00    -0.397 C  
HETATM   24  C   UNL     1     -12.061   8.037  68.202  1.00  0.00     3.794 C  
HETATM   25  O   UNL     1     -12.580   9.226  67.810  1.00  0.00     5.245 OA 
HETATM   26  C   UNL     1     -13.005  10.242  69.734  1.00  0.00     0.508 C  
HETATM   27  O   UNL     1     -13.517  14.556  67.858  1.00  0.00     3.063 OA 
HETATM   28  O   UNL     1     -12.756  12.562  68.660  1.00  0.00     0.525 OA 
HETATM   29  C   UNL     1     -11.902  10.260  68.606  1.00  0.00     0.242 C  
ENDROOT
BRANCH  10  30
HETATM   30  O   UNL     1      -8.347  14.330  68.624  1.00  0.00    -0.151 OA 
BRANCH  30  31
HETATM   31  C   UNL     1      -8.248  15.022  67.395  1.00  0.00    -0.194 C  
HETATM   32  C   UNL     1      -9.114  14.435  66.216  1.00  0.00    -0.095 C  
HETATM   33  C   UNL     1      -9.572  15.557  65.239  1.00  0.00     0.033 C  
HETATM   34  O   UNL     1      -8.580  16.289  67.907  1.00  0.00    -0.171 OA 
HETATM   35  C   UNL     1      -9.144  17.280  67.107  1.00  0.00    -0.227 C  
HETATM   36  H   UNL     1      -8.854  13.079  64.817  1.00  0.00     0.000 HD 
HETATM   37  C   UNL     1     -10.082  16.770  66.030  1.00  0.00    -0.350 C  
HETATM   38  O   UNL     1      -8.332  13.433  65.527  1.00  0.00     1.967 OA 
HETATM   39  C   UNL     1      -9.927  18.140  68.107  1.00  0.00    -0.368 C  
BRANCH  33  40
HETATM   40  N   UNL     1     -10.511  15.275  64.116  1.00  0.00     0.571 NA 
HETATM   41  C   UNL     1     -10.047  14.573  62.921  1.00  0.00     9.742 C  
HETATM   42  C   UNL     1     -11.450  16.323  63.742  1.00  0.00     1.128 C  
ENDBRANCH  33  40
ENDBRANCH  30  31
ENDBRANCH  10  30
BRANCH  14  43
HETATM   43  C   UNL     1     -12.771  11.669  66.493  1.00  0.00     3.363 C  
HETATM   44  C   UNL     1     -12.216  12.492  65.354  1.00  0.00    -0.475 C  
ENDBRANCH  14  43
BRANCH  20  45
HETATM   45  C   UNL     1     -10.223   8.125  66.831  1.00  0.00    -0.316 C  
BRANCH  45  46
HETATM   46  C   UNL     1      -9.058   9.068  66.522  1.00  0.00    -0.202 C  
BRANCH  46  47
HETATM   47  C   UNL     1      -9.298   9.917  65.273  1.00  0.00    -0.309 C  
BRANCH  47  48
HETATM   48  C   UNL     1      -9.448   9.051  64.029  1.00  0.00     0.941 C  
BRANCH  48  49
HETATM   49  N   UNL     1      -8.740   7.798  64.163  1.00  0.00     0.368 NA 
HETATM   50  C   UNL     1      -7.451   7.630  64.576  1.00  0.00    -0.094 A  
HETATM   51  N   UNL     1      -7.094   6.366  64.509  1.00  0.00    -0.054 NA 
HETATM   52  C   UNL     1      -8.194   5.697  64.020  1.00  0.00    -0.102 A  
HETATM   53  C   UNL     1      -9.238   6.574  63.836  1.00  0.00     1.661 A  
BRANCH  52  54
HETATM   54  C   UNL     1      -8.198   4.278  63.742  1.00  0.00    -0.096 A  
HETATM   55  C   UNL     1      -7.260   3.721  62.869  1.00  0.00    -0.048 A  
HETATM   56  C   UNL     1      -7.328   2.364  62.564  1.00  0.00    -0.037 A  
HETATM   57  C   UNL     1      -8.339   1.603  63.132  1.00  0.00    -0.065 A  
HETATM   58  N   UNL     1      -9.235   2.087  64.015  1.00  0.00    -0.109 NA 
HETATM   59  C   UNL     1      -9.141   3.413  64.292  1.00  0.00    -0.125 A  
ENDBRANCH  52  54
ENDBRANCH  48  49
ENDBRANCH  47  48
ENDBRANCH  46  47
ENDBRANCH  45  46
ENDBRANCH  20  45
TORSDOF 10
ENDMDL
MODEL       57
REMARK 921   NORMALIZED FREE ENERGY PREDICTED BY IDOCK:   56.47 KCAL/MOL
REMARK 922        TOTAL FREE ENERGY PREDICTED BY IDOCK:   89.88 KCAL/MOL
REMARK 923 INTER-LIGAND FREE ENERGY PREDICTED BY IDOCK:   32.26 KCAL/MOL
REMARK 924 INTRA-LIGAND FREE ENERGY PREDICTED BY IDOCK:   57.62 KCAL/MOL
REMARK 927      BINDING AFFINITY PREDICTED BY RF-SCORE:    0.00 PKD
ROOT
HETATM    1  C   UNL     1      -6.909   5.403  66.187  1.00  0.00    -0.058 C  
HETATM    2  C   UNL     1      -7.625   6.495  65.168  1.00  0.00    -0.090 C  
HETATM    3  C   UNL     1      -7.234   8.024  65.071  1.00  0.00    -0.069 C  
HETATM    4  C   UNL     1      -8.916   6.158  64.370  1.00  0.00     0.585 C  
HETATM    5  C   UNL     1      -8.192   9.219  65.341  1.00  0.00    -0.129 C  
HETATM    6  O   UNL     1      -6.111   8.313  64.628  1.00  0.00    -0.058 OA 
HETATM    7  C   UNL     1      -7.459  10.288  66.350  1.00  0.00    -0.114 C  
HETATM    8  C   UNL     1      -9.630   8.769  65.544  1.00  0.00    -0.007 C  
HETATM    9  C   UNL     1      -8.416  11.379  67.100  1.00  0.00    -0.153 C  
HETATM   10  C   UNL     1      -8.860  10.538  68.427  1.00  0.00    -0.140 C  
HETATM   11  O   UNL     1      -9.208  11.713  65.911  1.00  0.00    -0.224 OA 
HETATM   12  C   UNL     1      -8.363  12.799  67.709  1.00  0.00    -0.177 C  
HETATM   13  C   UNL     1      -8.447  12.535  64.954  1.00  0.00     2.407 C  
HETATM   14  C   UNL     1      -7.593   5.495  68.958  1.00  0.00    -0.087 C  
HETATM   15  C   UNL     1      -8.606  10.741  69.986  1.00  0.00     0.829 C  
HETATM   16  C   UNL     1      -9.585  11.577  70.805  1.00  0.00     5.549 C  
HETATM   17  O   UNL     1      -5.472   2.365  66.152  1.00  0.00    -0.015 OA 
HETATM   18  C   UNL     1      -8.514   9.325  70.636  1.00  0.00    -0.217 C  
HETATM   19  O   UNL     1      -9.432   8.886  71.340  1.00  0.00    -0.235 OA 
HETATM   20  N   UNL     1      -7.032   4.029  65.620  1.00  0.00    -0.060 N  
HETATM   21  C   UNL     1      -7.308   8.455  70.289  1.00  0.00    -0.055 C  
HETATM   22  C   UNL     1      -7.327   7.061  70.845  1.00  0.00    -0.077 C  
HETATM   23  C   UNL     1      -5.977   9.102  70.656  1.00  0.00    -0.044 C  
HETATM   24  C   UNL     1      -6.244   3.252  66.458  1.00  0.00    -0.028 C  
HETATM   25  O   UNL     1      -6.598   3.581  67.725  1.00  0.00    -0.040 OA 
HETATM   26  C   UNL     1      -5.131   5.156  68.257  1.00  0.00     0.000 C  
HETATM   27  O   UNL     1      -7.523   6.742  72.018  1.00  0.00    -0.091 OA 
HETATM   28  O   UNL     1      -6.757   6.221  69.935  1.00  0.00    -0.052 OA 
HETATM   29  C   UNL     1      -6.631   5.050  67.780  1.00  0.00    -0.050 C  
ENDROOT
BRANCH  10  30
HETATM   30  O   UNL     1      -9.705   9.480  68.133  1.00  0.00    -0.143 OA 
BRANCH  30  31
HETATM   31  C   UNL     1     -10.801   9.162  68.966  1.00  0.00    -0.090 C  
HETATM   32  C   UNL     1     -10.580   7.940  69.937  1.00  0.00    -0.242 C  
HETATM   33  C   UNL     1     -11.388   8.113  71.256  1.00  0.00    -0.265 C  
HETATM   34  O   UNL     1     -10.946  10.446  69.523  1.00  0.00    -0.227 OA 
HETATM   35  C   UNL     1     -11.521  10.641  70.777  1.00  0.00    -0.214 C  
HETATM   36  H   UNL     1     -10.830   5.993  69.832  1.00  0.00     0.000 HD 
HETATM   37  C   UNL     1     -11.235   9.545  71.785  1.00  0.00    -0.263 C  
HETATM   38  O   UNL     1     -10.964   6.729  69.246  1.00  0.00    -0.253 OA 
HETATM   39  C   UNL     1     -10.892  11.957  71.253  1.00  0.00     4.522 C  
BRANCH  33  40
HETATM   40  N   UNL     1     -11.244   7.154  72.388  1.00  0.00    -0.260 NA 
HETATM   41  C   UNL     1     -12.376   6.334  72.814  1.00  0.00     0.424 C  
HETATM   42  C   UNL     1     -10.485   7.592  73.551  1.00  0.00    -0.306 C  
ENDBRANCH  33  40
ENDBRANCH  30  31
ENDBRANCH  10  30
BRANCH  14  43
HETATM   43  C   UNL     1      -8.207   4.381  69.848  1.00  0.00    -0.067 C  
HETATM   44  C   UNL     1      -7.386   3.874  71.011  1.00  0.00    -0.037 C  
ENDBRANCH  14  43
BRANCH  20  45
HETATM   45  C   UNL     1      -8.361   3.404  65.584  1.00  0.00    -0.102 C  
BRANCH  45  46
HETATM   46  C   UNL     1      -9.310   4.051  64.573  1.00  0.00    -0.160 C  
BRANCH  46  47
HETATM   47  C   UNL     1     -10.782   3.864  64.941  1.00  0.00    -0.039 C  
BRANCH  47  48
HETATM   48  C   UNL     1     -11.460   5.197  65.229  1.00  0.00     1.237 C  
BRANCH  48  49
HETATM   49  N   UNL     1     -11.561   5.448  66.649  1.00  0.00     1.243 NA 
HETATM   50  C   UNL     1     -10.871   4.815  67.640  1.00  0.00     0.805 A  
HETATM   51  N   UNL     1     -11.259   5.230  68.826  1.00  0.00     0.738 NA 
HETATM   52  C   UNL     1     -12.247   6.158  68.587  1.00  0.00     3.455 A  
HETATM   53  C   UNL     1     -12.418   6.330  67.233  1.00  0.00     6.217 A  
BRANCH  52  54
HETATM   54  C   UNL     1     -12.982   6.821  69.643  1.00  0.00     3.164 A  
HETATM   55  C   UNL     1     -12.936   8.210  69.778  1.00  0.00     2.854 A  
HETATM   56  C   UNL     1     -13.597   8.817  70.843  1.00  0.00     0.196 A  
HETATM   57  C   UNL     1     -14.274   8.017  71.751  1.00  0.00    -0.456 A  
HETATM   58  N   UNL     1     -14.384   6.679  71.633  1.00  0.00    -0.099 NA 
HETATM   59  C   UNL     1     -13.731   6.118  70.583  1.00  0.00     3.530 A  
ENDBRANCH  52  54
ENDBRANCH  48  49
ENDBRANCH  47  48
ENDBRANCH  46  47
ENDBRANCH  45  46
ENDBRANCH  20  45
TORSDOF 10
ENDMDL
MODEL       58
REMARK 921   NORMALIZED FREE ENERGY PREDICTED BY IDOCK:   60.71 KCAL/MOL
REMARK 922        TOTAL FREE ENERGY PREDICTED BY IDOCK:   96.60 KCAL/MOL
REMARK 923 INTER-LIGAND FREE ENERGY PREDICTED BY IDOCK:   83.02 KCAL/MOL
REMARK 924 INTRA-LIGAND FREE ENERGY PREDICTED BY IDOCK:   13.58 KCAL/MOL
REMARK 927      BINDING AFFINITY PREDICTED BY RF-SCORE:    0.00 PKD
ROOT
HETATM    1  C   UNL     1     -10.916   8.615  69.079  1.00  0.00     0.090 C  
HETATM    2  C   UNL     1      -9.314   8.570  69.494  1.00  0.00    -0.161 C  
HETATM    3  C   UNL     1      -8.701   9.246  70.786  1.00  0.00    -0.217 C  
HETATM    4  C   UNL     1      -8.221   8.047  68.520  1.00  0.00    -0.126 C  
HETATM    5  C   UNL     1      -7.602  10.345  70.794  1.00  0.00     1.133 C  
HETATM    6  O   UNL     1      -9.025   8.789  71.894  1.00  0.00    -0.257 OA 
HETATM    7  C   UNL     1      -8.065  11.572  71.784  1.00  0.00    11.735 C  
HETATM    8  C   UNL     1      -7.029  10.596  69.409  1.00  0.00    -0.106 C  
HETATM    9  C   UNL     1      -7.287  12.999  71.614  1.00  0.00     7.093 C  
HETATM   10  C   UNL     1      -8.182  13.700  70.442  1.00  0.00     3.375 C  
HETATM   11  O   UNL     1      -5.944  12.418  71.526  1.00  0.00    -0.082 OA 
HETATM   12  C   UNL     1      -6.907  14.258  72.425  1.00  0.00     2.637 C  
HETATM   13  C   UNL     1      -5.468  11.927  72.832  1.00  0.00     1.147 C  
HETATM   14  C   UNL     1     -11.961  11.043  67.998  1.00  0.00     0.087 C  
HETATM   15  C   UNL     1      -9.101  15.000  70.397  1.00  0.00     1.027 C  
HETATM   16  C   UNL     1      -8.482  16.346  70.032  1.00  0.00     1.273 C  
HETATM   17  O   UNL     1     -13.429   6.573  68.180  1.00  0.00    10.598 OA 
HETATM   18  C   UNL     1     -10.269  14.717  69.403  1.00  0.00    -0.085 C  
HETATM   19  O   UNL     1     -10.302  15.252  68.289  1.00  0.00    -0.229 OA 
HETATM   20  N   UNL     1     -11.251   7.431  68.235  1.00  0.00     0.213 N  
HETATM   21  C   UNL     1     -11.313  13.677  69.803  1.00  0.00    -0.181 C  
HETATM   22  C   UNL     1     -12.347  13.355  68.764  1.00  0.00     0.072 C  
HETATM   23  C   UNL     1     -12.030  14.016  71.106  1.00  0.00    -0.257 C  
HETATM   24  C   UNL     1     -12.633   7.488  68.116  1.00  0.00     6.767 C  
HETATM   25  O   UNL     1     -12.933   8.766  67.777  1.00  0.00     8.854 OA 
HETATM   26  C   UNL     1     -13.336   9.719  69.738  1.00  0.00     1.604 C  
HETATM   27  O   UNL     1     -13.040  14.164  68.144  1.00  0.00     1.431 OA 
HETATM   28  O   UNL     1     -12.655  12.030  68.849  1.00  0.00     0.103 OA 
HETATM   29  C   UNL     1     -12.164   9.630  68.685  1.00  0.00     2.181 C  
ENDROOT
BRANCH  10  30
HETATM   30  O   UNL     1      -8.037  13.078  69.213  1.00  0.00     0.394 OA 
BRANCH  30  31
HETATM   31  C   UNL     1      -7.534  13.776  68.092  1.00  0.00    -0.124 C  
HETATM   32  C   UNL     1      -8.547  14.770  67.405  1.00  0.00    -0.196 C  
HETATM   33  C   UNL     1      -7.806  15.982  66.770  1.00  0.00    -0.253 C  
HETATM   34  O   UNL     1      -6.404  14.307  68.737  1.00  0.00    -0.080 OA 
HETATM   35  C   UNL     1      -5.796  15.484  68.303  1.00  0.00    -0.114 C  
HETATM   36  H   UNL     1      -9.911  14.641  65.995  1.00  0.00     0.000 HD 
HETATM   37  C   UNL     1      -6.748  16.522  67.742  1.00  0.00    -0.158 C  
HETATM   38  O   UNL     1      -9.301  14.042  66.409  1.00  0.00    -0.274 OA 
HETATM   39  C   UNL     1      -5.130  16.027  69.574  1.00  0.00    -0.109 C  
BRANCH  33  40
HETATM   40  N   UNL     1      -8.554  17.126  66.175  1.00  0.00    -0.469 NA 
HETATM   41  C   UNL     1      -9.779  16.895  65.414  1.00  0.00     0.431 C  
HETATM   42  C   UNL     1      -7.777  18.189  65.552  1.00  0.00     0.450 C  
ENDBRANCH  33  40
ENDBRANCH  30  31
ENDBRANCH  10  30
BRANCH  14  43
HETATM   43  C   UNL     1     -12.650  11.283  66.627  1.00  0.00     3.692 C  
HETATM   44  C   UNL     1     -11.770  11.378  65.402  1.00  0.00     0.287 C  
ENDBRANCH  14  43
BRANCH  20  45
HETATM   45  C   UNL     1     -10.708   7.367  66.872  1.00  0.00    -0.254 C  
BRANCH  45  46
HETATM   46  C   UNL     1     -10.634   8.731  66.182  1.00  0.00     0.635 C  
BRANCH  46  47
HETATM   47  C   UNL     1     -10.636   8.624  64.657  1.00  0.00     5.680 C  
BRANCH  47  48
HETATM   48  C   UNL     1     -10.820   7.183  64.197  1.00  0.00    12.142 C  
BRANCH  48  49
HETATM   49  N   UNL     1      -9.856   6.300  64.812  1.00  0.00     1.787 NA 
HETATM   50  C   UNL     1      -9.474   6.294  66.122  1.00  0.00    -0.055 A  
HETATM   51  N   UNL     1      -8.519   5.414  66.332  1.00  0.00    -0.113 NA 
HETATM   52  C   UNL     1      -8.268   4.843  65.105  1.00  0.00    -0.124 A  
HETATM   53  C   UNL     1      -9.120   5.360  64.158  1.00  0.00     0.322 A  
BRANCH  52  54
HETATM   54  C   UNL     1      -7.233   3.854  64.891  1.00  0.00    -0.067 A  
HETATM   55  C   UNL     1      -7.097   2.768  65.758  1.00  0.00    -0.065 A  
HETATM   56  C   UNL     1      -6.051   1.868  65.570  1.00  0.00    -0.022 A  
HETATM   57  C   UNL     1      -5.163   2.086  64.527  1.00  0.00    -0.008 A  
HETATM   58  N   UNL     1      -5.284   3.092  63.638  1.00  0.00    -0.008 NA 
HETATM   59  C   UNL     1      -6.315   3.950  63.848  1.00  0.00    -0.030 A  
ENDBRANCH  52  54
ENDBRANCH  48  49
ENDBRANCH  47  48
ENDBRANCH  46  47
ENDBRANCH  45  46
ENDBRANCH  20  45
TORSDOF 10
ENDMDL
MODEL       59
REMARK 921   NORMALIZED FREE ENERGY PREDICTED BY IDOCK:   63.59 KCAL/MOL
REMARK 922        TOTAL FREE ENERGY PREDICTED BY IDOCK:  101.17 KCAL/MOL
REMARK 923 INTER-LIGAND FREE ENERGY PREDICTED BY IDOCK:    6.24 KCAL/MOL
REMARK 924 INTRA-LIGAND FREE ENERGY PREDICTED BY IDOCK:   94.93 KCAL/MOL
REMARK 927      BINDING AFFINITY PREDICTED BY RF-SCORE:    0.00 PKD
ROOT
HETATM    1  C   UNL     1     -11.210   9.188  71.004  1.00  0.00    -0.312 C  
HETATM    2  C   UNL     1     -11.937   7.701  71.069  1.00  0.00    -0.296 C  
HETATM    3  C   UNL     1     -11.379   6.463  71.881  1.00  0.00    -0.293 C  
HETATM    4  C   UNL     1     -13.126   7.320  70.143  1.00  0.00     1.338 C  
HETATM    5  C   UNL     1     -10.984   5.089  71.271  1.00  0.00     0.120 C  
HETATM    6  O   UNL     1     -11.364   6.536  73.120  1.00  0.00    -0.150 OA 
HETATM    7  C   UNL     1      -9.503   4.649  71.831  1.00  0.00    -0.197 C  
HETATM    8  C   UNL     1     -11.357   4.983  69.801  1.00  0.00     2.178 C  
HETATM    9  C   UNL     1      -8.714   3.479  71.008  1.00  0.00    -0.074 C  
HETATM   10  C   UNL     1      -7.944   4.366  69.875  1.00  0.00    -0.056 C  
HETATM   11  O   UNL     1      -9.880   2.601  70.859  1.00  0.00    -0.111 OA 
HETATM   12  C   UNL     1      -7.657   2.372  71.221  1.00  0.00    -0.040 C  
HETATM   13  C   UNL     1     -10.238   1.939  72.126  1.00  0.00    -0.154 C  
HETATM   14  C   UNL     1      -8.887   9.481  69.369  1.00  0.00    -0.170 C  
HETATM   15  C   UNL     1      -6.408   4.642  69.559  1.00  0.00    -0.028 C  
HETATM   16  C   UNL     1      -5.652   3.707  68.620  1.00  0.00    -0.021 C  
HETATM   17  O   UNL     1     -11.909  12.447  71.428  1.00  0.00     0.590 OA 
HETATM   18  C   UNL     1      -6.298   6.093  68.994  1.00  0.00    -0.041 C  
HETATM   19  O   UNL     1      -6.075   6.293  67.794  1.00  0.00    -0.019 OA 
HETATM   20  N   UNL     1     -12.233  10.237  70.726  1.00  0.00    -0.323 N  
HETATM   21  C   UNL     1      -6.579   7.255  69.943  1.00  0.00    -0.040 C  
HETATM   22  C   UNL     1      -6.576   8.621  69.323  1.00  0.00    -0.049 C  
HETATM   23  C   UNL     1      -5.657   7.275  71.157  1.00  0.00    -0.031 C  
HETATM   24  C   UNL     1     -11.538  11.428  70.881  1.00  0.00     0.416 C  
HETATM   25  O   UNL     1     -10.387  11.291  70.178  1.00  0.00     0.517 OA 
HETATM   26  C   UNL     1      -8.953  10.572  71.709  1.00  0.00     6.569 C  
HETATM   27  O   UNL     1      -5.692   9.102  68.612  1.00  0.00    -0.040 OA 
HETATM   28  O   UNL     1      -7.528   9.381  69.936  1.00  0.00    -0.075 OA 
HETATM   29  C   UNL     1      -9.831   9.978  70.540  1.00  0.00     0.085 C  
ENDROOT
BRANCH  10  30
HETATM   30  O   UNL     1      -8.812   4.917  68.946  1.00  0.00    -0.091 OA 
BRANCH  30  31
HETATM   31  C   UNL     1      -8.938   6.317  68.798  1.00  0.00    -0.125 C  
HETATM   32  C   UNL     1      -7.675   7.158  69.226  1.00  0.00    -0.108 C  
HETATM   33  C   UNL     1      -7.551   8.459  68.381  1.00  0.00    -0.097 C  
HETATM   34  O   UNL     1      -9.302   6.294  67.440  1.00  0.00    -0.116 OA 
HETATM   35  C   UNL     1      -9.065   7.379  66.598  1.00  0.00    -0.154 C  
HETATM   36  H   UNL     1      -7.021   7.969  70.893  1.00  0.00     0.000 HD 
HETATM   37  C   UNL     1      -7.794   8.150  66.897  1.00  0.00    -0.096 C  
HETATM   38  O   UNL     1      -7.782   7.462  70.635  1.00  0.00    -0.088 OA 
HETATM   39  C   UNL     1      -8.962   6.734  65.210  1.00  0.00     0.247 C  
BRANCH  33  40
HETATM   40  N   UNL     1      -6.367   9.358  68.506  1.00  0.00    -0.052 NA 
HETATM   41  C   UNL     1      -6.503  10.681  69.110  1.00  0.00    -0.056 C  
HETATM   42  C   UNL     1      -5.444   9.418  67.382  1.00  0.00    -0.037 C  
ENDBRANCH  33  40
ENDBRANCH  30  31
ENDBRANCH  10  30
BRANCH  14  43
HETATM   43  C   UNL     1      -8.651  10.446  68.175  1.00  0.00    -0.125 C  
HETATM   44  C   UNL     1      -8.003  11.780  68.463  1.00  0.00    -0.145 C  
ENDBRANCH  14  43
BRANCH  20  45
HETATM   45  C   UNL     1     -12.852  10.275  69.394  1.00  0.00     1.079 C  
BRANCH  45  46
HETATM   46  C   UNL     1     -11.884  10.688  68.284  1.00  0.00     0.007 C  
BRANCH  46  47
HETATM   47  C   UNL     1     -11.967  12.178  67.951  1.00  0.00    -0.218 C  
BRANCH  47  48
HETATM   48  C   UNL     1     -10.836  12.961  68.605  1.00  0.00    -0.258 C  
BRANCH  48  49
HETATM   49  N   UNL     1     -10.892  14.364  68.262  1.00  0.00    -0.236 NA 
HETATM   50  C   UNL     1     -11.968  15.040  67.766  1.00  0.00    -0.093 A  
HETATM   51  N   UNL     1     -11.656  16.288  67.489  1.00  0.00     0.168 NA 
HETATM   52  C   UNL     1     -10.323  16.414  67.807  1.00  0.00    -0.287 A  
HETATM   53  C   UNL     1      -9.846  15.232  68.325  1.00  0.00    -0.218 A  
BRANCH  52  54
HETATM   54  C   UNL     1      -9.571  17.632  67.596  1.00  0.00    -0.268 A  
HETATM   55  C   UNL     1     -10.099  18.868  67.972  1.00  0.00    -0.437 A  
HETATM   56  C   UNL     1      -9.386  20.032  67.695  1.00  0.00    -0.476 A  
HETATM   57  C   UNL     1      -8.168  19.927  67.038  1.00  0.00    -0.316 A  
HETATM   58  N   UNL     1      -7.599  18.753  66.699  1.00  0.00    -0.235 NA 
HETATM   59  C   UNL     1      -8.319  17.638  66.985  1.00  0.00    -0.221 A  
ENDBRANCH  52  54
ENDBRANCH  48  49
ENDBRANCH  47  48
ENDBRANCH  46  47
ENDBRANCH  45  46
ENDBRANCH  20  45
TORSDOF 10
ENDMDL
MODEL       60
REMARK 921   NORMALIZED FREE ENERGY PREDICTED BY IDOCK:   66.59 KCAL/MOL
REMARK 922        TOTAL FREE ENERGY PREDICTED BY IDOCK:  105.92 KCAL/MOL
REMARK 923 INTER-LIGAND FREE ENERGY PREDICTED BY IDOCK:   69.51 KCAL/MOL
REMARK 924 INTRA-LIGAND FREE ENERGY PREDICTED BY IDOCK:   36.41 KCAL/MOL
REMARK 927      BINDING AFFINITY PREDICTED BY RF-SCORE:    0.00 PKD
ROOT
HETATM    1  C   UNL     1      -9.409  12.273  66.241  1.00  0.00    -0.206 C  
HETATM    2  C   UNL     1     -10.879  13.032  66.299  1.00  0.00    -0.295 C  
HETATM    3  C   UNL     1     -11.148  14.511  65.807  1.00  0.00    -0.324 C  
HETATM    4  C   UNL     1     -12.093  12.428  67.062  1.00  0.00    -0.081 C  
HETATM    5  C   UNL     1     -11.680  15.673  66.691  1.00  0.00     0.400 C  
HETATM    6  O   UNL     1     -11.046  14.750  64.593  1.00  0.00    -0.371 OA 
HETATM    7  C   UNL     1     -10.740  17.003  66.467  1.00  0.00    -0.073 C  
HETATM    8  C   UNL     1     -12.095  15.200  68.075  1.00  0.00     0.028 C  
HETATM    9  C   UNL     1     -10.843  18.184  67.591  1.00  0.00    -0.238 C  
HETATM   10  C   UNL     1      -9.738  17.672  68.677  1.00  0.00    -0.332 C  
HETATM   11  O   UNL     1     -12.307  18.164  67.684  1.00  0.00     2.788 OA 
HETATM   12  C   UNL     1     -10.656  19.711  67.743  1.00  0.00    -0.530 C  
HETATM   13  C   UNL     1     -12.944  18.768  66.500  1.00  0.00     9.232 C  
HETATM   14  C   UNL     1      -7.437  13.006  68.173  1.00  0.00    -0.130 C  
HETATM   15  C   UNL     1      -8.356  18.270  69.196  1.00  0.00     0.075 C  
HETATM   16  C   UNL     1      -8.349  19.221  70.390  1.00  0.00     1.846 C  
HETATM   17  O   UNL     1      -7.994   9.416  65.178  1.00  0.00    -0.109 OA 
HETATM   18  C   UNL     1      -7.418  17.068  69.527  1.00  0.00     0.203 C  
HETATM   19  O   UNL     1      -7.163  16.762  70.698  1.00  0.00     1.890 OA 
HETATM   20  N   UNL     1      -9.606  10.796  66.168  1.00  0.00    -0.187 N  
HETATM   21  C   UNL     1      -6.910  16.216  68.367  1.00  0.00    -0.128 C  
HETATM   22  C   UNL     1      -6.110  15.004  68.747  1.00  0.00    -0.083 C  
HETATM   23  C   UNL     1      -6.116  17.014  67.338  1.00  0.00    -0.170 C  
HETATM   24  C   UNL     1      -8.330  10.301  65.939  1.00  0.00    -0.145 C  
HETATM   25  O   UNL     1      -7.519  10.911  66.838  1.00  0.00    -0.114 OA 
HETATM   26  C   UNL     1      -6.748  12.657  65.708  1.00  0.00     4.083 C  
HETATM   27  O   UNL     1      -5.141  14.974  69.508  1.00  0.00    -0.090 OA 
HETATM   28  O   UNL     1      -6.390  14.002  67.867  1.00  0.00    -0.134 OA 
HETATM   29  C   UNL     1      -7.849  12.343  66.794  1.00  0.00     0.080 C  
ENDROOT
BRANCH  10  30
HETATM   30  O   UNL     1     -10.134  16.524  69.344  1.00  0.00    -0.264 OA 
BRANCH  30  31
HETATM   31  C   UNL     1      -9.372  15.994  70.410  1.00  0.00     1.273 C  
HETATM   32  C   UNL     1     -10.205  15.462  71.638  1.00  0.00     1.585 C  
HETATM   33  C   UNL     1      -9.480  14.279  72.342  1.00  0.00     8.191 C  
HETATM   34  O   UNL     1      -8.650  15.069  69.636  1.00  0.00    -0.142 OA 
HETATM   35  C   UNL     1      -8.115  13.908  70.189  1.00  0.00     1.894 C  
HETATM   36  H   UNL     1     -10.926  16.238  73.295  1.00  0.00     0.000 HD 
HETATM   37  C   UNL     1      -8.945  13.290  71.297  1.00  0.00    11.589 C  
HETATM   38  O   UNL     1     -10.423  16.558  72.555  1.00  0.00     3.020 OA 
HETATM   39  C   UNL     1      -8.049  12.945  68.996  1.00  0.00     0.351 C  
BRANCH  33  40
HETATM   40  N   UNL     1     -10.127  13.519  73.450  1.00  0.00    10.019 NA 
HETATM   41  C   UNL     1     -11.395  13.971  74.016  1.00  0.00     3.423 C  
HETATM   42  C   UNL     1      -9.268  13.005  74.507  1.00  0.00    13.682 C  
ENDBRANCH  33  40
ENDBRANCH  30  31
ENDBRANCH  10  30
BRANCH  14  43
HETATM   43  C   UNL     1      -6.713  12.112  69.215  1.00  0.00    -0.084 C  
HETATM   44  C   UNL     1      -5.222  11.917  69.065  1.00  0.00    -0.050 C  
ENDBRANCH  14  43
BRANCH  20  45
HETATM   45  C   UNL     1     -10.127  10.101  67.353  1.00  0.00    -0.205 C  
BRANCH  45  46
HETATM   46  C   UNL     1      -9.390  10.463  68.644  1.00  0.00    -0.167 C  
BRANCH  46  47
HETATM   47  C   UNL     1      -8.114   9.646  68.846  1.00  0.00    -0.098 C  
BRANCH  47  48
HETATM   48  C   UNL     1      -7.834   8.740  67.654  1.00  0.00    -0.102 C  
BRANCH  48  49
HETATM   49  N   UNL     1      -8.418   7.430  67.832  1.00  0.00    -0.122 NA 
HETATM   50  C   UNL     1      -9.605   6.989  67.325  1.00  0.00    -0.141 A  
HETATM   51  N   UNL     1      -9.875   5.772  67.743  1.00  0.00    -0.120 NA 
HETATM   52  C   UNL     1      -8.826   5.422  68.563  1.00  0.00    -0.100 A  
HETATM   53  C   UNL     1      -7.894   6.432  68.596  1.00  0.00    -0.102 A  
BRANCH  52  54
HETATM   54  C   UNL     1      -8.765   4.165  69.277  1.00  0.00    -0.124 A  
HETATM   55  C   UNL     1      -9.266   2.995  68.701  1.00  0.00    -0.231 A  
HETATM   56  C   UNL     1      -9.258   1.812  69.436  1.00  0.00    -0.173 A  
HETATM   57  C   UNL     1      -8.762   1.834  70.731  1.00  0.00    -0.055 A  
HETATM   58  N   UNL     1      -8.227   2.928  71.309  1.00  0.00    -0.061 NA 
HETATM   59  C   UNL     1      -8.247   4.064  70.566  1.00  0.00    -0.062 A  
ENDBRANCH  52  54
ENDBRANCH  48  49
ENDBRANCH  47  48
ENDBRANCH  46  47
ENDBRANCH  45  46
ENDBRANCH  20  45
TORSDOF 10
ENDMDL
MODEL       61
REMARK 921   NORMALIZED FREE ENERGY PREDICTED BY IDOCK:   70.52 KCAL/MOL
REMARK 922        TOTAL FREE ENERGY PREDICTED BY IDOCK:  112.15 KCAL/MOL
REMARK 923 INTER-LIGAND FREE ENERGY PREDICTED BY IDOCK:   36.17 KCAL/MOL
REMARK 924 INTRA-LIGAND FREE ENERGY PREDICTED BY IDOCK:   75.98 KCAL/MOL
REMARK 927      BINDING AFFINITY PREDICTED BY RF-SCORE:    0.00 PKD
ROOT
HETATM    1  C   UNL     1      -7.133  10.443  66.090  1.00  0.00    -0.130 C  
HETATM    2  C   UNL     1      -7.869  11.926  66.119  1.00  0.00     0.398 C  
HETATM    3  C   UNL     1      -7.780  12.950  67.322  1.00  0.00    -0.117 C  
HETATM    4  C   UNL     1      -8.912  12.354  65.048  1.00  0.00     0.873 C  
HETATM    5  C   UNL     1      -8.988  13.491  68.137  1.00  0.00    -0.187 C  
HETATM    6  O   UNL     1      -6.678  13.466  67.569  1.00  0.00    -0.163 OA 
HETATM    7  C   UNL     1      -8.665  13.359  69.743  1.00  0.00     2.056 C  
HETATM    8  C   UNL     1     -10.320  13.066  67.542  1.00  0.00    -0.224 C  
HETATM    9  C   UNL     1      -9.934  13.460  70.767  1.00  0.00     5.254 C  
HETATM   10  C   UNL     1     -10.419  11.901  70.808  1.00  0.00     3.947 C  
HETATM   11  O   UNL     1     -10.562  14.605  70.102  1.00  0.00    -0.039 OA 
HETATM   12  C   UNL     1     -10.269  13.865  72.220  1.00  0.00     7.311 C  
HETATM   13  C   UNL     1      -9.829  15.859  70.350  1.00  0.00     0.574 C  
HETATM   14  C   UNL     1      -8.282   8.338  67.639  1.00  0.00    -0.127 C  
HETATM   15  C   UNL     1     -10.480  10.805  71.961  1.00  0.00     6.210 C  
HETATM   16  C   UNL     1     -11.730  10.692  72.828  1.00  0.00     4.708 C  
HETATM   17  O   UNL     1      -5.135   8.568  64.144  1.00  0.00    -0.043 OA 
HETATM   18  C   UNL     1     -10.219   9.414  71.302  1.00  0.00    -0.270 C  
HETATM   19  O   UNL     1     -11.137   8.599  71.151  1.00  0.00    -0.242 OA 
HETATM   20  N   UNL     1      -6.882  10.034  64.677  1.00  0.00    -0.127 N  
HETATM   21  C   UNL     1      -8.823   9.133  70.751  1.00  0.00    -0.291 C  
HETATM   22  C   UNL     1      -8.658   7.831  70.023  1.00  0.00    -0.140 C  
HETATM   23  C   UNL     1      -7.729   9.236  71.809  1.00  0.00     0.399 C  
HETATM   24  C   UNL     1      -6.109   8.887  64.797  1.00  0.00    -0.065 C  
HETATM   25  O   UNL     1      -6.730   8.103  65.711  1.00  0.00    -0.054 OA 
HETATM   26  C   UNL     1      -5.719   8.652  67.607  1.00  0.00    -0.039 C  
HETATM   27  O   UNL     1      -8.982   6.716  70.432  1.00  0.00    -0.150 OA 
HETATM   28  O   UNL     1      -7.786   8.016  68.992  1.00  0.00    -0.096 OA 
HETATM   29  C   UNL     1      -7.065   8.973  66.848  1.00  0.00    -0.078 C  
ENDROOT
BRANCH  10  30
HETATM   30  O   UNL     1     -10.974  11.482  69.610  1.00  0.00    -0.181 OA 
BRANCH  30  31
HETATM   31  C   UNL     1     -12.246  10.868  69.565  1.00  0.00    -0.261 C  
HETATM   32  C   UNL     1     -12.290   9.367  70.046  1.00  0.00     0.571 C  
HETATM   33  C   UNL     1     -13.664   9.021  70.691  1.00  0.00     0.566 C  
HETATM   34  O   UNL     1     -12.912  11.840  70.333  1.00  0.00     0.067 OA 
HETATM   35  C   UNL     1     -14.061  11.540  71.062  1.00  0.00     2.731 C  
HETATM   36  H   UNL     1     -12.046   7.609  69.202  1.00  0.00     0.000 HD 
HETATM   37  C   UNL     1     -14.095  10.142  71.648  1.00  0.00     0.331 C  
HETATM   38  O   UNL     1     -12.019   8.513  68.912  1.00  0.00     1.578 OA 
HETATM   39  C   UNL     1     -14.041  12.573  72.195  1.00  0.00     0.175 C  
BRANCH  33  40
HETATM   40  N   UNL     1     -13.907   7.702  71.341  1.00  0.00    -0.352 NA 
HETATM   41  C   UNL     1     -13.636   7.516  72.764  1.00  0.00     0.914 C  
HETATM   42  C   UNL     1     -13.525   6.506  70.604  1.00  0.00     1.696 C  
ENDBRANCH  33  40
ENDBRANCH  30  31
ENDBRANCH  10  30
BRANCH  14  43
HETATM   43  C   UNL     1      -8.804   6.953  67.167  1.00  0.00    -0.120 C  
HETATM   44  C   UNL     1      -9.990   6.361  67.892  1.00  0.00    -0.145 C  
ENDBRANCH  14  43
BRANCH  20  45
HETATM   45  C   UNL     1      -8.033   9.686  63.835  1.00  0.00    -0.143 C  
BRANCH  45  46
HETATM   46  C   UNL     1      -8.756   8.415  64.286  1.00  0.00     0.150 C  
BRANCH  46  47
HETATM   47  C   UNL     1      -9.368   8.546  65.681  1.00  0.00    -0.122 C  
BRANCH  47  48
HETATM   48  C   UNL     1      -8.898   9.814  66.381  1.00  0.00    -0.146 C  
BRANCH  48  49
HETATM   49  N   UNL     1      -9.776  10.929  66.109  1.00  0.00    -0.202 NA 
HETATM   50  C   UNL     1     -10.477  11.154  64.961  1.00  0.00    -0.293 A  
HETATM   51  N   UNL     1     -11.117  12.302  65.015  1.00  0.00    -0.307 NA 
HETATM   52  C   UNL     1     -10.804  12.842  66.242  1.00  0.00    -0.275 A  
HETATM   53  C   UNL     1      -9.999  11.978  66.948  1.00  0.00    -0.202 A  
BRANCH  52  54
HETATM   54  C   UNL     1     -11.268  14.142  66.676  1.00  0.00    -0.330 A  
HETATM   55  C   UNL     1     -11.087  15.267  65.870  1.00  0.00    -0.287 A  
HETATM   56  C   UNL     1     -11.480  16.518  66.340  1.00  0.00     0.806 A  
HETATM   57  C   UNL     1     -12.032  16.610  67.609  1.00  0.00     1.119 A  
HETATM   58  N   UNL     1     -12.268  15.546  68.402  1.00  0.00     0.044 NA 
HETATM   59  C   UNL     1     -11.876  14.341  67.914  1.00  0.00    -0.358 A  
ENDBRANCH  52  54
ENDBRANCH  48  49
ENDBRANCH  47  48
ENDBRANCH  46  47
ENDBRANCH  45  46
ENDBRANCH  20  45
TORSDOF 10
ENDMDL
MODEL       62
REMARK 921   NORMALIZED FREE ENERGY PREDICTED BY IDOCK:   74.16 KCAL/MOL
REMARK 922        TOTAL FREE ENERGY PREDICTED BY IDOCK:  117.92 KCAL/MOL
REMARK 923 INTER-LIGAND FREE ENERGY PREDICTED BY IDOCK:   23.61 KCAL/MOL
REMARK 924 INTRA-LIGAND FREE ENERGY PREDICTED BY IDOCK:   94.31 KCAL/MOL
REMARK 927      BINDING AFFINITY PREDICTED BY RF-SCORE:    0.00 PKD
ROOT
HETATM    1  C   UNL     1      -7.113   6.132  69.097  1.00  0.00    -0.070 C  
HETATM    2  C   UNL     1      -6.777   7.438  68.136  1.00  0.00    -0.055 C  
HETATM    3  C   UNL     1      -6.733   8.937  68.639  1.00  0.00    -0.059 C  
HETATM    4  C   UNL     1      -6.698   7.327  66.586  1.00  0.00    -0.061 C  
HETATM    5  C   UNL     1      -7.629  10.092  68.111  1.00  0.00    -0.084 C  
HETATM    6  O   UNL     1      -5.834   9.260  69.432  1.00  0.00    -0.034 OA 
HETATM    7  C   UNL     1      -8.281  10.901  69.384  1.00  0.00     0.025 C  
HETATM    8  C   UNL     1      -8.458   9.674  66.908  1.00  0.00    -0.121 C  
HETATM    9  C   UNL     1      -9.569  11.858  69.076  1.00  0.00     0.213 C  
HETATM   10  C   UNL     1     -10.791  10.784  69.222  1.00  0.00    -0.242 C  
HETATM   11  O   UNL     1      -9.010  12.461  67.862  1.00  0.00    -0.168 OA 
HETATM   12  C   UNL     1     -10.279  13.120  69.617  1.00  0.00     0.965 C  
HETATM   13  C   UNL     1      -7.939  13.426  68.167  1.00  0.00    -0.150 C  
HETATM   14  C   UNL     1      -9.826   5.689  69.869  1.00  0.00    -0.189 C  
HETATM   15  C   UNL     1     -12.018  10.655  70.228  1.00  0.00    -0.425 C  
HETATM   16  C   UNL     1     -13.337  11.349  69.900  1.00  0.00     1.341 C  
HETATM   17  O   UNL     1      -5.890   3.105  69.894  1.00  0.00    -0.017 OA 
HETATM   18  C   UNL     1     -12.306   9.134  70.426  1.00  0.00     0.288 C  
HETATM   19  O   UNL     1     -13.300   8.602  69.917  1.00  0.00     2.155 OA 
HETATM   20  N   UNL     1      -6.482   4.908  68.522  1.00  0.00    -0.036 N  
HETATM   21  C   UNL     1     -11.270   8.301  71.176  1.00  0.00    -0.296 C  
HETATM   22  C   UNL     1     -11.536   6.825  71.235  1.00  0.00    -0.320 C  
HETATM   23  C   UNL     1     -11.009   8.800  72.593  1.00  0.00     0.087 C  
HETATM   24  C   UNL     1      -6.677   3.943  69.501  1.00  0.00    -0.037 C  
HETATM   25  O   UNL     1      -7.982   4.023  69.859  1.00  0.00    -0.055 OA 
HETATM   26  C   UNL     1      -7.936   5.391  71.603  1.00  0.00    -0.116 C  
HETATM   27  O   UNL     1     -12.583   6.283  71.593  1.00  0.00    -0.140 OA 
HETATM   28  O   UNL     1     -10.346   6.163  71.166  1.00  0.00    -0.196 OA 
HETATM   29  C   UNL     1      -8.272   5.450  70.062  1.00  0.00    -0.095 C  
ENDROOT
BRANCH  10  30
HETATM   30  O   UNL     1     -10.805   9.847  68.203  1.00  0.00    -0.241 OA 
BRANCH  30  31
HETATM   31  C   UNL     1     -10.965   8.469  68.474  1.00  0.00     0.195 C  
HETATM   32  C   UNL     1     -11.025   7.533  67.207  1.00  0.00    -0.108 C  
HETATM   33  C   UNL     1     -10.440   6.125  67.518  1.00  0.00    -0.240 C  
HETATM   34  O   UNL     1      -9.865   8.356  69.343  1.00  0.00    -0.178 OA 
HETATM   35  C   UNL     1      -9.202   7.145  69.534  1.00  0.00    -0.149 C  
HETATM   36  H   UNL     1     -12.436   6.876  66.006  1.00  0.00     0.000 HD 
HETATM   37  C   UNL     1      -9.129   6.259  68.305  1.00  0.00    -0.113 C  
HETATM   38  O   UNL     1     -12.400   7.440  66.769  1.00  0.00     4.057 OA 
HETATM   39  C   UNL     1      -7.788   7.577  69.942  1.00  0.00    -0.107 C  
BRANCH  33  40
HETATM   40  N   UNL     1     -10.265   5.102  66.447  1.00  0.00    -0.240 NA 
HETATM   41  C   UNL     1     -11.042   3.865  66.469  1.00  0.00     3.048 C  
HETATM   42  C   UNL     1      -8.909   4.827  65.992  1.00  0.00    -0.123 C  
ENDBRANCH  33  40
ENDBRANCH  30  31
ENDBRANCH  10  30
BRANCH  14  43
HETATM   43  C   UNL     1     -10.721   4.445  69.617  1.00  0.00     1.344 C  
HETATM   44  C   UNL     1     -10.215   3.103  70.092  1.00  0.00     0.979 C  
ENDBRANCH  14  43
BRANCH  20  45
HETATM   45  C   UNL     1      -7.025   4.362  67.272  1.00  0.00    -0.063 C  
BRANCH  45  46
HETATM   46  C   UNL     1      -7.485   5.439  66.287  1.00  0.00    -0.087 C  
BRANCH  46  47
HETATM   47  C   UNL     1      -8.056   4.854  64.995  1.00  0.00    -0.107 C  
BRANCH  47  48
HETATM   48  C   UNL     1      -9.257   5.651  64.502  1.00  0.00     0.503 C  
BRANCH  48  49
HETATM   49  N   UNL     1      -9.135   7.054  64.829  1.00  0.00     0.720 NA 
HETATM   50  C   UNL     1     -10.129   7.879  65.266  1.00  0.00     2.339 A  
HETATM   51  N   UNL     1      -9.697   9.115  65.393  1.00  0.00    -0.127 NA 
HETATM   52  C   UNL     1      -8.375   9.084  65.010  1.00  0.00    -0.166 A  
HETATM   53  C   UNL     1      -8.004   7.798  64.692  1.00  0.00    -0.136 A  
BRANCH  52  54
HETATM   54  C   UNL     1      -7.541  10.265  64.953  1.00  0.00    -0.119 A  
HETATM   55  C   UNL     1      -6.916  10.637  63.761  1.00  0.00     0.227 A  
HETATM   56  C   UNL     1      -6.063  11.738  63.748  1.00  0.00     3.452 A  
HETATM   57  C   UNL     1      -5.849  12.429  64.932  1.00  0.00     6.318 A  
HETATM   58  N   UNL     1      -6.467  12.135  66.093  1.00  0.00     0.646 NA 
HETATM   59  C   UNL     1      -7.293  11.057  66.071  1.00  0.00    -0.025 A  
ENDBRANCH  52  54
ENDBRANCH  48  49
ENDBRANCH  47  48
ENDBRANCH  46  47
ENDBRANCH  45  46
ENDBRANCH  20  45
TORSDOF 10
ENDMDL
MODEL       63
REMARK 921   NORMALIZED FREE ENERGY PREDICTED BY IDOCK:   76.76 KCAL/MOL
REMARK 922        TOTAL FREE ENERGY PREDICTED BY IDOCK:  122.04 KCAL/MOL
REMARK 923 INTER-LIGAND FREE ENERGY PREDICTED BY IDOCK:   83.58 KCAL/MOL
REMARK 924 INTRA-LIGAND FREE ENERGY PREDICTED BY IDOCK:   38.46 KCAL/MOL
REMARK 927      BINDING AFFINITY PREDICTED BY RF-SCORE:    0.00 PKD
ROOT
HETATM    1  C   UNL     1     -10.988   9.486  68.848  1.00  0.00    -0.086 C  
HETATM    2  C   UNL     1      -9.438   9.181  69.344  1.00  0.00    -0.161 C  
HETATM    3  C   UNL     1      -8.776   9.788  70.647  1.00  0.00     0.175 C  
HETATM    4  C   UNL     1      -8.409   8.443  68.441  1.00  0.00    -0.131 C  
HETATM    5  C   UNL     1      -7.505  10.681  70.680  1.00  0.00     1.216 C  
HETATM    6  O   UNL     1      -9.224   9.433  71.749  1.00  0.00    -0.233 OA 
HETATM    7  C   UNL     1      -7.793  12.004  71.611  1.00  0.00    11.323 C  
HETATM    8  C   UNL     1      -6.835  10.780  69.319  1.00  0.00    -0.092 C  
HETATM    9  C   UNL     1      -6.772  13.269  71.442  1.00  0.00     2.641 C  
HETATM   10  C   UNL     1      -7.478  14.071  70.208  1.00  0.00     1.049 C  
HETATM   11  O   UNL     1      -5.547  12.462  71.438  1.00  0.00    -0.384 OA 
HETATM   12  C   UNL     1      -6.216  14.472  72.237  1.00  0.00     0.682 C  
HETATM   13  C   UNL     1      -5.223  11.945  72.779  1.00  0.00     0.600 C  
HETATM   14  C   UNL     1     -11.547  12.017  67.650  1.00  0.00    -0.321 C  
HETATM   15  C   UNL     1      -8.154  15.507  70.081  1.00  0.00     0.607 C  
HETATM   16  C   UNL     1      -7.296  16.713  69.710  1.00  0.00     0.414 C  
HETATM   17  O   UNL     1     -13.774   7.875  67.879  1.00  0.00    15.785 OA 
HETATM   18  C   UNL     1      -9.308  15.393  69.037  1.00  0.00    -0.232 C  
HETATM   19  O   UNL     1      -9.197  15.886  67.908  1.00  0.00    -0.197 OA 
HETATM   20  N   UNL     1     -11.485   8.347  68.021  1.00  0.00     1.011 N  
HETATM   21  C   UNL     1     -10.534  14.563  69.412  1.00  0.00    -0.139 C  
HETATM   22  C   UNL     1     -11.560  14.387  68.331  1.00  0.00    -0.319 C  
HETATM   23  C   UNL     1     -11.239  15.067  70.667  1.00  0.00    -0.280 C  
HETATM   24  C   UNL     1     -12.829   8.637  67.831  1.00  0.00    11.051 C  
HETATM   25  O   UNL     1     -12.887   9.934  67.442  1.00  0.00     6.335 OA 
HETATM   26  C   UNL     1     -13.207  11.012  69.354  1.00  0.00     1.565 C  
HETATM   27  O   UNL     1     -12.074  15.280  67.655  1.00  0.00    -0.068 OA 
HETATM   28  O   UNL     1     -12.096  13.139  68.437  1.00  0.00    -0.318 OA 
HETATM   29  C   UNL     1     -12.022  10.685  68.364  1.00  0.00     0.187 C  
ENDROOT
BRANCH  10  30
HETATM   30  O   UNL     1      -7.387  13.389  69.005  1.00  0.00    -0.076 OA 
BRANCH  30  31
HETATM   31  C   UNL     1      -7.078  14.062  67.801  1.00  0.00    -0.173 C  
HETATM   32  C   UNL     1      -7.792  13.504  66.512  1.00  0.00     1.026 C  
HETATM   33  C   UNL     1      -8.049  14.635  65.474  1.00  0.00     4.163 C  
HETATM   34  O   UNL     1      -7.418  15.349  68.255  1.00  0.00    -0.107 OA 
HETATM   35  C   UNL     1      -7.811  16.357  67.377  1.00  0.00    -0.154 C  
HETATM   36  H   UNL     1      -7.400  12.121  65.170  1.00  0.00     0.000 HD 
HETATM   37  C   UNL     1      -8.608  15.880  66.178  1.00  0.00    -0.276 C  
HETATM   38  O   UNL     1      -6.969  12.458  65.947  1.00  0.00     1.375 OA 
HETATM   39  C   UNL     1      -8.687  17.264  68.249  1.00  0.00    -0.251 C  
BRANCH  33  40
HETATM   40  N   UNL     1      -8.828  14.385  64.228  1.00  0.00     4.927 NA 
HETATM   41  C   UNL     1      -8.399  14.965  62.957  1.00  0.00    21.815 C  
HETATM   42  C   UNL     1     -10.281  14.419  64.323  1.00  0.00     0.859 C  
ENDBRANCH  33  40
ENDBRANCH  30  31
ENDBRANCH  10  30
BRANCH  14  43
HETATM   43  C   UNL     1     -12.121  12.323  66.239  1.00  0.00    -0.154 C  
HETATM   44  C   UNL     1     -11.155  12.363  65.078  1.00  0.00    -0.344 C  
ENDBRANCH  14  43
BRANCH  20  45
HETATM   45  C   UNL     1     -10.901   8.143  66.689  1.00  0.00     0.420 C  
BRANCH  45  46
HETATM   46  C   UNL     1      -9.378   7.999  66.708  1.00  0.00    -0.229 C  
BRANCH  46  47
HETATM   47  C   UNL     1      -8.699   8.736  65.554  1.00  0.00    -0.217 C  
BRANCH  47  48
HETATM   48  C   UNL     1      -7.188   8.543  65.577  1.00  0.00    -0.083 C  
BRANCH  48  49
HETATM   49  N   UNL     1      -6.786   7.619  66.613  1.00  0.00    -0.060 NA 
HETATM   50  C   UNL     1      -5.533   7.471  67.133  1.00  0.00    -0.030 A  
HETATM   51  N   UNL     1      -5.496   6.487  68.005  1.00  0.00    -0.008 NA 
HETATM   52  C   UNL     1      -6.773   5.974  68.036  1.00  0.00    -0.061 A  
HETATM   53  C   UNL     1      -7.594   6.695  67.201  1.00  0.00    -0.096 A  
BRANCH  52  54
HETATM   54  C   UNL     1      -7.145   4.828  68.838  1.00  0.00    -0.053 A  
HETATM   55  C   UNL     1      -8.441   4.705  69.343  1.00  0.00    -0.094 A  
HETATM   56  C   UNL     1      -8.755   3.629  70.169  1.00  0.00    -0.122 A  
HETATM   57  C   UNL     1      -7.761   2.712  70.478  1.00  0.00    -0.043 A  
HETATM   58  N   UNL     1      -6.512   2.765  69.975  1.00  0.00    -0.028 NA 
HETATM   59  C   UNL     1      -6.238   3.825  69.171  1.00  0.00    -0.028 A  
ENDBRANCH  52  54
ENDBRANCH  48  49
ENDBRANCH  47  48
ENDBRANCH  46  47
ENDBRANCH  45  46
ENDBRANCH  20  45
TORSDOF 10
ENDMDL
MODEL       64
REMARK 921   NORMALIZED FREE ENERGY PREDICTED BY IDOCK:   79.76 KCAL/MOL
REMARK 922        TOTAL FREE ENERGY PREDICTED BY IDOCK:  126.79 KCAL/MOL
REMARK 923 INTER-LIGAND FREE ENERGY PREDICTED BY IDOCK:   73.39 KCAL/MOL
REMARK 924 INTRA-LIGAND FREE ENERGY PREDICTED BY IDOCK:   53.40 KCAL/MOL
REMARK 927      BINDING AFFINITY PREDICTED BY RF-SCORE:    0.00 PKD
ROOT
HETATM    1  C   UNL     1      -9.265  13.947  64.686  1.00  0.00     2.192 C  
HETATM    2  C   UNL     1     -10.074  15.391  64.728  1.00  0.00     0.158 C  
HETATM    3  C   UNL     1      -9.387  16.801  64.930  1.00  0.00     2.604 C  
HETATM    4  C   UNL     1     -11.626  15.468  64.800  1.00  0.00    -0.256 C  
HETATM    5  C   UNL     1      -9.682  17.790  66.092  1.00  0.00    -0.230 C  
HETATM    6  O   UNL     1      -8.639  17.220  64.032  1.00  0.00     8.568 OA 
HETATM    7  C   UNL     1      -8.264  18.299  66.748  1.00  0.00    -0.269 C  
HETATM    8  C   UNL     1     -10.854  17.339  66.948  1.00  0.00    -0.004 C  
HETATM    9  C   UNL     1      -8.335  18.988  68.228  1.00  0.00    -0.334 C  
HETATM   10  C   UNL     1      -8.224  17.671  69.185  1.00  0.00     0.082 C  
HETATM   11  O   UNL     1      -9.505  19.824  67.939  1.00  0.00    -0.331 OA 
HETATM   12  C   UNL     1      -7.577  20.004  69.112  1.00  0.00    -0.045 C  
HETATM   13  C   UNL     1      -9.171  20.955  67.056  1.00  0.00    -0.066 C  
HETATM   14  C   UNL     1      -8.327  12.857  67.153  1.00  0.00    -0.157 C  
HETATM   15  C   UNL     1      -7.142  17.175  70.243  1.00  0.00     1.541 C  
HETATM   16  C   UNL     1      -7.264  17.604  71.702  1.00  0.00     6.898 C  
HETATM   17  O   UNL     1      -8.973  11.180  62.801  1.00  0.00    -0.294 OA 
HETATM   18  C   UNL     1      -7.119  15.615  70.197  1.00  0.00     0.245 C  
HETATM   19  O   UNL     1      -7.606  14.943  71.113  1.00  0.00     1.387 OA 
HETATM   20  N   UNL     1     -10.044  12.955  63.890  1.00  0.00    -0.200 N  
HETATM   21  C   UNL     1      -6.574  14.945  68.937  1.00  0.00    -0.090 C  
HETATM   22  C   UNL     1      -6.684  13.448  68.894  1.00  0.00    -0.110 C  
HETATM   23  C   UNL     1      -5.133  15.332  68.627  1.00  0.00    -0.093 C  
HETATM   24  C   UNL     1      -9.186  11.870  63.778  1.00  0.00     0.253 C  
HETATM   25  O   UNL     1      -8.710  11.632  65.025  1.00  0.00     0.209 OA 
HETATM   26  C   UNL     1      -6.814  12.781  65.062  1.00  0.00     8.231 C  
HETATM   27  O   UNL     1      -6.310  12.661  69.765  1.00  0.00    -0.125 OA 
HETATM   28  O   UNL     1      -6.939  13.066  67.611  1.00  0.00    -0.125 OA 
HETATM   29  C   UNL     1      -8.299  12.934  65.571  1.00  0.00     2.201 C  
ENDROOT
BRANCH  10  30
HETATM   30  O   UNL     1      -9.352  16.868  69.124  1.00  0.00    -0.228 OA 
BRANCH  30  31
HETATM   31  C   UNL     1      -9.876  16.432  67.886  1.00  0.00    -0.238 C  
HETATM   32  C   UNL     1     -10.804  15.160  67.955  1.00  0.00    -0.284 C  
HETATM   33  C   UNL     1     -11.895  15.196  66.845  1.00  0.00     0.004 C  
HETATM   34  O   UNL     1     -10.449  17.663  67.521  1.00  0.00    -0.351 OA 
HETATM   35  C   UNL     1     -11.534  17.740  66.651  1.00  0.00     1.390 C  
HETATM   36  H   UNL     1     -10.537  13.214  67.876  1.00  0.00     0.000 HD 
HETATM   37  C   UNL     1     -12.522  16.594  66.765  1.00  0.00     3.622 C  
HETATM   38  O   UNL     1      -9.978  13.980  67.834  1.00  0.00    -0.227 OA 
HETATM   39  C   UNL     1     -12.218  19.052  67.053  1.00  0.00     3.487 C  
BRANCH  33  40
HETATM   40  N   UNL     1     -12.975  14.170  66.783  1.00  0.00     0.435 NA 
HETATM   41  C   UNL     1     -12.646  12.747  66.752  1.00  0.00     0.776 C  
HETATM   42  C   UNL     1     -14.107  14.435  65.906  1.00  0.00     4.328 C  
ENDBRANCH  33  40
ENDBRANCH  30  31
ENDBRANCH  10  30
BRANCH  14  43
HETATM   43  C   UNL     1      -8.660  11.486  67.803  1.00  0.00    -0.138 C  
HETATM   44  C   UNL     1      -9.569  11.478  69.009  1.00  0.00     0.045 C  
ENDBRANCH  14  43
BRANCH  20  45
HETATM   45  C   UNL     1     -11.304  12.445  64.448  1.00  0.00    -0.340 C  
BRANCH  45  46
HETATM   46  C   UNL     1     -11.729  11.098  63.861  1.00  0.00     0.443 C  
BRANCH  46  47
HETATM   47  C   UNL     1     -10.841   9.943  64.325  1.00  0.00     2.732 C  
BRANCH  47  48
HETATM   48  C   UNL     1     -11.598   8.622  64.329  1.00  0.00    14.986 C  
BRANCH  48  49
HETATM   49  N   UNL     1     -11.439   7.920  65.582  1.00  0.00     5.879 NA 
HETATM   50  C   UNL     1     -11.304   6.573  65.752  1.00  0.00     3.177 A  
HETATM   51  N   UNL     1     -11.258   6.260  67.029  1.00  0.00    -0.285 NA 
HETATM   52  C   UNL     1     -11.381   7.452  67.706  1.00  0.00     0.499 A  
HETATM   53  C   UNL     1     -11.457   8.497  66.815  1.00  0.00     2.502 A  
BRANCH  52  54
HETATM   54  C   UNL     1     -11.434   7.540  69.149  1.00  0.00     0.471 A  
HETATM   55  C   UNL     1     -11.534   8.780  69.783  1.00  0.00     0.210 A  
HETATM   56  C   UNL     1     -11.513   8.843  71.174  1.00  0.00    -0.364 A  
HETATM   57  C   UNL     1     -11.380   7.664  71.893  1.00  0.00    -0.266 A  
HETATM   58  N   UNL     1     -11.328   6.443  71.325  1.00  0.00    -0.294 NA 
HETATM   59  C   UNL     1     -11.353   6.416  69.967  1.00  0.00    -0.430 A  
ENDBRANCH  52  54
ENDBRANCH  48  49
ENDBRANCH  47  48
ENDBRANCH  46  47
ENDBRANCH  45  46
ENDBRANCH  20  45
TORSDOF 10
ENDMDL
MODEL       65
REMARK 921   NORMALIZED FREE ENERGY PREDICTED BY IDOCK:   82.24 KCAL/MOL
REMARK 922        TOTAL FREE ENERGY PREDICTED BY IDOCK:  130.72 KCAL/MOL
REMARK 923 INTER-LIGAND FREE ENERGY PREDICTED BY IDOCK:   94.21 KCAL/MOL
REMARK 924 INTRA-LIGAND FREE ENERGY PREDICTED BY IDOCK:   36.50 KCAL/MOL
REMARK 927      BINDING AFFINITY PREDICTED BY RF-SCORE:    0.00 PKD
ROOT
HETATM    1  C   UNL     1     -10.029   5.119  68.139  1.00  0.00    -0.145 C  
HETATM    2  C   UNL     1     -11.042   6.157  68.938  1.00  0.00    -0.417 C  
HETATM    3  C   UNL     1     -12.185   7.006  68.248  1.00  0.00     3.231 C  
HETATM    4  C   UNL     1     -10.809   6.564  70.420  1.00  0.00    -0.326 C  
HETATM    5  C   UNL     1     -12.284   8.557  68.255  1.00  0.00     4.482 C  
HETATM    6  O   UNL     1     -13.152   6.399  67.762  1.00  0.00     8.202 OA 
HETATM    7  C   UNL     1     -12.560   9.093  66.726  1.00  0.00    11.347 C  
HETATM    8  C   UNL     1     -11.244   9.197  69.160  1.00  0.00     0.147 C  
HETATM    9  C   UNL     1     -12.275  10.674  66.428  1.00  0.00     3.684 C  
HETATM   10  C   UNL     1     -10.687  10.633  66.052  1.00  0.00    -0.057 C  
HETATM   11  O   UNL     1     -12.922  11.166  67.649  1.00  0.00     2.830 OA 
HETATM   12  C   UNL     1     -12.726  11.815  65.489  1.00  0.00     1.931 C  
HETATM   13  C   UNL     1     -14.391  11.069  67.573  1.00  0.00    19.581 C  
HETATM   14  C   UNL     1      -7.912   6.236  66.581  1.00  0.00    -0.108 C  
HETATM   15  C   UNL     1      -9.868  10.962  64.727  1.00  0.00    -0.343 C  
HETATM   16  C   UNL     1      -9.376  12.385  64.479  1.00  0.00     0.456 C  
HETATM   17  O   UNL     1      -8.895   1.960  68.287  1.00  0.00    -0.078 OA 
HETATM   18  C   UNL     1      -8.634  10.007  64.687  1.00  0.00    -0.181 C  
HETATM   19  O   UNL     1      -7.494  10.430  64.910  1.00  0.00    -0.137 OA 
HETATM   20  N   UNL     1      -9.545   4.066  69.077  1.00  0.00    -0.173 N  
HETATM   21  C   UNL     1      -8.889   8.517  64.470  1.00  0.00     0.119 C  
HETATM   22  C   UNL     1      -7.682   7.629  64.559  1.00  0.00    -0.126 C  
HETATM   23  C   UNL     1      -9.614   8.216  63.163  1.00  0.00     3.099 C  
HETATM   24  C   UNL     1      -8.870   3.173  68.256  1.00  0.00    -0.121 C  
HETATM   25  O   UNL     1      -8.054   3.921  67.472  1.00  0.00    -0.089 OA 
HETATM   26  C   UNL     1      -9.276   4.250  65.652  1.00  0.00    -0.148 C  
HETATM   27  O   UNL     1      -6.616   7.779  63.961  1.00  0.00    -0.056 OA 
HETATM   28  O   UNL     1      -8.053   6.446  65.127  1.00  0.00    -0.127 OA 
HETATM   29  C   UNL     1      -8.869   5.032  66.960  1.00  0.00    -0.106 C  
ENDROOT
BRANCH  10  30
HETATM   30  O   UNL     1      -9.886  10.336  67.143  1.00  0.00    -0.173 OA 
BRANCH  30  31
HETATM   31  C   UNL     1      -9.595  11.308  68.127  1.00  0.00    -0.186 C  
HETATM   32  C   UNL     1     -10.255  11.061  69.537  1.00  0.00     0.005 C  
HETATM   33  C   UNL     1      -9.363  11.620  70.684  1.00  0.00     5.706 C  
HETATM   34  O   UNL     1      -8.195  11.223  68.016  1.00  0.00    -0.123 OA 
HETATM   35  C   UNL     1      -7.353  11.560  69.073  1.00  0.00    -0.094 C  
HETATM   36  H   UNL     1     -11.960  11.531  70.396  1.00  0.00     0.000 HD 
HETATM   37  C   UNL     1      -7.897  11.230  70.449  1.00  0.00     2.363 C  
HETATM   38  O   UNL     1     -11.562  11.680  69.547  1.00  0.00    -0.281 OA 
HETATM   39  C   UNL     1      -6.095  10.725  68.803  1.00  0.00    -0.040 C  
BRANCH  33  40
HETATM   40  N   UNL     1      -9.707  11.394  72.117  1.00  0.00    12.405 NA 
HETATM   41  C   UNL     1      -9.042  10.342  72.881  1.00  0.00    10.480 C  
HETATM   42  C   UNL     1     -11.112  11.466  72.492  1.00  0.00     8.802 C  
ENDBRANCH  33  40
ENDBRANCH  30  31
ENDBRANCH  10  30
BRANCH  14  43
HETATM   43  C   UNL     1      -6.381   6.009  66.711  1.00  0.00    -0.041 C  
HETATM   44  C   UNL     1      -5.538   7.157  67.217  1.00  0.00    -0.024 C  
ENDBRANCH  14  43
BRANCH  20  45
HETATM   45  C   UNL     1      -8.611   4.454  70.143  1.00  0.00    -0.073 C  
BRANCH  45  46
HETATM   46  C   UNL     1      -7.146   4.444  69.701  1.00  0.00    -0.050 C  
BRANCH  46  47
HETATM   47  C   UNL     1      -6.278   5.409  70.509  1.00  0.00    -0.026 C  
BRANCH  47  48
HETATM   48  C   UNL     1      -7.126   6.377  71.324  1.00  0.00    -0.077 C  
BRANCH  48  49
HETATM   49  N   UNL     1      -6.502   7.677  71.426  1.00  0.00    -0.038 NA 
HETATM   50  C   UNL     1      -5.903   8.209  72.529  1.00  0.00    -0.048 A  
HETATM   51  N   UNL     1      -5.506   9.443  72.303  1.00  0.00    -0.127 NA 
HETATM   52  C   UNL     1      -5.878   9.718  71.007  1.00  0.00    -0.082 A  
HETATM   53  C   UNL     1      -6.466   8.612  70.438  1.00  0.00    -0.036 A  
BRANCH  52  54
HETATM   54  C   UNL     1      -5.672  11.006  70.381  1.00  0.00    -0.130 A  
HETATM   55  C   UNL     1      -5.471  11.104  69.003  1.00  0.00    -0.040 A  
HETATM   56  C   UNL     1      -5.206  12.347  68.435  1.00  0.00    -0.055 A  
HETATM   57  C   UNL     1      -5.137  13.458  69.263  1.00  0.00    -0.074 A  
HETATM   58  N   UNL     1      -5.372  13.418  70.590  1.00  0.00    -0.130 NA 
HETATM   59  C   UNL     1      -5.629  12.191  71.112  1.00  0.00     0.032 A  
ENDBRANCH  52  54
ENDBRANCH  48  49
ENDBRANCH  47  48
ENDBRANCH  46  47
ENDBRANCH  45  46
ENDBRANCH  20  45
TORSDOF 10
ENDMDL
MODEL       66
REMARK 921   NORMALIZED FREE ENERGY PREDICTED BY IDOCK:   82.63 KCAL/MOL
REMARK 922        TOTAL FREE ENERGY PREDICTED BY IDOCK:  131.34 KCAL/MOL
REMARK 923 INTER-LIGAND FREE ENERGY PREDICTED BY IDOCK:   16.60 KCAL/MOL
REMARK 924 INTRA-LIGAND FREE ENERGY PREDICTED BY IDOCK:  114.74 KCAL/MOL
REMARK 927      BINDING AFFINITY PREDICTED BY RF-SCORE:    0.00 PKD
ROOT
HETATM    1  C   UNL     1      -9.409  12.270  66.243  1.00  0.00    -0.206 C  
HETATM    2  C   UNL     1     -10.886  13.014  66.329  1.00  0.00    -0.295 C  
HETATM    3  C   UNL     1     -11.168  14.506  65.884  1.00  0.00    -0.331 C  
HETATM    4  C   UNL     1     -12.091  12.377  67.077  1.00  0.00    -0.081 C  
HETATM    5  C   UNL     1     -11.706  15.636  66.806  1.00  0.00     0.367 C  
HETATM    6  O   UNL     1     -11.072  14.783  64.678  1.00  0.00    -0.371 OA 
HETATM    7  C   UNL     1     -10.778  16.979  66.621  1.00  0.00    -0.092 C  
HETATM    8  C   UNL     1     -12.113  15.116  68.176  1.00  0.00    -0.009 C  
HETATM    9  C   UNL     1     -10.887  18.124  67.781  1.00  0.00    -0.228 C  
HETATM   10  C   UNL     1      -9.773  17.588  68.847  1.00  0.00    -0.259 C  
HETATM   11  O   UNL     1     -12.350  18.089  67.878  1.00  0.00     2.595 OA 
HETATM   12  C   UNL     1     -10.711  19.647  67.980  1.00  0.00    -0.333 C  
HETATM   13  C   UNL     1     -12.995  18.724  66.716  1.00  0.00     8.320 C  
HETATM   14  C   UNL     1      -7.437  12.959  68.190  1.00  0.00    -0.126 C  
HETATM   15  C   UNL     1      -8.395  18.180  69.381  1.00  0.00     0.435 C  
HETATM   16  C   UNL     1      -8.391  19.093  70.603  1.00  0.00     2.744 C  
HETATM   17  O   UNL     1      -7.975   9.459  65.087  1.00  0.00    -0.109 OA 
HETATM   18  C   UNL     1      -7.445  16.976  69.671  1.00  0.00     0.416 C  
HETATM   19  O   UNL     1      -7.185  16.636  70.831  1.00  0.00     2.534 OA 
HETATM   20  N   UNL     1      -9.595  10.795  66.125  1.00  0.00    -0.187 N  
HETATM   21  C   UNL     1      -6.935  16.165  68.483  1.00  0.00    -0.137 C  
HETATM   22  C   UNL     1      -6.123  14.948  68.822  1.00  0.00    -0.083 C  
HETATM   23  C   UNL     1      -6.151  17.001  67.477  1.00  0.00    -0.163 C  
HETATM   24  C   UNL     1      -8.315  10.317  65.877  1.00  0.00    -0.145 C  
HETATM   25  O   UNL     1      -7.506  10.906  66.791  1.00  0.00    -0.120 OA 
HETATM   26  C   UNL     1      -6.754  12.692  65.714  1.00  0.00     4.083 C  
HETATM   27  O   UNL     1      -5.152  14.902  69.578  1.00  0.00    -0.089 OA 
HETATM   28  O   UNL     1      -6.399  13.972  67.912  1.00  0.00    -0.134 OA 
HETATM   29  C   UNL     1      -7.849  12.336  66.793  1.00  0.00     0.047 C  
ENDROOT
BRANCH  10  30
HETATM   30  O   UNL     1     -10.158  16.417  69.480  1.00  0.00    -0.251 OA 
BRANCH  30  31
HETATM   31  C   UNL     1      -9.905  15.152  68.901  1.00  0.00    -0.229 C  
HETATM   32  C   UNL     1     -10.817  13.976  69.420  1.00  0.00    -0.105 C  
HETATM   33  C   UNL     1     -11.051  12.911  68.310  1.00  0.00    -0.264 C  
HETATM   34  O   UNL     1     -10.038  15.567  67.564  1.00  0.00    -0.237 OA 
HETATM   35  C   UNL     1     -10.404  14.681  66.553  1.00  0.00    -0.282 C  
HETATM   36  H   UNL     1     -10.741  12.679  70.896  1.00  0.00     0.000 HD 
HETATM   37  C   UNL     1     -11.378  13.599  66.978  1.00  0.00    -0.344 C  
HETATM   38  O   UNL     1     -10.191  13.387  70.583  1.00  0.00     2.858 OA 
HETATM   39  C   UNL     1     -11.064  15.588  65.509  1.00  0.00    -0.265 C  
BRANCH  33  40
HETATM   40  N   UNL     1     -11.986  11.767  68.514  1.00  0.00    -0.461 NA 
HETATM   41  C   UNL     1     -12.584  11.524  69.824  1.00  0.00     0.057 C  
HETATM   42  C   UNL     1     -11.652  10.501  67.879  1.00  0.00     0.047 C  
ENDBRANCH  33  40
ENDBRANCH  30  31
ENDBRANCH  10  30
BRANCH  14  43
HETATM   43  C   UNL     1      -6.702  12.038  69.202  1.00  0.00    -0.101 C  
HETATM   44  C   UNL     1      -5.535  11.222  68.696  1.00  0.00    -0.043 C  
ENDBRANCH  14  43
BRANCH  20  45
HETATM   45  C   UNL     1     -10.106  10.058  67.288  1.00  0.00    -0.209 C  
BRANCH  45  46
HETATM   46  C   UNL     1      -9.369  10.387  68.588  1.00  0.00    -0.167 C  
BRANCH  46  47
HETATM   47  C   UNL     1      -8.083   9.578  68.760  1.00  0.00    -0.096 C  
BRANCH  47  48
HETATM   48  C   UNL     1      -7.796   8.715  67.538  1.00  0.00    -0.102 C  
BRANCH  48  49
HETATM   49  N   UNL     1      -8.364   7.393  67.675  1.00  0.00    -0.117 NA 
HETATM   50  C   UNL     1      -9.548   6.956  67.157  1.00  0.00    -0.147 A  
HETATM   51  N   UNL     1      -9.803   5.723  67.535  1.00  0.00    -0.122 NA 
HETATM   52  C   UNL     1      -8.747   5.358  68.340  1.00  0.00    -0.098 A  
HETATM   53  C   UNL     1      -7.827   6.377  68.404  1.00  0.00    -0.105 A  
BRANCH  52  54
HETATM   54  C   UNL     1      -8.670   4.079  69.011  1.00  0.00    -0.130 A  
HETATM   55  C   UNL     1      -9.159   2.923  68.399  1.00  0.00    -0.217 A  
HETATM   56  C   UNL     1      -9.136   1.717  69.094  1.00  0.00    -0.161 A  
HETATM   57  C   UNL     1      -8.636   1.702  70.388  1.00  0.00    -0.048 A  
HETATM   58  N   UNL     1      -8.111   2.782  71.000  1.00  0.00    -0.053 NA 
HETATM   59  C   UNL     1      -8.147   3.942  70.295  1.00  0.00    -0.050 A  
ENDBRANCH  52  54
ENDBRANCH  48  49
ENDBRANCH  47  48
ENDBRANCH  46  47
ENDBRANCH  45  46
ENDBRANCH  20  45
TORSDOF 10
ENDMDL
MODEL       67
REMARK 921   NORMALIZED FREE ENERGY PREDICTED BY IDOCK:   88.35 KCAL/MOL
REMARK 922        TOTAL FREE ENERGY PREDICTED BY IDOCK:  140.40 KCAL/MOL
REMARK 923 INTER-LIGAND FREE ENERGY PREDICTED BY IDOCK:   50.25 KCAL/MOL
REMARK 924 INTRA-LIGAND FREE ENERGY PREDICTED BY IDOCK:   90.14 KCAL/MOL
REMARK 927      BINDING AFFINITY PREDICTED BY RF-SCORE:    0.00 PKD
ROOT
HETATM    1  C   UNL     1      -7.938   5.985  67.318  1.00  0.00    -0.102 C  
HETATM    2  C   UNL     1      -6.849   6.364  68.507  1.00  0.00    -0.071 C  
HETATM    3  C   UNL     1      -6.337   5.355  69.612  1.00  0.00    -0.030 C  
HETATM    4  C   UNL     1      -6.400   7.827  68.783  1.00  0.00    -0.043 C  
HETATM    5  C   UNL     1      -6.502   5.539  71.147  1.00  0.00    -0.036 C  
HETATM    6  O   UNL     1      -5.641   4.394  69.248  1.00  0.00    -0.014 OA 
HETATM    7  C   UNL     1      -7.089   4.152  71.802  1.00  0.00    -0.049 C  
HETATM    8  C   UNL     1      -7.064   6.905  71.506  1.00  0.00    -0.075 C  
HETATM    9  C   UNL     1      -7.737   4.252  73.300  1.00  0.00    -0.082 C  
HETATM   10  C   UNL     1      -9.278   4.653  72.941  1.00  0.00    -0.123 C  
HETATM   11  O   UNL     1      -6.671   5.090  73.858  1.00  0.00    -0.066 OA 
HETATM   12  C   UNL     1      -7.988   3.387  74.555  1.00  0.00    -0.065 C  
HETATM   13  C   UNL     1      -5.428   4.329  74.079  1.00  0.00    -0.008 C  
HETATM   14  C   UNL     1     -10.693   5.765  68.035  1.00  0.00    -0.209 C  
HETATM   15  C   UNL     1     -10.676   3.921  73.153  1.00  0.00    -0.270 C  
HETATM   16  C   UNL     1     -11.451   4.138  74.449  1.00  0.00     1.133 C  
HETATM   17  O   UNL     1      -8.326   6.183  63.986  1.00  0.00    -0.066 OA 
HETATM   18  C   UNL     1     -11.601   4.319  71.961  1.00  0.00     1.482 C  
HETATM   19  O   UNL     1     -12.543   5.104  72.120  1.00  0.00     0.950 OA 
HETATM   20  N   UNL     1      -7.729   6.878  66.141  1.00  0.00    -0.089 N  
HETATM   21  C   UNL     1     -11.244   3.797  70.571  1.00  0.00     4.412 C  
HETATM   22  C   UNL     1     -12.094   4.305  69.443  1.00  0.00    12.501 C  
HETATM   23  C   UNL     1     -11.202   2.274  70.495  1.00  0.00     4.941 C  
HETATM   24  C   UNL     1      -8.561   6.343  65.167  1.00  0.00    -0.002 C  
HETATM   25  O   UNL     1      -9.763   6.144  65.761  1.00  0.00     0.088 OA 
HETATM   26  C   UNL     1      -9.645   4.034  66.431  1.00  0.00    -0.217 C  
HETATM   27  O   UNL     1     -13.325   4.297  69.392  1.00  0.00    20.348 OA 
HETATM   28  O   UNL     1     -11.309   4.459  68.340  1.00  0.00     3.066 OA 
HETATM   29  C   UNL     1      -9.490   5.480  67.044  1.00  0.00    -0.131 C  
ENDROOT
BRANCH  10  30
HETATM   30  O   UNL     1      -9.392   5.935  72.428  1.00  0.00    -0.144 OA 
BRANCH  30  31
HETATM   31  C   UNL     1      -9.608   6.157  71.049  1.00  0.00    -0.175 C  
HETATM   32  C   UNL     1      -8.790   7.349  70.421  1.00  0.00    -0.149 C  
HETATM   33  C   UNL     1      -8.456   7.078  68.925  1.00  0.00    -0.125 C  
HETATM   34  O   UNL     1      -9.312   4.846  70.635  1.00  0.00    -0.145 OA 
HETATM   35  C   UNL     1      -8.854   4.568  69.349  1.00  0.00    -0.089 C  
HETATM   36  H   UNL     1      -9.066   9.282  70.191  1.00  0.00     0.000 HD 
HETATM   37  C   UNL     1      -7.961   5.636  68.747  1.00  0.00    -0.097 C  
HETATM   38  O   UNL     1      -9.559   8.564  70.569  1.00  0.00    -0.162 OA 
HETATM   39  C   UNL     1      -8.055   3.271  69.531  1.00  0.00    -0.061 C  
BRANCH  33  40
HETATM   40  N   UNL     1      -7.578   7.997  68.145  1.00  0.00    -0.107 NA 
HETATM   41  C   UNL     1      -6.439   7.474  67.394  1.00  0.00    -0.058 C  
HETATM   42  C   UNL     1      -7.226   9.272  68.754  1.00  0.00    -0.074 C  
ENDBRANCH  33  40
ENDBRANCH  30  31
ENDBRANCH  10  30
BRANCH  14  43
HETATM   43  C   UNL     1     -11.910   6.556  67.482  1.00  0.00     1.486 C  
HETATM   44  C   UNL     1     -11.854   8.065  67.530  1.00  0.00     3.102 C  
ENDBRANCH  14  43
BRANCH  20  45
HETATM   45  C   UNL     1      -8.082   8.298  66.269  1.00  0.00    -0.109 C  
BRANCH  45  46
HETATM   46  C   UNL     1      -8.880   8.837  65.081  1.00  0.00    -0.177 C  
BRANCH  46  47
HETATM   47  C   UNL     1      -9.008  10.360  65.094  1.00  0.00    -0.217 C  
BRANCH  47  48
HETATM   48  C   UNL     1      -8.437  10.958  66.374  1.00  0.00    -0.163 C  
BRANCH  48  49
HETATM   49  N   UNL     1      -9.115  12.181  66.739  1.00  0.00    -0.202 NA 
HETATM   50  C   UNL     1      -8.805  13.442  66.321  1.00  0.00     0.249 A  
HETATM   51  N   UNL     1      -9.572  14.336  66.904  1.00  0.00    -0.252 NA 
HETATM   52  C   UNL     1     -10.400  13.622  67.741  1.00  0.00    -0.241 A  
HETATM   53  C   UNL     1     -10.149  12.275  67.619  1.00  0.00    -0.200 A  
BRANCH  52  54
HETATM   54  C   UNL     1     -11.369  14.245  68.617  1.00  0.00    -0.302 A  
HETATM   55  C   UNL     1     -11.063  15.433  69.284  1.00  0.00    -0.280 A  
HETATM   56  C   UNL     1     -11.987  15.976  70.174  1.00  0.00    -0.213 A  
HETATM   57  C   UNL     1     -13.185  15.309  70.381  1.00  0.00    -0.131 A  
HETATM   58  N   UNL     1     -13.541  14.187  69.725  1.00  0.00     1.612 NA 
HETATM   59  C   UNL     1     -12.620  13.684  68.863  1.00  0.00     0.505 A  
ENDBRANCH  52  54
ENDBRANCH  48  49
ENDBRANCH  47  48
ENDBRANCH  46  47
ENDBRANCH  45  46
ENDBRANCH  20  45
TORSDOF 10
ENDMDL
MODEL       68
REMARK 921   NORMALIZED FREE ENERGY PREDICTED BY IDOCK:   92.78 KCAL/MOL
REMARK 922        TOTAL FREE ENERGY PREDICTED BY IDOCK:  147.41 KCAL/MOL
REMARK 923 INTER-LIGAND FREE ENERGY PREDICTED BY IDOCK:   47.85 KCAL/MOL
REMARK 924 INTRA-LIGAND FREE ENERGY PREDICTED BY IDOCK:   99.57 KCAL/MOL
REMARK 927      BINDING AFFINITY PREDICTED BY RF-SCORE:    0.00 PKD
ROOT
HETATM    1  C   UNL     1      -7.853   5.661  67.213  1.00  0.00    -0.101 C  
HETATM    2  C   UNL     1      -6.764   6.040  68.402  1.00  0.00    -0.064 C  
HETATM    3  C   UNL     1      -6.253   5.031  69.507  1.00  0.00    -0.029 C  
HETATM    4  C   UNL     1      -6.316   7.503  68.677  1.00  0.00    -0.040 C  
HETATM    5  C   UNL     1      -6.417   5.214  71.041  1.00  0.00    -0.027 C  
HETATM    6  O   UNL     1      -5.556   4.069  69.143  1.00  0.00    -0.015 OA 
HETATM    7  C   UNL     1      -7.005   3.827  71.697  1.00  0.00    -0.031 C  
HETATM    8  C   UNL     1      -6.979   6.580  71.401  1.00  0.00    -0.075 C  
HETATM    9  C   UNL     1      -7.652   3.928  73.194  1.00  0.00    -0.074 C  
HETATM   10  C   UNL     1      -9.193   4.329  72.836  1.00  0.00    -0.112 C  
HETATM   11  O   UNL     1      -6.586   4.766  73.753  1.00  0.00    -0.058 OA 
HETATM   12  C   UNL     1      -7.904   3.062  74.450  1.00  0.00    -0.060 C  
HETATM   13  C   UNL     1      -5.344   4.005  73.974  1.00  0.00    -0.004 C  
HETATM   14  C   UNL     1     -10.608   5.441  67.929  1.00  0.00    -0.090 C  
HETATM   15  C   UNL     1     -10.592   3.596  73.047  1.00  0.00    -0.252 C  
HETATM   16  C   UNL     1     -11.367   3.814  74.343  1.00  0.00     0.709 C  
HETATM   17  O   UNL     1      -8.241   5.859  63.881  1.00  0.00    -0.118 OA 
HETATM   18  C   UNL     1     -11.517   3.995  71.856  1.00  0.00     1.779 C  
HETATM   19  O   UNL     1     -12.459   4.780  72.015  1.00  0.00     1.722 OA 
HETATM   20  N   UNL     1      -7.645   6.554  66.036  1.00  0.00    -0.084 N  
HETATM   21  C   UNL     1     -11.159   3.472  70.466  1.00  0.00     4.095 C  
HETATM   22  C   UNL     1     -12.009   3.980  69.338  1.00  0.00    12.663 C  
HETATM   23  C   UNL     1     -11.117   1.950  70.390  1.00  0.00     3.864 C  
HETATM   24  C   UNL     1      -8.476   6.019  65.062  1.00  0.00    -0.089 C  
HETATM   25  O   UNL     1      -9.678   5.820  65.656  1.00  0.00     0.043 OA 
HETATM   26  C   UNL     1      -9.560   3.709  66.326  1.00  0.00    -0.146 C  
HETATM   27  O   UNL     1     -13.240   3.973  69.287  1.00  0.00    21.544 OA 
HETATM   28  O   UNL     1     -11.224   4.134  68.235  1.00  0.00     3.066 OA 
HETATM   29  C   UNL     1      -9.406   5.155  66.939  1.00  0.00    -0.128 C  
ENDROOT
BRANCH  10  30
HETATM   30  O   UNL     1      -9.308   5.610  72.323  1.00  0.00    -0.145 OA 
BRANCH  30  31
HETATM   31  C   UNL     1      -9.523   5.833  70.944  1.00  0.00    -0.165 C  
HETATM   32  C   UNL     1      -8.705   7.024  70.315  1.00  0.00    -0.144 C  
HETATM   33  C   UNL     1      -8.371   6.753  68.819  1.00  0.00    -0.121 C  
HETATM   34  O   UNL     1      -9.227   4.522  70.530  1.00  0.00    -0.107 OA 
HETATM   35  C   UNL     1      -8.769   4.243  69.244  1.00  0.00    -0.084 C  
HETATM   36  H   UNL     1      -8.981   8.958  70.086  1.00  0.00     0.000 HD 
HETATM   37  C   UNL     1      -7.877   5.311  68.642  1.00  0.00    -0.086 C  
HETATM   38  O   UNL     1      -9.475   8.239  70.464  1.00  0.00    -0.163 OA 
HETATM   39  C   UNL     1      -7.971   2.947  69.425  1.00  0.00    -0.055 C  
BRANCH  33  40
HETATM   40  N   UNL     1      -7.493   7.672  68.040  1.00  0.00    -0.102 NA 
HETATM   41  C   UNL     1      -6.355   7.149  67.289  1.00  0.00    -0.049 C  
HETATM   42  C   UNL     1      -7.141   8.947  68.648  1.00  0.00    -0.071 C  
ENDBRANCH  33  40
ENDBRANCH  30  31
ENDBRANCH  10  30
BRANCH  14  43
HETATM   43  C   UNL     1     -11.826   6.231  67.376  1.00  0.00     1.676 C  
HETATM   44  C   UNL     1     -11.769   7.740  67.424  1.00  0.00     2.227 C  
ENDBRANCH  14  43
BRANCH  20  45
HETATM   45  C   UNL     1      -7.997   7.974  66.164  1.00  0.00    -0.103 C  
BRANCH  45  46
HETATM   46  C   UNL     1      -9.110   8.235  67.181  1.00  0.00    -0.162 C  
BRANCH  46  47
HETATM   47  C   UNL     1      -9.651   9.663  67.113  1.00  0.00    -0.210 C  
BRANCH  47  48
HETATM   48  C   UNL     1      -8.843  10.522  66.149  1.00  0.00    -0.159 C  
BRANCH  48  49
HETATM   49  N   UNL     1      -8.840  11.912  66.548  1.00  0.00    -0.195 NA 
HETATM   50  C   UNL     1      -9.760  12.859  66.211  1.00  0.00    -0.268 A  
HETATM   51  N   UNL     1      -9.417  14.040  66.677  1.00  0.00    -0.280 NA 
HETATM   52  C   UNL     1      -8.220  13.845  67.329  1.00  0.00    -0.161 A  
HETATM   53  C   UNL     1      -7.869  12.516  67.287  1.00  0.00    -0.160 A  
BRANCH  52  54
HETATM   54  C   UNL     1      -7.468  14.919  67.941  1.00  0.00    -0.153 A  
HETATM   55  C   UNL     1      -7.382  16.169  67.324  1.00  0.00    -0.226 A  
HETATM   56  C   UNL     1      -6.597  17.165  67.900  1.00  0.00    -0.154 A  
HETATM   57  C   UNL     1      -5.909  16.879  69.070  1.00  0.00    -0.153 A  
HETATM   58  N   UNL     1      -6.000  15.704  69.724  1.00  0.00    -0.144 NA 
HETATM   59  C   UNL     1      -6.776  14.755  69.139  1.00  0.00    -0.123 A  
ENDBRANCH  52  54
ENDBRANCH  48  49
ENDBRANCH  47  48
ENDBRANCH  46  47
ENDBRANCH  45  46
ENDBRANCH  20  45
TORSDOF 10
ENDMDL
MODEL       69
REMARK 921   NORMALIZED FREE ENERGY PREDICTED BY IDOCK:   98.51 KCAL/MOL
REMARK 922        TOTAL FREE ENERGY PREDICTED BY IDOCK:  156.50 KCAL/MOL
REMARK 923 INTER-LIGAND FREE ENERGY PREDICTED BY IDOCK:   30.60 KCAL/MOL
REMARK 924 INTRA-LIGAND FREE ENERGY PREDICTED BY IDOCK:  125.91 KCAL/MOL
REMARK 927      BINDING AFFINITY PREDICTED BY RF-SCORE:    0.00 PKD
ROOT
HETATM    1  C   UNL     1      -8.637  12.643  66.173  1.00  0.00     0.422 C  
HETATM    2  C   UNL     1     -10.176  13.248  66.077  1.00  0.00    -0.291 C  
HETATM    3  C   UNL     1     -10.535  14.725  65.641  1.00  0.00    -0.349 C  
HETATM    4  C   UNL     1     -11.406  12.475  66.633  1.00  0.00    -0.389 C  
HETATM    5  C   UNL     1     -11.296  15.763  66.512  1.00  0.00     0.132 C  
HETATM    6  O   UNL     1     -10.304  15.060  64.468  1.00  0.00    -0.144 OA 
HETATM    7  C   UNL     1     -10.482  17.191  66.495  1.00  0.00    -0.255 C  
HETATM    8  C   UNL     1     -11.833  15.153  67.796  1.00  0.00    -0.165 C  
HETATM    9  C   UNL     1     -10.854  18.273  67.662  1.00  0.00    -0.244 C  
HETATM   10  C   UNL     1      -9.848  17.794  68.856  1.00  0.00    -0.290 C  
HETATM   11  O   UNL     1     -12.306  18.102  67.555  1.00  0.00     2.920 OA 
HETATM   12  C   UNL     1     -10.850  19.795  67.927  1.00  0.00    -0.234 C  
HETATM   13  C   UNL     1     -12.847  18.725  66.335  1.00  0.00     8.879 C  
HETATM   14  C   UNL     1      -7.019  13.424  68.393  1.00  0.00    -0.105 C  
HETATM   15  C   UNL     1      -8.616  18.484  69.591  1.00  0.00     0.817 C  
HETATM   16  C   UNL     1      -8.862  19.343  70.828  1.00  0.00     2.583 C  
HETATM   17  O   UNL     1      -6.803  10.022  65.145  1.00  0.00    -0.117 OA 
HETATM   18  C   UNL     1      -7.605  17.359  69.974  1.00  0.00     1.537 C  
HETATM   19  O   UNL     1      -7.472  16.995  71.148  1.00  0.00     4.402 OA 
HETATM   20  N   UNL     1      -8.666  11.163  65.988  1.00  0.00    -0.189 N  
HETATM   21  C   UNL     1      -6.865  16.646  68.845  1.00  0.00    -0.191 C  
HETATM   22  C   UNL     1      -5.996  15.494  69.257  1.00  0.00    -0.112 C  
HETATM   23  C   UNL     1      -6.035  17.590  67.981  1.00  0.00    -0.152 C  
HETATM   24  C   UNL     1      -7.325  10.813  65.905  1.00  0.00    -0.094 C  
HETATM   25  O   UNL     1      -6.706  11.433  66.939  1.00  0.00    -0.124 OA 
HETATM   26  C   UNL     1      -5.987  13.322  66.028  1.00  0.00     5.189 C  
HETATM   27  O   UNL     1      -5.135  15.504  70.138  1.00  0.00    -0.106 OA 
HETATM   28  O   UNL     1      -6.053  14.536  68.290  1.00  0.00    -0.098 OA 
HETATM   29  C   UNL     1      -7.178  12.825  66.935  1.00  0.00     0.292 C  
ENDROOT
BRANCH  10  30
HETATM   30  O   UNL     1     -10.202  16.568  69.395  1.00  0.00    -0.274 OA 
BRANCH  30  31
HETATM   31  C   UNL     1     -10.606  15.492  68.571  1.00  0.00    -0.246 C  
HETATM   32  C   UNL     1     -11.801  15.802  67.592  1.00  0.00     0.245 C  
HETATM   33  C   UNL     1     -11.690  14.967  66.283  1.00  0.00    -0.096 C  
HETATM   34  O   UNL     1      -9.337  15.235  68.023  1.00  0.00    -0.194 OA 
HETATM   35  C   UNL     1      -9.184  14.632  66.777  1.00  0.00    -0.264 C  
HETATM   36  H   UNL     1     -13.763  15.715  67.690  1.00  0.00     0.000 HD 
HETATM   37  C   UNL     1     -10.248  14.996  65.759  1.00  0.00    -0.361 C  
HETATM   38  O   UNL     1     -13.043  15.527  68.280  1.00  0.00     1.775 OA 
HETATM   39  C   UNL     1      -7.819  15.145  66.301  1.00  0.00     1.014 C  
BRANCH  33  40
HETATM   40  N   UNL     1     -12.629  15.178  65.144  1.00  0.00     0.205 NA 
HETATM   41  C   UNL     1     -13.782  16.063  65.288  1.00  0.00     4.409 C  
HETATM   42  C   UNL     1     -12.994  14.015  64.347  1.00  0.00     0.446 C  
ENDBRANCH  33  40
ENDBRANCH  30  31
ENDBRANCH  10  30
BRANCH  14  43
HETATM   43  C   UNL     1      -6.344  12.531  69.469  1.00  0.00    -0.112 C  
HETATM   44  C   UNL     1      -6.648  12.822  70.920  1.00  0.00     1.643 C  
ENDBRANCH  14  43
BRANCH  20  45
HETATM   45  C   UNL     1      -9.257  10.336  67.048  1.00  0.00    -0.150 C  
BRANCH  45  46
HETATM   46  C   UNL     1      -8.743  10.682  68.447  1.00  0.00    -0.141 C  
BRANCH  46  47
HETATM   47  C   UNL     1      -7.401  10.022  68.765  1.00  0.00    -0.078 C  
BRANCH  47  48
HETATM   48  C   UNL     1      -6.845   9.277  67.559  1.00  0.00    -0.077 C  
BRANCH  48  49
HETATM   49  N   UNL     1      -7.256   7.891  67.552  1.00  0.00    -0.086 NA 
HETATM   50  C   UNL     1      -8.508   7.411  67.801  1.00  0.00    -0.118 A  
HETATM   51  N   UNL     1      -8.522   6.096  67.791  1.00  0.00    -0.116 NA 
HETATM   52  C   UNL     1      -7.222   5.717  67.540  1.00  0.00    -0.076 A  
HETATM   53  C   UNL     1      -6.432   6.827  67.352  1.00  0.00    -0.049 A  
BRANCH  52  54
HETATM   54  C   UNL     1      -6.795   4.335  67.503  1.00  0.00    -0.052 A  
HETATM   55  C   UNL     1      -7.359   3.440  66.591  1.00  0.00    -0.075 A  
HETATM   56  C   UNL     1      -6.981   2.100  66.622  1.00  0.00    -0.044 A  
HETATM   57  C   UNL     1      -6.058   1.689  67.573  1.00  0.00    -0.020 A  
HETATM   58  N   UNL     1      -5.454   2.526  68.439  1.00  0.00    -0.017 NA 
HETATM   59  C   UNL     1      -5.843   3.825  68.382  1.00  0.00    -0.026 A  
ENDBRANCH  52  54
ENDBRANCH  48  49
ENDBRANCH  47  48
ENDBRANCH  46  47
ENDBRANCH  45  46
ENDBRANCH  20  45
TORSDOF 10
ENDMDL
MODEL       70
REMARK 921   NORMALIZED FREE ENERGY PREDICTED BY IDOCK:  101.60 KCAL/MOL
REMARK 922        TOTAL FREE ENERGY PREDICTED BY IDOCK:  161.39 KCAL/MOL
REMARK 923 INTER-LIGAND FREE ENERGY PREDICTED BY IDOCK:   89.14 KCAL/MOL
REMARK 924 INTRA-LIGAND FREE ENERGY PREDICTED BY IDOCK:   72.25 KCAL/MOL
REMARK 927      BINDING AFFINITY PREDICTED BY RF-SCORE:    0.00 PKD
ROOT
HETATM    1  C   UNL     1      -9.778  11.435  70.450  1.00  0.00     3.008 C  
HETATM    2  C   UNL     1      -9.081  11.519  68.949  1.00  0.00     0.015 C  
HETATM    3  C   UNL     1      -7.818  12.402  68.593  1.00  0.00    -0.049 C  
HETATM    4  C   UNL     1      -9.755  10.906  67.689  1.00  0.00    -0.188 C  
HETATM    5  C   UNL     1      -7.781  13.536  67.531  1.00  0.00    -0.182 C  
HETATM    6  O   UNL     1      -6.730  12.098  69.107  1.00  0.00    -0.099 OA 
HETATM    7  C   UNL     1      -7.087  14.874  68.186  1.00  0.00    -0.124 C  
HETATM    8  C   UNL     1      -9.064  13.606  66.718  1.00  0.00    -0.230 C  
HETATM    9  C   UNL     1      -7.329  16.292  67.412  1.00  0.00    -0.163 C  
HETATM   10  C   UNL     1      -8.733  16.775  68.089  1.00  0.00    -0.219 C  
HETATM   11  O   UNL     1      -7.087  15.762  66.066  1.00  0.00     0.893 OA 
HETATM   12  C   UNL     1      -6.662  17.671  67.205  1.00  0.00    -0.192 C  
HETATM   13  C   UNL     1      -5.658  15.488  65.829  1.00  0.00     6.090 C  
HETATM   14  C   UNL     1     -11.381  13.632  71.317  1.00  0.00     1.631 C  
HETATM   15  C   UNL     1      -9.137  18.015  69.003  1.00  0.00    -0.037 C  
HETATM   16  C   UNL     1      -9.586  19.318  68.349  1.00  0.00    -0.450 C  
HETATM   17  O   UNL     1     -10.790   9.178  72.725  1.00  0.00     0.530 OA 
HETATM   18  C   UNL     1     -10.269  17.540  69.966  1.00  0.00     0.690 C  
HETATM   19  O   UNL     1     -11.440  17.905  69.803  1.00  0.00     2.060 OA 
HETATM   20  N   UNL     1     -10.478  10.127  70.607  1.00  0.00    -0.146 N  
HETATM   21  C   UNL     1      -9.909  16.526  71.050  1.00  0.00     2.899 C  
HETATM   22  C   UNL     1     -11.056  16.013  71.872  1.00  0.00     0.284 C  
HETATM   23  C   UNL     1      -8.821  17.021  71.997  1.00  0.00    12.553 C  
HETATM   24  C   UNL     1     -10.849  10.107  71.944  1.00  0.00     1.768 C  
HETATM   25  O   UNL     1     -11.425  11.308  72.197  1.00  0.00     2.764 OA 
HETATM   26  C   UNL     1      -9.734  12.519  72.966  1.00  0.00    22.523 C  
HETATM   27  O   UNL     1     -11.904  16.692  72.452  1.00  0.00    -0.491 OA 
HETATM   28  O   UNL     1     -10.827  14.703  72.169  1.00  0.00     0.785 OA 
HETATM   29  C   UNL     1     -10.536  12.327  71.620  1.00  0.00     9.384 C  
ENDROOT
BRANCH  10  30
HETATM   30  O   UNL     1      -9.808  15.988  67.711  1.00  0.00    -0.227 OA 
BRANCH  30  31
HETATM   31  C   UNL     1      -9.630  14.643  67.313  1.00  0.00    -0.221 C  
HETATM   32  C   UNL     1     -10.957  13.815  67.116  1.00  0.00    -0.290 C  
HETATM   33  C   UNL     1     -10.785  12.728  66.015  1.00  0.00    -0.272 C  
HETATM   34  O   UNL     1      -8.838  14.923  66.185  1.00  0.00    -0.176 OA 
HETATM   35  C   UNL     1      -8.775  14.054  65.098  1.00  0.00     2.985 C  
HETATM   36  H   UNL     1     -12.119  12.721  68.263  1.00  0.00     0.000 HD 
HETATM   37  C   UNL     1     -10.068  13.321  64.795  1.00  0.00    -0.250 C  
HETATM   38  O   UNL     1     -11.319  13.220  68.382  1.00  0.00    -0.254 OA 
HETATM   39  C   UNL     1      -8.419  14.978  63.926  1.00  0.00    13.490 C  
BRANCH  33  40
HETATM   40  N   UNL     1     -11.936  11.901  65.553  1.00  0.00    -0.368 NA 
HETATM   41  C   UNL     1     -13.146  11.796  66.364  1.00  0.00     5.302 C  
HETATM   42  C   UNL     1     -11.639  10.615  64.938  1.00  0.00     1.629 C  
ENDBRANCH  33  40
ENDBRANCH  30  31
ENDBRANCH  10  30
BRANCH  14  43
HETATM   43  C   UNL     1     -12.873  13.641  71.747  1.00  0.00    -0.407 C  
HETATM   44  C   UNL     1     -13.582  12.311  71.865  1.00  0.00    -0.195 C  
ENDBRANCH  14  43
BRANCH  20  45
HETATM   45  C   UNL     1     -11.697   9.888  69.823  1.00  0.00    -0.021 C  
BRANCH  45  46
HETATM   46  C   UNL     1     -11.423   9.341  68.421  1.00  0.00     0.601 C  
BRANCH  46  47
HETATM   47  C   UNL     1     -10.048   9.745  67.887  1.00  0.00    -0.212 C  
BRANCH  47  48
HETATM   48  C   UNL     1      -8.950   9.475  68.907  1.00  0.00    -0.141 C  
BRANCH  48  49
HETATM   49  N   UNL     1      -9.380   8.533  69.915  1.00  0.00    -0.158 NA 
HETATM   50  C   UNL     1      -9.676   8.810  71.218  1.00  0.00    -0.265 A  
HETATM   51  N   UNL     1      -9.958   7.711  71.883  1.00  0.00    -0.173 NA 
HETATM   52  C   UNL     1      -9.825   6.686  70.974  1.00  0.00    -0.182 A  
HETATM   53  C   UNL     1      -9.501   7.189  69.736  1.00  0.00    -0.149 A  
BRANCH  52  54
HETATM   54  C   UNL     1      -9.996   5.292  71.323  1.00  0.00    -0.256 A  
HETATM   55  C   UNL     1      -8.902   4.516  71.710  1.00  0.00    -0.140 A  
HETATM   56  C   UNL     1      -9.082   3.160  71.975  1.00  0.00    -0.155 A  
HETATM   57  C   UNL     1     -10.350   2.616  71.833  1.00  0.00     0.139 A  
HETATM   58  N   UNL     1     -11.442   3.336  71.509  1.00  0.00     3.055 NA 
HETATM   59  C   UNL     1     -11.233   4.655  71.259  1.00  0.00     1.149 A  
ENDBRANCH  52  54
ENDBRANCH  48  49
ENDBRANCH  47  48
ENDBRANCH  46  47
ENDBRANCH  45  46
ENDBRANCH  20  45
TORSDOF 10
ENDMDL
MODEL       71
REMARK 921   NORMALIZED FREE ENERGY PREDICTED BY IDOCK:  120.47 KCAL/MOL
REMARK 922        TOTAL FREE ENERGY PREDICTED BY IDOCK:  191.30 KCAL/MOL
REMARK 923 INTER-LIGAND FREE ENERGY PREDICTED BY IDOCK:   81.05 KCAL/MOL
REMARK 924 INTRA-LIGAND FREE ENERGY PREDICTED BY IDOCK:  110.25 KCAL/MOL
REMARK 927      BINDING AFFINITY PREDICTED BY RF-SCORE:    0.00 PKD
ROOT
HETATM    1  C   UNL     1      -9.265  13.947  64.686  1.00  0.00     2.192 C  
HETATM    2  C   UNL     1     -10.074  15.391  64.728  1.00  0.00     0.158 C  
HETATM    3  C   UNL     1      -9.387  16.801  64.930  1.00  0.00     2.604 C  
HETATM    4  C   UNL     1     -11.626  15.468  64.800  1.00  0.00    -0.256 C  
HETATM    5  C   UNL     1      -9.682  17.790  66.092  1.00  0.00    -0.230 C  
HETATM    6  O   UNL     1      -8.639  17.220  64.032  1.00  0.00     8.568 OA 
HETATM    7  C   UNL     1      -8.264  18.299  66.748  1.00  0.00    -0.269 C  
HETATM    8  C   UNL     1     -10.854  17.339  66.948  1.00  0.00    -0.004 C  
HETATM    9  C   UNL     1      -8.335  18.988  68.228  1.00  0.00    -0.334 C  
HETATM   10  C   UNL     1      -8.224  17.671  69.185  1.00  0.00     0.082 C  
HETATM   11  O   UNL     1      -9.505  19.824  67.939  1.00  0.00    -0.331 OA 
HETATM   12  C   UNL     1      -7.577  20.004  69.112  1.00  0.00    -0.045 C  
HETATM   13  C   UNL     1      -9.171  20.955  67.056  1.00  0.00    -0.066 C  
HETATM   14  C   UNL     1      -8.327  12.857  67.153  1.00  0.00    -0.157 C  
HETATM   15  C   UNL     1      -7.142  17.175  70.243  1.00  0.00     1.541 C  
HETATM   16  C   UNL     1      -7.264  17.604  71.702  1.00  0.00     6.898 C  
HETATM   17  O   UNL     1      -8.973  11.180  62.801  1.00  0.00    -0.294 OA 
HETATM   18  C   UNL     1      -7.119  15.615  70.197  1.00  0.00     0.245 C  
HETATM   19  O   UNL     1      -7.606  14.943  71.113  1.00  0.00     1.387 OA 
HETATM   20  N   UNL     1     -10.044  12.955  63.890  1.00  0.00    -0.200 N  
HETATM   21  C   UNL     1      -6.574  14.945  68.937  1.00  0.00    -0.090 C  
HETATM   22  C   UNL     1      -6.684  13.448  68.894  1.00  0.00    -0.110 C  
HETATM   23  C   UNL     1      -5.133  15.332  68.627  1.00  0.00    -0.093 C  
HETATM   24  C   UNL     1      -9.186  11.870  63.778  1.00  0.00     0.253 C  
HETATM   25  O   UNL     1      -8.710  11.632  65.025  1.00  0.00     0.209 OA 
HETATM   26  C   UNL     1      -6.814  12.781  65.062  1.00  0.00     8.231 C  
HETATM   27  O   UNL     1      -6.310  12.661  69.765  1.00  0.00    -0.125 OA 
HETATM   28  O   UNL     1      -6.939  13.066  67.611  1.00  0.00    -0.125 OA 
HETATM   29  C   UNL     1      -8.299  12.934  65.571  1.00  0.00     2.201 C  
ENDROOT
BRANCH  10  30
HETATM   30  O   UNL     1      -9.352  16.868  69.124  1.00  0.00    -0.228 OA 
BRANCH  30  31
HETATM   31  C   UNL     1     -10.207  16.888  67.999  1.00  0.00    -0.310 C  
HETATM   32  C   UNL     1     -10.778  18.304  67.609  1.00  0.00    -0.348 C  
HETATM   33  C   UNL     1     -11.015  18.414  66.074  1.00  0.00     0.225 C  
HETATM   34  O   UNL     1      -9.312  16.256  67.116  1.00  0.00    -0.217 OA 
HETATM   35  C   UNL     1      -9.381  16.450  65.738  1.00  0.00    -0.117 C  
HETATM   36  H   UNL     1     -12.349  19.376  68.106  1.00  0.00     0.000 HD 
HETATM   37  C   UNL     1      -9.813  17.840  65.312  1.00  0.00     1.084 C  
HETATM   38  O   UNL     1     -12.005  18.522  68.341  1.00  0.00     2.235 OA 
HETATM   39  C   UNL     1      -7.943  16.190  65.272  1.00  0.00     3.550 C  
BRANCH  33  40
HETATM   40  N   UNL     1     -11.428  19.699  65.441  1.00  0.00     0.341 NA 
HETATM   41  C   UNL     1     -11.300  20.959  66.170  1.00  0.00     3.356 C  
HETATM   42  C   UNL     1     -12.656  19.702  64.659  1.00  0.00    10.596 C  
ENDBRANCH  33  40
ENDBRANCH  30  31
ENDBRANCH  10  30
BRANCH  14  43
HETATM   43  C   UNL     1      -8.660  11.486  67.803  1.00  0.00    -0.138 C  
HETATM   44  C   UNL     1      -8.335  10.235  67.019  1.00  0.00    -0.126 C  
ENDBRANCH  14  43
BRANCH  20  45
HETATM   45  C   UNL     1     -11.304  12.445  64.448  1.00  0.00    -0.340 C  
BRANCH  45  46
HETATM   46  C   UNL     1     -11.729  11.098  63.861  1.00  0.00     0.443 C  
BRANCH  46  47
HETATM   47  C   UNL     1     -10.841   9.943  64.325  1.00  0.00     2.732 C  
BRANCH  47  48
HETATM   48  C   UNL     1     -11.598   8.622  64.329  1.00  0.00    14.986 C  
BRANCH  48  49
HETATM   49  N   UNL     1     -11.439   7.920  65.582  1.00  0.00     5.879 NA 
HETATM   50  C   UNL     1     -11.304   6.573  65.752  1.00  0.00     3.177 A  
HETATM   51  N   UNL     1     -11.258   6.260  67.029  1.00  0.00    -0.285 NA 
HETATM   52  C   UNL     1     -11.381   7.452  67.706  1.00  0.00     0.499 A  
HETATM   53  C   UNL     1     -11.457   8.497  66.815  1.00  0.00     2.502 A  
BRANCH  52  54
HETATM   54  C   UNL     1     -11.434   7.540  69.149  1.00  0.00     0.471 A  
HETATM   55  C   UNL     1     -10.709   8.521  69.829  1.00  0.00    -0.213 A  
HETATM   56  C   UNL     1     -10.722   8.542  71.221  1.00  0.00    -0.302 A  
HETATM   57  C   UNL     1     -11.449   7.572  71.896  1.00  0.00    -0.270 A  
HETATM   58  N   UNL     1     -12.200   6.636  71.281  1.00  0.00    -0.351 NA 
HETATM   59  C   UNL     1     -12.168   6.645  69.924  1.00  0.00     0.370 A  
ENDBRANCH  52  54
ENDBRANCH  48  49
ENDBRANCH  47  48
ENDBRANCH  46  47
ENDBRANCH  45  46
ENDBRANCH  20  45
TORSDOF 10
ENDMDL
MODEL       72
REMARK 921   NORMALIZED FREE ENERGY PREDICTED BY IDOCK:  140.85 KCAL/MOL
REMARK 922        TOTAL FREE ENERGY PREDICTED BY IDOCK:  223.59 KCAL/MOL
REMARK 923 INTER-LIGAND FREE ENERGY PREDICTED BY IDOCK:  109.41 KCAL/MOL
REMARK 924 INTRA-LIGAND FREE ENERGY PREDICTED BY IDOCK:  114.18 KCAL/MOL
REMARK 927      BINDING AFFINITY PREDICTED BY RF-SCORE:    0.00 PKD
ROOT
HETATM    1  C   UNL     1     -10.029   5.119  68.139  1.00  0.00    -0.145 C  
HETATM    2  C   UNL     1     -11.042   6.157  68.938  1.00  0.00    -0.417 C  
HETATM    3  C   UNL     1     -12.185   7.006  68.248  1.00  0.00     3.231 C  
HETATM    4  C   UNL     1     -10.809   6.564  70.420  1.00  0.00    -0.326 C  
HETATM    5  C   UNL     1     -12.284   8.557  68.255  1.00  0.00     4.482 C  
HETATM    6  O   UNL     1     -13.152   6.399  67.762  1.00  0.00     8.202 OA 
HETATM    7  C   UNL     1     -12.560   9.093  66.726  1.00  0.00    11.347 C  
HETATM    8  C   UNL     1     -11.244   9.197  69.160  1.00  0.00     0.147 C  
HETATM    9  C   UNL     1     -12.275  10.674  66.428  1.00  0.00     3.684 C  
HETATM   10  C   UNL     1     -10.687  10.633  66.052  1.00  0.00    -0.057 C  
HETATM   11  O   UNL     1     -12.922  11.166  67.649  1.00  0.00     2.830 OA 
HETATM   12  C   UNL     1     -12.726  11.815  65.489  1.00  0.00     1.931 C  
HETATM   13  C   UNL     1     -14.391  11.069  67.573  1.00  0.00    19.581 C  
HETATM   14  C   UNL     1      -7.912   6.236  66.581  1.00  0.00    -0.108 C  
HETATM   15  C   UNL     1      -9.868  10.962  64.727  1.00  0.00    -0.343 C  
HETATM   16  C   UNL     1      -9.376  12.385  64.479  1.00  0.00     0.456 C  
HETATM   17  O   UNL     1      -8.895   1.960  68.287  1.00  0.00    -0.078 OA 
HETATM   18  C   UNL     1      -8.634  10.007  64.687  1.00  0.00    -0.181 C  
HETATM   19  O   UNL     1      -7.494  10.430  64.910  1.00  0.00    -0.137 OA 
HETATM   20  N   UNL     1      -9.545   4.066  69.077  1.00  0.00    -0.173 N  
HETATM   21  C   UNL     1      -8.889   8.517  64.470  1.00  0.00     0.119 C  
HETATM   22  C   UNL     1      -7.682   7.629  64.559  1.00  0.00    -0.126 C  
HETATM   23  C   UNL     1      -9.614   8.216  63.163  1.00  0.00     3.099 C  
HETATM   24  C   UNL     1      -8.870   3.173  68.256  1.00  0.00    -0.121 C  
HETATM   25  O   UNL     1      -8.054   3.921  67.472  1.00  0.00    -0.089 OA 
HETATM   26  C   UNL     1      -9.276   4.250  65.652  1.00  0.00    -0.148 C  
HETATM   27  O   UNL     1      -6.616   7.779  63.961  1.00  0.00    -0.056 OA 
HETATM   28  O   UNL     1      -8.053   6.446  65.127  1.00  0.00    -0.127 OA 
HETATM   29  C   UNL     1      -8.869   5.032  66.960  1.00  0.00    -0.106 C  
ENDROOT
BRANCH  10  30
HETATM   30  O   UNL     1      -9.886  10.336  67.143  1.00  0.00    -0.173 OA 
BRANCH  30  31
HETATM   31  C   UNL     1      -9.595  11.308  68.127  1.00  0.00    -0.186 C  
HETATM   32  C   UNL     1     -10.255  11.061  69.537  1.00  0.00     0.005 C  
HETATM   33  C   UNL     1      -9.363  11.620  70.684  1.00  0.00     5.706 C  
HETATM   34  O   UNL     1      -8.195  11.223  68.016  1.00  0.00    -0.123 OA 
HETATM   35  C   UNL     1      -7.353  11.560  69.073  1.00  0.00    -0.094 C  
HETATM   36  H   UNL     1     -11.960  11.531  70.396  1.00  0.00     0.000 HD 
HETATM   37  C   UNL     1      -7.897  11.230  70.449  1.00  0.00     2.363 C  
HETATM   38  O   UNL     1     -11.562  11.680  69.547  1.00  0.00    -0.281 OA 
HETATM   39  C   UNL     1      -6.095  10.725  68.803  1.00  0.00    -0.040 C  
BRANCH  33  40
HETATM   40  N   UNL     1      -9.707  11.394  72.117  1.00  0.00    12.405 NA 
HETATM   41  C   UNL     1     -10.635  12.287  72.806  1.00  0.00    15.740 C  
HETATM   42  C   UNL     1      -8.629  11.009  73.017  1.00  0.00    16.496 C  
ENDBRANCH  33  40
ENDBRANCH  30  31
ENDBRANCH  10  30
BRANCH  14  43
HETATM   43  C   UNL     1      -6.381   6.009  66.711  1.00  0.00    -0.041 C  
HETATM   44  C   UNL     1      -5.538   7.157  67.217  1.00  0.00    -0.024 C  
ENDBRANCH  14  43
BRANCH  20  45
HETATM   45  C   UNL     1      -8.611   4.454  70.143  1.00  0.00    -0.073 C  
BRANCH  45  46
HETATM   46  C   UNL     1      -7.146   4.444  69.701  1.00  0.00    -0.050 C  
BRANCH  46  47
HETATM   47  C   UNL     1      -6.574   5.850  69.517  1.00  0.00    -0.044 C  
BRANCH  47  48
HETATM   48  C   UNL     1      -7.674   6.903  69.496  1.00  0.00    -0.104 C  
BRANCH  48  49
HETATM   49  N   UNL     1      -7.352   7.992  68.601  1.00  0.00    -0.087 NA 
HETATM   50  C   UNL     1      -6.974   9.254  68.955  1.00  0.00    -0.064 A  
HETATM   51  N   UNL     1      -6.832  10.019  67.895  1.00  0.00    -0.074 NA 
HETATM   52  C   UNL     1      -7.144   9.220  66.818  1.00  0.00    -0.082 A  
HETATM   53  C   UNL     1      -7.434   7.945  67.243  1.00  0.00    -0.093 A  
BRANCH  52  54
HETATM   54  C   UNL     1      -7.166   9.703  65.454  1.00  0.00    -0.104 A  
HETATM   55  C   UNL     1      -6.876   8.846  64.391  1.00  0.00    -0.081 A  
HETATM   56  C   UNL     1      -6.835   9.351  63.094  1.00  0.00    -0.099 A  
HETATM   57  C   UNL     1      -7.074  10.703  62.897  1.00  0.00     0.029 A  
HETATM   58  N   UNL     1      -7.404  11.557  63.887  1.00  0.00     1.818 NA 
HETATM   59  C   UNL     1      -7.437  11.033  65.139  1.00  0.00     0.397 A  
ENDBRANCH  52  54
ENDBRANCH  48  49
ENDBRANCH  47  48
ENDBRANCH  46  47
ENDBRANCH  45  46
ENDBRANCH  20  45
TORSDOF 10
ENDMDL
