MODEL        1
REMARK 921   NORMALIZED FREE ENERGY PREDICTED BY IDOCK:   -8.46 KCAL/MOL
REMARK 922        TOTAL FREE ENERGY PREDICTED BY IDOCK:  -13.43 KCAL/MOL
REMARK 923 INTER-LIGAND FREE ENERGY PREDICTED BY IDOCK:  -11.43 KCAL/MOL
REMARK 924 INTRA-LIGAND FREE ENERGY PREDICTED BY IDOCK:   -2.00 KCAL/MOL
REMARK 927      BINDING AFFINITY PREDICTED BY RF-SCORE:    0.00 PKD
ROOT
HETATM    1  C   UNL     1      -9.330   6.855  67.172  1.00  0.00    -0.162 C  
HETATM    2  C   UNL     1     -10.118   8.021  66.591  1.00  0.00    -0.329 C  
ENDROOT
BRANCH   2   3
HETATM    3  C   UNL     1      -9.314   8.878  65.603  1.00  0.00    -0.259 C  
BRANCH   3   4
HETATM    4  C   UNL     1      -9.709  10.319  65.652  1.00  0.00    -0.247 A  
HETATM    5  N   UNL     1     -10.615  10.848  64.850  1.00  0.00    -0.277 NA 
HETATM    6  C   UNL     1     -10.627  12.192  65.110  1.00  0.00    -0.286 A  
HETATM    7  C   UNL     1      -9.731  12.489  66.126  1.00  0.00    -0.254 A  
HETATM    8  N   UNL     1      -9.193  11.276  66.506  1.00  0.00    -0.182 NA 
HETATM    9  C   UNL     1      -9.494  13.796  66.555  1.00  0.00    -0.282 A  
HETATM   10  C   UNL     1     -11.356  13.222  64.484  1.00  0.00    -0.392 A  
HETATM   11  C   UNL     1     -10.264  14.831  66.011  1.00  0.00    -0.320 A  
HETATM   12  C   UNL     1     -12.285  12.951  63.338  1.00  0.00    -0.574 C  
HETATM   13  C   UNL     1     -11.161  14.537  64.969  1.00  0.00    -0.393 A  
BRANCH   8  14
HETATM   14  C   UNL     1      -8.133  11.127  67.503  1.00  0.00    -0.119 C  
BRANCH  14  15
HETATM   15  C   UNL     1      -8.508  10.414  68.791  1.00  0.00    -0.132 A  
HETATM   16  C   UNL     1      -9.762  10.513  69.392  1.00  0.00    -0.188 A  
HETATM   17  C   UNL     1      -7.976   8.642  70.420  1.00  0.00    -0.101 A  
HETATM   18  C   UNL     1      -7.611   9.484  69.347  1.00  0.00    -0.091 A  
HETATM   19  C   UNL     1     -10.103   9.697  70.492  1.00  0.00    -0.338 A  
HETATM   20  C   UNL     1      -9.240   8.713  71.024  1.00  0.00    -0.253 A  
BRANCH  20  21
HETATM   21  C   UNL     1      -9.710   7.786  72.111  1.00  0.00    -0.240 A  
HETATM   22  C   UNL     1      -9.310   6.898  74.389  1.00  0.00    -0.252 A  
HETATM   23  C   UNL     1      -8.987   7.757  73.324  1.00  0.00    -0.289 A  
HETATM   24  C   UNL     1     -11.150   6.062  73.141  1.00  0.00    -0.236 A  
HETATM   25  C   UNL     1     -10.833   6.928  72.058  1.00  0.00    -0.255 A  
HETATM   26  C   UNL     1     -10.375   6.034  74.291  1.00  0.00    -0.287 A  
HETATM   27  C   UNL     1     -11.735   6.809  70.888  1.00  0.00    -0.372 C  
HETATM   28  O   UNL     1     -13.011   6.767  71.336  1.00  0.00    -0.314 OA 
HETATM   29  O   UNL     1     -11.420   6.673  69.723  1.00  0.00    -0.351 OA 
ENDBRANCH  20  21
ENDBRANCH  14  15
ENDBRANCH   8  14
BRANCH  11  30
HETATM   30  C   UNL     1     -10.131  16.217  66.493  1.00  0.00    -0.291 A  
HETATM   31  C   UNL     1      -9.356  19.659  66.246  1.00  0.00    -0.453 A  
HETATM   32  C   UNL     1      -9.518  20.646  67.228  1.00  0.00    -0.520 A  
HETATM   33  N   UNL     1      -9.676  17.218  65.756  1.00  0.00    -0.544 NA 
HETATM   34  C   UNL     1     -11.133  15.945  68.811  1.00  0.00    -0.328 C  
HETATM   35  C   UNL     1      -9.726  18.339  66.543  1.00  0.00    -0.343 A  
HETATM   36  C   UNL     1     -10.033  20.322  68.482  1.00  0.00    -0.276 A  
HETATM   37  N   UNL     1     -10.500  16.689  67.746  1.00  0.00    -0.307 NA 
HETATM   38  C   UNL     1     -10.236  18.041  67.800  1.00  0.00    -0.378 A  
HETATM   39  C   UNL     1     -10.403  19.011  68.796  1.00  0.00    -0.215 A  
ENDBRANCH  11  30
ENDBRANCH   3   4
ENDBRANCH   2   3
TORSDOF 6
ENDMDL
MODEL        2
REMARK 921   NORMALIZED FREE ENERGY PREDICTED BY IDOCK:   -8.00 KCAL/MOL
REMARK 922        TOTAL FREE ENERGY PREDICTED BY IDOCK:  -12.81 KCAL/MOL
REMARK 923 INTER-LIGAND FREE ENERGY PREDICTED BY IDOCK:  -11.58 KCAL/MOL
REMARK 924 INTRA-LIGAND FREE ENERGY PREDICTED BY IDOCK:   -1.23 KCAL/MOL
REMARK 927      BINDING AFFINITY PREDICTED BY RF-SCORE:    0.00 PKD
ROOT
HETATM    1  C   UNL     1     -12.692  15.104  73.425  1.00  0.00    -0.661 C  
HETATM    2  C   UNL     1     -12.123  15.525  72.077  1.00  0.00    -0.502 C  
ENDROOT
BRANCH   2   3
HETATM    3  C   UNL     1     -13.012  15.142  70.885  1.00  0.00    -0.488 C  
BRANCH   3   4
HETATM    4  C   UNL     1     -12.482  13.960  70.140  1.00  0.00    -0.292 A  
HETATM    5  N   UNL     1     -12.381  12.755  70.671  1.00  0.00    -0.345 NA 
HETATM    6  C   UNL     1     -11.758  11.970  69.739  1.00  0.00    -0.319 A  
HETATM    7  C   UNL     1     -11.504  12.704  68.590  1.00  0.00    -0.308 A  
HETATM    8  N   UNL     1     -12.024  13.958  68.835  1.00  0.00    -0.352 NA 
HETATM    9  C   UNL     1     -10.821  12.169  67.496  1.00  0.00    -0.283 A  
HETATM   10  C   UNL     1     -11.344  10.626  69.827  1.00  0.00    -0.371 A  
HETATM   11  C   UNL     1     -10.473  10.813  67.521  1.00  0.00    -0.260 A  
HETATM   12  C   UNL     1     -11.541   9.818  71.076  1.00  0.00    -0.455 C  
HETATM   13  C   UNL     1     -10.713  10.070  68.691  1.00  0.00    -0.256 A  
BRANCH   8  14
HETATM   14  C   UNL     1     -11.905  15.089  67.914  1.00  0.00    -0.218 C  
BRANCH  14  15
HETATM   15  C   UNL     1     -10.755  16.049  68.163  1.00  0.00    -0.311 A  
HETATM   16  C   UNL     1      -9.425  15.757  67.862  1.00  0.00    -0.212 A  
HETATM   17  C   UNL     1     -10.038  18.360  68.635  1.00  0.00    -0.407 A  
HETATM   18  C   UNL     1     -11.036  17.363  68.581  1.00  0.00    -0.019 A  
HETATM   19  C   UNL     1      -8.427  16.750  67.960  1.00  0.00    -0.205 A  
HETATM   20  C   UNL     1      -8.699  18.090  68.316  1.00  0.00    -0.289 A  
BRANCH  20  21
HETATM   21  C   UNL     1      -7.614  19.130  68.275  1.00  0.00    -0.339 A  
HETATM   22  C   UNL     1      -5.846  20.328  69.532  1.00  0.00    -0.370 A  
HETATM   23  C   UNL     1      -6.853  19.351  69.444  1.00  0.00    -0.342 A  
HETATM   24  C   UNL     1      -6.232  20.911  67.262  1.00  0.00    -0.356 A  
HETATM   25  C   UNL     1      -7.252  19.925  67.162  1.00  0.00    -0.272 A  
HETATM   26  C   UNL     1      -5.550  21.124  68.451  1.00  0.00    -0.355 A  
HETATM   27  C   UNL     1      -7.910  19.850  65.836  1.00  0.00    -0.302 C  
HETATM   28  O   UNL     1      -6.952  19.895  64.882  1.00  0.00    -0.342 OA 
HETATM   29  O   UNL     1      -9.102  19.845  65.602  1.00  0.00    -0.298 OA 
ENDBRANCH  20  21
ENDBRANCH  14  15
ENDBRANCH   8  14
BRANCH  11  30
HETATM   30  C   UNL     1      -9.841  10.165  66.359  1.00  0.00    -0.222 A  
HETATM   31  C   UNL     1      -8.039   7.644  64.653  1.00  0.00    -0.112 A  
HETATM   32  C   UNL     1      -7.748   7.577  63.284  1.00  0.00    -0.129 A  
HETATM   33  N   UNL     1      -9.187   9.016  66.415  1.00  0.00    -0.174 NA 
HETATM   34  C   UNL     1     -10.571  11.781  64.539  1.00  0.00    -0.313 C  
HETATM   35  C   UNL     1      -8.772   8.737  65.139  1.00  0.00    -0.167 A  
HETATM   36  C   UNL     1      -8.174   8.582  62.418  1.00  0.00    -0.184 A  
HETATM   37  N   UNL     1      -9.874  10.620  65.046  1.00  0.00    -0.268 NA 
HETATM   38  C   UNL     1      -9.186   9.726  64.256  1.00  0.00    -0.232 A  
HETATM   39  C   UNL     1      -8.902   9.681  62.885  1.00  0.00    -0.252 A  
ENDBRANCH  11  30
ENDBRANCH   3   4
ENDBRANCH   2   3
TORSDOF 6
ENDMDL
MODEL        3
REMARK 921   NORMALIZED FREE ENERGY PREDICTED BY IDOCK:   -7.78 KCAL/MOL
REMARK 922        TOTAL FREE ENERGY PREDICTED BY IDOCK:  -12.51 KCAL/MOL
REMARK 923 INTER-LIGAND FREE ENERGY PREDICTED BY IDOCK:  -10.40 KCAL/MOL
REMARK 924 INTRA-LIGAND FREE ENERGY PREDICTED BY IDOCK:   -2.11 KCAL/MOL
REMARK 927      BINDING AFFINITY PREDICTED BY RF-SCORE:    0.00 PKD
ROOT
HETATM    1  C   UNL     1      -6.943   7.102  63.623  1.00  0.00    -0.061 C  
HETATM    2  C   UNL     1      -8.111   7.943  63.126  1.00  0.00    -0.098 C  
ENDROOT
BRANCH   2   3
HETATM    3  C   UNL     1      -7.853   9.455  63.189  1.00  0.00    -0.132 C  
BRANCH   3   4
HETATM    4  C   UNL     1      -8.842  10.162  64.058  1.00  0.00    -0.228 A  
HETATM    5  N   UNL     1      -9.917  10.768  63.586  1.00  0.00    -0.337 NA 
HETATM    6  C   UNL     1     -10.512  11.389  64.651  1.00  0.00    -0.315 A  
HETATM    7  C   UNL     1      -9.805  11.124  65.814  1.00  0.00    -0.235 A  
HETATM    8  N   UNL     1      -8.774  10.290  65.433  1.00  0.00    -0.161 NA 
HETATM    9  C   UNL     1     -10.155  11.680  67.046  1.00  0.00    -0.234 A  
HETATM   10  C   UNL     1     -11.643  12.228  64.685  1.00  0.00    -0.404 A  
HETATM   11  C   UNL     1     -11.322  12.449  67.126  1.00  0.00    -0.390 A  
HETATM   12  C   UNL     1     -12.396  12.593  63.440  1.00  0.00    -0.553 C  
HETATM   13  C   UNL     1     -12.032  12.735  65.947  1.00  0.00    -0.506 A  
BRANCH   8  14
HETATM   14  C   UNL     1      -7.722   9.821  66.336  1.00  0.00    -0.102 C  
BRANCH  14  15
HETATM   15  C   UNL     1      -8.136   8.815  67.396  1.00  0.00    -0.105 A  
HETATM   16  C   UNL     1      -7.662   8.832  68.707  1.00  0.00    -0.097 A  
HETATM   17  C   UNL     1      -9.736   7.077  68.103  1.00  0.00    -0.139 A  
HETATM   18  C   UNL     1      -9.164   7.898  67.107  1.00  0.00    -0.175 A  
HETATM   19  C   UNL     1      -8.210   7.977  69.686  1.00  0.00    -0.121 A  
HETATM   20  C   UNL     1      -9.284   7.096  69.431  1.00  0.00    -0.148 A  
BRANCH  20  21
HETATM   21  C   UNL     1      -9.911   6.306  70.546  1.00  0.00    -0.221 A  
HETATM   22  C   UNL     1     -10.033   4.132  71.729  1.00  0.00    -0.246 A  
HETATM   23  C   UNL     1      -9.485   4.974  70.746  1.00  0.00    -0.230 A  
HETATM   24  C   UNL     1     -11.446   5.904  72.441  1.00  0.00    -0.358 A  
HETATM   25  C   UNL     1     -10.897   6.765  71.452  1.00  0.00    -0.269 A  
HETATM   26  C   UNL     1     -11.029   4.586  72.561  1.00  0.00    -0.084 A  
HETATM   27  C   UNL     1     -11.477   8.128  71.430  1.00  0.00    -0.263 C  
HETATM   28  O   UNL     1     -11.565   8.575  72.703  1.00  0.00    -0.357 OA 
HETATM   29  O   UNL     1     -11.900   8.736  70.466  1.00  0.00    -0.181 OA 
ENDBRANCH  20  21
ENDBRANCH  14  15
ENDBRANCH   8  14
BRANCH  11  30
HETATM   30  C   UNL     1     -11.798  12.981  68.415  1.00  0.00    -0.334 A  
HETATM   31  C   UNL     1     -13.064  12.794  71.713  1.00  0.00    -0.455 A  
HETATM   32  C   UNL     1     -13.310  13.854  72.596  1.00  0.00    -0.640 A  
HETATM   33  N   UNL     1     -12.228  12.227  69.415  1.00  0.00    -0.143 NA 
HETATM   34  C   UNL     1     -11.343  15.451  68.036  1.00  0.00    -0.341 C  
HETATM   35  C   UNL     1     -12.557  13.080  70.436  1.00  0.00    -0.095 A  
HETATM   36  C   UNL     1     -13.060  15.171  72.214  1.00  0.00    -0.456 A  
HETATM   37  N   UNL     1     -11.822  14.317  68.794  1.00  0.00    -0.334 NA 
HETATM   38  C   UNL     1     -12.316  14.400  70.078  1.00  0.00    -0.336 A  
HETATM   39  C   UNL     1     -12.558  15.473  70.944  1.00  0.00    -0.512 A  
ENDBRANCH  11  30
ENDBRANCH   3   4
ENDBRANCH   2   3
TORSDOF 6
ENDMDL
MODEL        4
REMARK 921   NORMALIZED FREE ENERGY PREDICTED BY IDOCK:   -7.71 KCAL/MOL
REMARK 922        TOTAL FREE ENERGY PREDICTED BY IDOCK:  -12.41 KCAL/MOL
REMARK 923 INTER-LIGAND FREE ENERGY PREDICTED BY IDOCK:  -10.34 KCAL/MOL
REMARK 924 INTRA-LIGAND FREE ENERGY PREDICTED BY IDOCK:   -2.07 KCAL/MOL
REMARK 927      BINDING AFFINITY PREDICTED BY RF-SCORE:    0.00 PKD
ROOT
HETATM    1  C   UNL     1     -12.292   7.701  71.575  1.00  0.00    -0.356 C  
HETATM    2  C   UNL     1     -12.578   9.100  72.102  1.00  0.00    -0.451 C  
ENDROOT
BRANCH   2   3
HETATM    3  C   UNL     1     -13.441   9.951  71.160  1.00  0.00    -0.308 C  
BRANCH   3   4
HETATM    4  C   UNL     1     -12.889  11.326  70.973  1.00  0.00    -0.300 A  
HETATM    5  N   UNL     1     -13.034  12.292  71.862  1.00  0.00    -0.352 NA 
HETATM    6  C   UNL     1     -12.501  13.421  71.301  1.00  0.00    -0.278 A  
HETATM    7  C   UNL     1     -11.980  13.131  70.049  1.00  0.00    -0.321 A  
HETATM    8  N   UNL     1     -12.180  11.777  69.874  1.00  0.00    -0.256 NA 
HETATM    9  C   UNL     1     -11.426  14.111  69.224  1.00  0.00    -0.337 A  
HETATM   10  C   UNL     1     -12.463  14.739  71.796  1.00  0.00    -0.410 A  
HETATM   11  C   UNL     1     -11.299  15.413  69.722  1.00  0.00    -0.317 A  
HETATM   12  C   UNL     1     -13.074  15.107  73.116  1.00  0.00    -0.625 C  
HETATM   13  C   UNL     1     -11.841  15.716  70.984  1.00  0.00    -0.442 A  
BRANCH   8  14
HETATM   14  C   UNL     1     -11.854  11.052  68.645  1.00  0.00    -0.247 C  
BRANCH  14  15
HETATM   15  C   UNL     1     -10.714  10.051  68.731  1.00  0.00    -0.250 A  
HETATM   16  C   UNL     1      -9.857   9.946  69.825  1.00  0.00    -0.268 A  
HETATM   17  C   UNL     1      -9.685   7.990  67.852  1.00  0.00    -0.189 A  
HETATM   18  C   UNL     1     -10.588   9.068  67.731  1.00  0.00    -0.278 A  
HETATM   19  C   UNL     1      -8.927   8.889  69.917  1.00  0.00    -0.160 A  
HETATM   20  C   UNL     1      -8.829   7.858  68.956  1.00  0.00    -0.145 A  
BRANCH  20  21
HETATM   21  C   UNL     1      -7.910   6.688  69.176  1.00  0.00    -0.111 A  
HETATM   22  C   UNL     1      -5.638   5.752  68.854  1.00  0.00    -0.011 A  
HETATM   23  C   UNL     1      -6.571   6.798  68.740  1.00  0.00    -0.051 A  
HETATM   24  C   UNL     1      -7.291   4.411  69.909  1.00  0.00    -0.050 A  
HETATM   25  C   UNL     1      -8.242   5.463  69.800  1.00  0.00    -0.100 A  
HETATM   26  C   UNL     1      -6.002   4.551  69.416  1.00  0.00    -0.018 A  
HETATM   27  C   UNL     1      -9.584   5.140  70.339  1.00  0.00    -0.187 C  
HETATM   28  O   UNL     1      -9.426   4.527  71.535  1.00  0.00    -0.138 OA 
HETATM   29  O   UNL     1     -10.657   5.296  69.792  1.00  0.00    -0.307 OA 
ENDBRANCH  20  21
ENDBRANCH  14  15
ENDBRANCH   8  14
BRANCH  11  30
HETATM   30  C   UNL     1     -10.633  16.469  68.939  1.00  0.00    -0.326 A  
HETATM   31  C   UNL     1     -10.456  19.413  66.986  1.00  0.00    -0.571 A  
HETATM   32  C   UNL     1      -9.308  20.040  66.485  1.00  0.00    -0.494 A  
HETATM   33  N   UNL     1     -11.271  17.465  68.345  1.00  0.00     0.019 NA 
HETATM   34  C   UNL     1      -8.212  15.796  69.314  1.00  0.00    -0.247 C  
HETATM   35  C   UNL     1     -10.314  18.241  67.745  1.00  0.00    -0.401 A  
HETATM   36  C   UNL     1      -8.043  19.508  66.732  1.00  0.00    -0.313 A  
HETATM   37  N   UNL     1      -9.264  16.611  68.749  1.00  0.00    -0.247 NA 
HETATM   38  C   UNL     1      -9.043  17.731  67.978  1.00  0.00    -0.269 A  
HETATM   39  C   UNL     1      -7.883  18.341  67.484  1.00  0.00    -0.228 A  
ENDBRANCH  11  30
ENDBRANCH   3   4
ENDBRANCH   2   3
TORSDOF 6
ENDMDL
MODEL        5
REMARK 921   NORMALIZED FREE ENERGY PREDICTED BY IDOCK:   -7.51 KCAL/MOL
REMARK 922        TOTAL FREE ENERGY PREDICTED BY IDOCK:  -12.14 KCAL/MOL
REMARK 923 INTER-LIGAND FREE ENERGY PREDICTED BY IDOCK:  -10.35 KCAL/MOL
REMARK 924 INTRA-LIGAND FREE ENERGY PREDICTED BY IDOCK:   -1.80 KCAL/MOL
REMARK 927      BINDING AFFINITY PREDICTED BY RF-SCORE:    0.00 PKD
ROOT
HETATM    1  C   UNL     1     -10.450   6.812  67.658  1.00  0.00    -0.287 C  
HETATM    2  C   UNL     1     -10.754   7.989  66.742  1.00  0.00    -0.077 C  
ENDROOT
BRANCH   2   3
HETATM    3  C   UNL     1      -9.503   8.751  66.282  1.00  0.00    -0.300 C  
BRANCH   3   4
HETATM    4  C   UNL     1      -9.762  10.213  66.109  1.00  0.00    -0.218 A  
HETATM    5  N   UNL     1     -10.535  10.703  65.156  1.00  0.00    -0.250 NA 
HETATM    6  C   UNL     1     -10.443  12.066  65.244  1.00  0.00    -0.284 A  
HETATM    7  C   UNL     1      -9.623  12.421  66.304  1.00  0.00    -0.241 A  
HETATM    8  N   UNL     1      -9.241  11.230  66.887  1.00  0.00    -0.172 NA 
HETATM    9  C   UNL     1      -9.304  13.750  66.591  1.00  0.00    -0.277 A  
HETATM   10  C   UNL     1     -11.008  13.060  64.421  1.00  0.00    -0.400 A  
HETATM   11  C   UNL     1      -9.918  14.763  65.844  1.00  0.00    -0.351 A  
HETATM   12  C   UNL     1     -11.846  12.716  63.226  1.00  0.00    -0.504 C  
HETATM   13  C   UNL     1     -10.736  14.407  64.757  1.00  0.00    -0.423 A  
BRANCH   8  14
HETATM   14  C   UNL     1      -8.299  11.128  68.002  1.00  0.00    -0.134 C  
BRANCH  14  15
HETATM   15  C   UNL     1      -8.696  10.208  69.144  1.00  0.00    -0.173 A  
HETATM   16  C   UNL     1      -9.940  10.248  69.773  1.00  0.00    -0.222 A  
HETATM   17  C   UNL     1      -8.232   8.145  70.412  1.00  0.00    -0.114 A  
HETATM   18  C   UNL     1      -7.838   9.153  69.505  1.00  0.00    -0.082 A  
HETATM   19  C   UNL     1     -10.308   9.260  70.710  1.00  0.00    -0.348 A  
HETATM   20  C   UNL     1      -9.487   8.159  71.039  1.00  0.00    -0.185 A  
BRANCH  20  21
HETATM   21  C   UNL     1      -9.989   7.070  71.945  1.00  0.00    -0.179 A  
HETATM   22  C   UNL     1     -11.651   5.264  72.287  1.00  0.00    -0.016 A  
HETATM   23  C   UNL     1     -11.073   6.278  71.504  1.00  0.00    -0.333 A  
HETATM   24  C   UNL     1     -10.069   5.703  74.003  1.00  0.00    -0.242 A  
HETATM   25  C   UNL     1      -9.476   6.731  73.219  1.00  0.00    -0.172 A  
HETATM   26  C   UNL     1     -11.167   4.990  73.544  1.00  0.00    -0.341 A  
HETATM   27  C   UNL     1      -8.337   7.422  73.868  1.00  0.00    -0.170 C  
HETATM   28  O   UNL     1      -7.536   6.489  74.431  1.00  0.00    -0.098 OA 
HETATM   29  O   UNL     1      -8.166   8.620  73.980  1.00  0.00    -0.359 OA 
ENDBRANCH  20  21
ENDBRANCH  14  15
ENDBRANCH   8  14
BRANCH  11  30
HETATM   30  C   UNL     1      -9.700  16.185  66.161  1.00  0.00    -0.323 A  
HETATM   31  C   UNL     1     -10.641  19.551  66.703  1.00  0.00    -0.583 A  
HETATM   32  C   UNL     1      -9.820  20.617  67.094  1.00  0.00    -0.497 A  
HETATM   33  N   UNL     1     -10.661  17.095  66.182  1.00  0.00    -0.258 NA 
HETATM   34  C   UNL     1      -7.225  16.106  66.728  1.00  0.00    -0.155 C  
HETATM   35  C   UNL     1     -10.071  18.280  66.540  1.00  0.00    -0.385 A  
HETATM   36  C   UNL     1      -8.457  20.421  67.312  1.00  0.00    -0.405 A  
HETATM   37  N   UNL     1      -8.494  16.769  66.530  1.00  0.00    -0.256 NA 
HETATM   38  C   UNL     1      -8.711  18.109  66.763  1.00  0.00    -0.263 A  
HETATM   39  C   UNL     1      -7.872  19.162  67.151  1.00  0.00    -0.269 A  
ENDBRANCH  11  30
ENDBRANCH   3   4
ENDBRANCH   2   3
TORSDOF 6
ENDMDL
MODEL        6
REMARK 921   NORMALIZED FREE ENERGY PREDICTED BY IDOCK:   -7.50 KCAL/MOL
REMARK 922        TOTAL FREE ENERGY PREDICTED BY IDOCK:  -12.13 KCAL/MOL
REMARK 923 INTER-LIGAND FREE ENERGY PREDICTED BY IDOCK:  -10.67 KCAL/MOL
REMARK 924 INTRA-LIGAND FREE ENERGY PREDICTED BY IDOCK:   -1.46 KCAL/MOL
REMARK 927      BINDING AFFINITY PREDICTED BY RF-SCORE:    0.00 PKD
ROOT
HETATM    1  C   UNL     1     -12.376  13.274  63.342  1.00  0.00    -0.402 C  
HETATM    2  C   UNL     1     -11.794  11.867  63.337  1.00  0.00    -0.512 C  
ENDROOT
BRANCH   2   3
HETATM    3  C   UNL     1     -10.290  11.820  63.640  1.00  0.00    -0.476 C  
BRANCH   3   4
HETATM    4  C   UNL     1      -9.970  10.903  64.775  1.00  0.00    -0.307 A  
HETATM    5  N   UNL     1      -9.438   9.706  64.610  1.00  0.00    -0.226 NA 
HETATM    6  C   UNL     1      -9.394   9.126  65.849  1.00  0.00    -0.243 A  
HETATM    7  C   UNL     1      -9.876  10.006  66.806  1.00  0.00    -0.198 A  
HETATM    8  N   UNL     1     -10.185  11.161  66.116  1.00  0.00    -0.237 NA 
HETATM    9  C   UNL     1     -10.001   9.655  68.151  1.00  0.00    -0.185 A  
HETATM   10  C   UNL     1      -8.987   7.829  66.221  1.00  0.00    -0.209 A  
HETATM   11  C   UNL     1      -9.526   8.405  68.564  1.00  0.00    -0.149 A  
HETATM   12  C   UNL     1      -8.522   6.825  65.209  1.00  0.00    -0.067 C  
HETATM   13  C   UNL     1      -9.053   7.502  67.595  1.00  0.00    -0.127 A  
BRANCH   8  14
HETATM   14  C   UNL     1     -10.807  12.338  66.725  1.00  0.00    -0.253 C  
BRANCH  14  15
HETATM   15  C   UNL     1     -10.102  13.666  66.511  1.00  0.00    -0.286 A  
HETATM   16  C   UNL     1     -10.669  14.742  65.831  1.00  0.00    -0.320 A  
HETATM   17  C   UNL     1      -8.262  15.173  67.160  1.00  0.00    -0.251 A  
HETATM   18  C   UNL     1      -8.869  13.899  67.150  1.00  0.00    -0.236 A  
HETATM   19  C   UNL     1     -10.033  16.001  65.810  1.00  0.00    -0.382 A  
HETATM   20  C   UNL     1      -8.829  16.272  66.498  1.00  0.00    -0.318 A  
BRANCH  20  21
HETATM   21  C   UNL     1      -8.270  17.667  66.547  1.00  0.00    -0.307 A  
HETATM   22  C   UNL     1      -6.444  19.191  65.850  1.00  0.00    -0.254 A  
HETATM   23  C   UNL     1      -7.078  17.936  65.838  1.00  0.00    -0.298 A  
HETATM   24  C   UNL     1      -8.176  20.039  67.237  1.00  0.00    -0.368 A  
HETATM   25  C   UNL     1      -8.827  18.774  67.230  1.00  0.00    -0.287 A  
HETATM   26  C   UNL     1      -6.978  20.236  66.566  1.00  0.00    -0.286 A  
HETATM   27  C   UNL     1     -10.075  18.718  68.026  1.00  0.00    -0.369 C  
HETATM   28  O   UNL     1     -10.803  19.825  67.755  1.00  0.00    -0.362 OA 
HETATM   29  O   UNL     1     -10.385  17.889  68.858  1.00  0.00    -0.367 OA 
ENDBRANCH  20  21
ENDBRANCH  14  15
ENDBRANCH   8  14
BRANCH  11  30
HETATM   30  C   UNL     1      -9.539   8.014  69.985  1.00  0.00    -0.171 A  
HETATM   31  C   UNL     1      -8.438   8.034  73.346  1.00  0.00    -0.295 A  
HETATM   32  C   UNL     1      -8.998   7.350  74.434  1.00  0.00    -0.191 A  
HETATM   33  N   UNL     1      -8.677   8.462  70.884  1.00  0.00    -0.143 NA 
HETATM   34  C   UNL     1     -11.624   6.564  69.996  1.00  0.00    -0.390 C  
HETATM   35  C   UNL     1      -9.028   7.893  72.081  1.00  0.00    -0.146 A  
HETATM   36  C   UNL     1     -10.119   6.540  74.263  1.00  0.00    -0.379 A  
HETATM   37  N   UNL     1     -10.463   7.178  70.599  1.00  0.00    -0.208 NA 
HETATM   38  C   UNL     1     -10.144   7.080  71.936  1.00  0.00    -0.182 A  
HETATM   39  C   UNL     1     -10.717   6.386  73.009  1.00  0.00    -0.286 A  
ENDBRANCH  11  30
ENDBRANCH   3   4
ENDBRANCH   2   3
TORSDOF 6
ENDMDL
MODEL        7
REMARK 921   NORMALIZED FREE ENERGY PREDICTED BY IDOCK:   -7.49 KCAL/MOL
REMARK 922        TOTAL FREE ENERGY PREDICTED BY IDOCK:  -12.11 KCAL/MOL
REMARK 923 INTER-LIGAND FREE ENERGY PREDICTED BY IDOCK:  -10.81 KCAL/MOL
REMARK 924 INTRA-LIGAND FREE ENERGY PREDICTED BY IDOCK:   -1.31 KCAL/MOL
REMARK 927      BINDING AFFINITY PREDICTED BY RF-SCORE:    0.00 PKD
ROOT
HETATM    1  C   UNL     1     -13.324  15.715  73.277  1.00  0.00    -0.618 C  
HETATM    2  C   UNL     1     -13.790  15.088  71.970  1.00  0.00    -0.578 C  
ENDROOT
BRANCH   2   3
HETATM    3  C   UNL     1     -12.932  15.478  70.759  1.00  0.00    -0.490 C  
BRANCH   3   4
HETATM    4  C   UNL     1     -12.391  14.285  70.040  1.00  0.00    -0.346 A  
HETATM    5  N   UNL     1     -12.302  13.088  70.591  1.00  0.00    -0.347 NA 
HETATM    6  C   UNL     1     -11.664  12.288  69.681  1.00  0.00    -0.316 A  
HETATM    7  C   UNL     1     -11.391  13.004  68.525  1.00  0.00    -0.288 A  
HETATM    8  N   UNL     1     -11.913  14.262  68.743  1.00  0.00    -0.327 NA 
HETATM    9  C   UNL     1     -10.692  12.451  67.450  1.00  0.00    -0.257 A  
HETATM   10  C   UNL     1     -11.255  10.945  69.796  1.00  0.00    -0.351 A  
HETATM   11  C   UNL     1     -10.346  11.096  67.501  1.00  0.00    -0.228 A  
HETATM   12  C   UNL     1     -11.472  10.156  71.053  1.00  0.00    -0.436 C  
HETATM   13  C   UNL     1     -10.606  10.370  68.678  1.00  0.00    -0.234 A  
BRANCH   8  14
HETATM   14  C   UNL     1     -11.778  15.379  67.807  1.00  0.00    -0.146 C  
BRANCH  14  15
HETATM   15  C   UNL     1     -10.555  16.264  67.979  1.00  0.00    -0.308 A  
HETATM   16  C   UNL     1      -9.349  16.058  67.310  1.00  0.00    -0.218 A  
HETATM   17  C   UNL     1      -9.636  18.412  68.767  1.00  0.00    -0.345 A  
HETATM   18  C   UNL     1     -10.665  17.447  68.735  1.00  0.00    -0.197 A  
HETATM   19  C   UNL     1      -8.309  17.008  67.384  1.00  0.00    -0.206 A  
HETATM   20  C   UNL     1      -8.424  18.230  68.084  1.00  0.00    -0.290 A  
BRANCH  20  21
HETATM   21  C   UNL     1      -7.330  19.260  68.016  1.00  0.00    -0.297 A  
HETATM   22  C   UNL     1      -6.406  21.221  66.816  1.00  0.00    -0.373 A  
HETATM   23  C   UNL     1      -7.395  20.239  67.000  1.00  0.00    -0.327 A  
HETATM   24  C   UNL     1      -5.226  20.365  68.692  1.00  0.00    -0.263 A  
HETATM   25  C   UNL     1      -6.221  19.368  68.888  1.00  0.00    -0.282 A  
HETATM   26  C   UNL     1      -5.310  21.271  67.645  1.00  0.00    -0.350 A  
HETATM   27  C   UNL     1      -5.964  18.454  70.025  1.00  0.00    -0.172 C  
HETATM   28  O   UNL     1      -5.567  19.194  71.085  1.00  0.00    -0.229 OA 
HETATM   29  O   UNL     1      -6.000  17.240  70.020  1.00  0.00    -0.244 OA 
ENDBRANCH  20  21
ENDBRANCH  14  15
ENDBRANCH   8  14
BRANCH  11  30
HETATM   30  C   UNL     1      -9.697  10.430  66.359  1.00  0.00    -0.201 A  
HETATM   31  C   UNL     1      -9.109   9.724  62.943  1.00  0.00    -0.275 A  
HETATM   32  C   UNL     1      -8.146   8.863  62.400  1.00  0.00    -0.155 A  
HETATM   33  N   UNL     1     -10.018  10.647  65.093  1.00  0.00    -0.281 NA 
HETATM   34  C   UNL     1      -7.925   9.105  67.606  1.00  0.00    -0.100 C  
HETATM   35  C   UNL     1      -9.183   9.868  64.337  1.00  0.00    -0.264 A  
HETATM   36  C   UNL     1      -7.277   8.157  63.229  1.00  0.00    -0.091 A  
HETATM   37  N   UNL     1      -8.639   9.532  66.424  1.00  0.00    -0.132 NA 
HETATM   38  C   UNL     1      -8.306   9.153  65.142  1.00  0.00    -0.154 A  
HETATM   39  C   UNL     1      -7.338   8.285  64.620  1.00  0.00    -0.090 A  
ENDBRANCH  11  30
ENDBRANCH   3   4
ENDBRANCH   2   3
TORSDOF 6
ENDMDL
MODEL        8
REMARK 921   NORMALIZED FREE ENERGY PREDICTED BY IDOCK:   -7.46 KCAL/MOL
REMARK 922        TOTAL FREE ENERGY PREDICTED BY IDOCK:  -12.08 KCAL/MOL
REMARK 923 INTER-LIGAND FREE ENERGY PREDICTED BY IDOCK:  -10.53 KCAL/MOL
REMARK 924 INTRA-LIGAND FREE ENERGY PREDICTED BY IDOCK:   -1.55 KCAL/MOL
REMARK 927      BINDING AFFINITY PREDICTED BY RF-SCORE:    0.00 PKD
ROOT
HETATM    1  C   UNL     1      -6.463   8.878  63.130  1.00  0.00    -0.090 C  
HETATM    2  C   UNL     1      -7.429  10.046  63.283  1.00  0.00    -0.138 C  
ENDROOT
BRANCH   2   3
HETATM    3  C   UNL     1      -8.897   9.618  63.416  1.00  0.00    -0.251 C  
BRANCH   3   4
HETATM    4  C   UNL     1      -9.663  10.503  64.344  1.00  0.00    -0.328 A  
HETATM    5  N   UNL     1     -10.553  11.388  63.931  1.00  0.00    -0.363 NA 
HETATM    6  C   UNL     1     -10.958  12.079  65.042  1.00  0.00    -0.306 A  
HETATM    7  C   UNL     1     -10.328  11.579  66.171  1.00  0.00    -0.245 A  
HETATM    8  N   UNL     1      -9.548  10.533  65.722  1.00  0.00    -0.197 NA 
HETATM    9  C   UNL     1     -10.510  12.136  67.438  1.00  0.00    -0.233 A  
HETATM   10  C   UNL     1     -11.837  13.175  65.147  1.00  0.00    -0.392 A  
HETATM   11  C   UNL     1     -11.441  13.171  67.588  1.00  0.00    -0.366 A  
HETATM   12  C   UNL     1     -12.486  13.787  63.942  1.00  0.00    -0.260 C  
HETATM   13  C   UNL     1     -12.069  13.693  66.443  1.00  0.00    -0.478 A  
BRANCH   8  14
HETATM   14  C   UNL     1      -8.640   9.763  66.573  1.00  0.00    -0.127 C  
BRANCH  14  15
HETATM   15  C   UNL     1      -9.280   8.933  67.672  1.00  0.00    -0.151 A  
HETATM   16  C   UNL     1     -10.102   7.832  67.431  1.00  0.00    -0.288 A  
HETATM   17  C   UNL     1      -9.320   8.315  70.059  1.00  0.00    -0.162 A  
HETATM   18  C   UNL     1      -8.923   9.175  69.012  1.00  0.00    -0.143 A  
HETATM   19  C   UNL     1     -10.529   7.003  68.490  1.00  0.00    -0.226 A  
HETATM   20  C   UNL     1     -10.129   7.192  69.832  1.00  0.00    -0.197 A  
BRANCH  20  21
HETATM   21  C   UNL     1     -10.511   6.198  70.894  1.00  0.00    -0.282 A  
HETATM   22  C   UNL     1     -12.024   5.665  72.782  1.00  0.00    -0.088 A  
HETATM   23  C   UNL     1     -11.608   6.500  71.730  1.00  0.00    -0.359 A  
HETATM   24  C   UNL     1     -10.313   4.118  72.214  1.00  0.00    -0.197 A  
HETATM   25  C   UNL     1      -9.885   4.954  71.146  1.00  0.00    -0.261 A  
HETATM   26  C   UNL     1     -11.365   4.486  73.041  1.00  0.00    -0.246 A  
HETATM   27  C   UNL     1      -8.726   4.436  70.383  1.00  0.00    -0.085 C  
HETATM   28  O   UNL     1      -8.930   3.121  70.138  1.00  0.00    -0.082 OA 
HETATM   29  O   UNL     1      -7.707   5.030  70.092  1.00  0.00    -0.061 OA 
ENDBRANCH  20  21
ENDBRANCH  14  15
ENDBRANCH   8  14
BRANCH  11  30
HETATM   30  C   UNL     1     -11.752  13.734  68.913  1.00  0.00    -0.336 A  
HETATM   31  C   UNL     1     -13.125  13.745  72.173  1.00  0.00    -0.497 A  
HETATM   32  C   UNL     1     -13.021  14.752  73.142  1.00  0.00    -0.623 A  
HETATM   33  N   UNL     1     -12.453  13.101  69.841  1.00  0.00    -0.108 NA 
HETATM   34  C   UNL     1     -10.456  15.912  68.750  1.00  0.00    -0.237 C  
HETATM   35  C   UNL     1     -12.504  13.933  70.929  1.00  0.00    -0.375 A  
HETATM   36  C   UNL     1     -12.316  15.924  72.875  1.00  0.00    -0.593 A  
HETATM   37  N   UNL     1     -11.325  14.961  69.405  1.00  0.00    -0.273 NA 
HETATM   38  C   UNL     1     -11.808  15.111  70.687  1.00  0.00    -0.325 A  
HETATM   39  C   UNL     1     -11.694  16.130  71.640  1.00  0.00    -0.558 A  
ENDBRANCH  11  30
ENDBRANCH   3   4
ENDBRANCH   2   3
TORSDOF 6
ENDMDL
MODEL        9
REMARK 921   NORMALIZED FREE ENERGY PREDICTED BY IDOCK:   -7.45 KCAL/MOL
REMARK 922        TOTAL FREE ENERGY PREDICTED BY IDOCK:  -12.06 KCAL/MOL
REMARK 923 INTER-LIGAND FREE ENERGY PREDICTED BY IDOCK:  -10.62 KCAL/MOL
REMARK 924 INTRA-LIGAND FREE ENERGY PREDICTED BY IDOCK:   -1.44 KCAL/MOL
REMARK 927      BINDING AFFINITY PREDICTED BY RF-SCORE:    0.00 PKD
ROOT
HETATM    1  C   UNL     1     -12.987  15.718  71.440  1.00  0.00    -0.478 C  
HETATM    2  C   UNL     1     -12.890  14.248  71.052  1.00  0.00    -0.427 C  
ENDROOT
BRANCH   2   3
HETATM    3  C   UNL     1     -12.380  14.020  69.622  1.00  0.00    -0.309 C  
BRANCH   3   4
HETATM    4  C   UNL     1     -12.015  12.593  69.372  1.00  0.00    -0.260 A  
HETATM    5  N   UNL     1     -11.854  11.707  70.338  1.00  0.00    -0.334 NA 
HETATM    6  C   UNL     1     -11.421  10.555  69.740  1.00  0.00    -0.294 A  
HETATM    7  C   UNL     1     -11.352  10.726  68.366  1.00  0.00    -0.302 A  
HETATM    8  N   UNL     1     -11.792  12.014  68.137  1.00  0.00    -0.471 NA 
HETATM    9  C   UNL     1     -10.884   9.728  67.510  1.00  0.00    -0.286 A  
HETATM   10  C   UNL     1     -11.031   9.332  70.322  1.00  0.00    -0.286 A  
HETATM   11  C   UNL     1     -10.570   8.475  68.050  1.00  0.00    -0.197 A  
HETATM   12  C   UNL     1     -11.028   9.128  71.808  1.00  0.00    -0.429 C  
HETATM   13  C   UNL     1     -10.621   8.302  69.444  1.00  0.00    -0.203 A  
BRANCH   8  14
HETATM   14  C   UNL     1     -11.807  12.652  66.819  1.00  0.00    -0.370 C  
BRANCH  14  15
HETATM   15  C   UNL     1     -10.899  13.856  66.639  1.00  0.00    -0.289 A  
HETATM   16  C   UNL     1     -11.329  15.079  66.125  1.00  0.00    -0.270 A  
HETATM   17  C   UNL     1      -8.762  14.953  67.194  1.00  0.00    -0.240 A  
HETATM   18  C   UNL     1      -9.587  13.809  67.145  1.00  0.00    -0.244 A  
HETATM   19  C   UNL     1     -10.482  16.207  66.139  1.00  0.00    -0.334 A  
HETATM   20  C   UNL     1      -9.186  16.196  66.701  1.00  0.00    -0.273 A  
BRANCH  20  21
HETATM   21  C   UNL     1      -8.383  17.463  66.804  1.00  0.00    -0.276 A  
HETATM   22  C   UNL     1      -6.377  18.709  66.051  1.00  0.00    -0.252 A  
HETATM   23  C   UNL     1      -7.225  17.589  66.004  1.00  0.00    -0.298 A  
HETATM   24  C   UNL     1      -7.806  19.707  67.665  1.00  0.00    -0.317 A  
HETATM   25  C   UNL     1      -8.672  18.579  67.624  1.00  0.00    -0.280 A  
HETATM   26  C   UNL     1      -6.652  19.758  66.897  1.00  0.00    -0.208 A  
HETATM   27  C   UNL     1      -9.840  18.664  68.532  1.00  0.00    -0.386 C  
HETATM   28  O   UNL     1     -10.377  19.900  68.422  1.00  0.00    -0.450 OA 
HETATM   29  O   UNL     1     -10.223  17.825  69.323  1.00  0.00    -0.312 OA 
ENDBRANCH  20  21
ENDBRANCH  14  15
ENDBRANCH   8  14
BRANCH  11  30
HETATM   30  C   UNL     1     -10.165   7.352  67.187  1.00  0.00    -0.277 A  
HETATM   31  C   UNL     1     -10.643   4.403  65.292  1.00  0.00    -0.181 A  
HETATM   32  C   UNL     1      -9.693   3.715  64.525  1.00  0.00    -0.178 A  
HETATM   33  N   UNL     1     -10.989   6.404  66.768  1.00  0.00    -0.331 NA 
HETATM   34  C   UNL     1      -7.744   8.000  66.774  1.00  0.00    -0.098 C  
HETATM   35  C   UNL     1     -10.251   5.563  65.977  1.00  0.00    -0.012 A  
HETATM   36  C   UNL     1      -8.378   4.171  64.446  1.00  0.00    -0.101 A  
HETATM   37  N   UNL     1      -8.901   7.143  66.648  1.00  0.00    -0.126 NA 
HETATM   38  C   UNL     1      -8.935   5.998  65.882  1.00  0.00    -0.133 A  
HETATM   39  C   UNL     1      -7.970   5.324  65.124  1.00  0.00    -0.108 A  
ENDBRANCH  11  30
ENDBRANCH   3   4
ENDBRANCH   2   3
TORSDOF 6
ENDMDL
MODEL       10
REMARK 921   NORMALIZED FREE ENERGY PREDICTED BY IDOCK:   -7.44 KCAL/MOL
REMARK 922        TOTAL FREE ENERGY PREDICTED BY IDOCK:  -12.05 KCAL/MOL
REMARK 923 INTER-LIGAND FREE ENERGY PREDICTED BY IDOCK:  -10.92 KCAL/MOL
REMARK 924 INTRA-LIGAND FREE ENERGY PREDICTED BY IDOCK:   -1.12 KCAL/MOL
REMARK 927      BINDING AFFINITY PREDICTED BY RF-SCORE:    0.00 PKD
ROOT
HETATM    1  C   UNL     1     -12.675  15.931  73.989  1.00  0.00    -0.703 C  
HETATM    2  C   UNL     1     -13.592  15.510  72.848  1.00  0.00    -0.633 C  
ENDROOT
BRANCH   2   3
HETATM    3  C   UNL     1     -13.456  14.031  72.461  1.00  0.00    -0.661 C  
BRANCH   3   4
HETATM    4  C   UNL     1     -12.611  13.840  71.243  1.00  0.00    -0.362 A  
HETATM    5  N   UNL     1     -11.896  14.809  70.700  1.00  0.00    -0.287 NA 
HETATM    6  C   UNL     1     -11.353  14.294  69.553  1.00  0.00    -0.269 A  
HETATM    7  C   UNL     1     -11.714  12.963  69.410  1.00  0.00    -0.321 A  
HETATM    8  N   UNL     1     -12.468  12.666  70.527  1.00  0.00    -0.247 NA 
HETATM    9  C   UNL     1     -11.347  12.204  68.297  1.00  0.00    -0.343 A  
HETATM   10  C   UNL     1     -10.570  14.926  68.567  1.00  0.00    -0.245 A  
HETATM   11  C   UNL     1     -10.500  12.779  67.343  1.00  0.00    -0.234 A  
HETATM   12  C   UNL     1     -10.214  16.381  68.651  1.00  0.00    -0.258 C  
HETATM   13  C   UNL     1     -10.146  14.134  67.475  1.00  0.00    -0.236 A  
BRANCH   8  14
HETATM   14  C   UNL     1     -13.130  11.380  70.751  1.00  0.00     0.106 C  
BRANCH  14  15
HETATM   15  C   UNL     1     -12.259  10.253  71.278  1.00  0.00    -0.496 A  
HETATM   16  C   UNL     1     -12.679   9.336  72.241  1.00  0.00    -0.435 A  
HETATM   17  C   UNL     1     -10.248   8.859  70.972  1.00  0.00    -0.322 A  
HETATM   18  C   UNL     1     -11.013  10.007  70.672  1.00  0.00    -0.392 A  
HETATM   19  C   UNL     1     -11.887   8.214  72.566  1.00  0.00    -0.438 A  
HETATM   20  C   UNL     1     -10.665   7.917  71.924  1.00  0.00    -0.290 A  
BRANCH  20  21
HETATM   21  C   UNL     1      -9.933   6.637  72.221  1.00  0.00    -0.179 A  
HETATM   22  C   UNL     1      -9.990   4.160  72.169  1.00  0.00    -0.243 A  
HETATM   23  C   UNL     1     -10.562   5.415  71.896  1.00  0.00    -0.288 A  
HETATM   24  C   UNL     1      -8.075   5.243  73.066  1.00  0.00    -0.105 A  
HETATM   25  C   UNL     1      -8.644   6.518  72.792  1.00  0.00    -0.124 A  
HETATM   26  C   UNL     1      -8.759   4.071  72.774  1.00  0.00    -0.105 A  
HETATM   27  C   UNL     1      -7.804   7.668  73.198  1.00  0.00    -0.111 C  
HETATM   28  O   UNL     1      -6.532   7.426  72.807  1.00  0.00    -0.058 OA 
HETATM   29  O   UNL     1      -8.141   8.635  73.853  1.00  0.00    -0.398 OA 
ENDBRANCH  20  21
ENDBRANCH  14  15
ENDBRANCH   8  14
BRANCH  11  30
HETATM   30  C   UNL     1      -9.998  12.000  66.198  1.00  0.00    -0.231 A  
HETATM   31  C   UNL     1      -7.767   9.857  64.483  1.00  0.00    -0.142 A  
HETATM   32  C   UNL     1      -7.891   9.357  63.180  1.00  0.00    -0.132 A  
HETATM   33  N   UNL     1      -8.876  11.297  66.215  1.00  0.00    -0.188 NA 
HETATM   34  C   UNL     1     -11.923  12.357  64.580  1.00  0.00    -0.402 C  
HETATM   35  C   UNL     1      -8.768  10.701  64.985  1.00  0.00    -0.176 A  
HETATM   36  C   UNL     1      -8.989   9.696  62.391  1.00  0.00    -0.282 A  
HETATM   37  N   UNL     1     -10.631  11.841  64.971  1.00  0.00    -0.277 NA 
HETATM   38  C   UNL     1      -9.853  11.025  64.180  1.00  0.00    -0.308 A  
HETATM   39  C   UNL     1      -9.995  10.539  62.874  1.00  0.00    -0.109 A  
ENDBRANCH  11  30
ENDBRANCH   3   4
ENDBRANCH   2   3
TORSDOF 6
ENDMDL
MODEL       11
REMARK 921   NORMALIZED FREE ENERGY PREDICTED BY IDOCK:   -7.37 KCAL/MOL
REMARK 922        TOTAL FREE ENERGY PREDICTED BY IDOCK:  -11.96 KCAL/MOL
REMARK 923 INTER-LIGAND FREE ENERGY PREDICTED BY IDOCK:  -10.64 KCAL/MOL
REMARK 924 INTRA-LIGAND FREE ENERGY PREDICTED BY IDOCK:   -1.32 KCAL/MOL
REMARK 927      BINDING AFFINITY PREDICTED BY RF-SCORE:    0.00 PKD
ROOT
HETATM    1  C   UNL     1      -8.432   2.819  72.215  1.00  0.00    -0.073 C  
HETATM    2  C   UNL     1      -9.781   3.249  71.655  1.00  0.00    -0.234 C  
ENDROOT
BRANCH   2   3
HETATM    3  C   UNL     1      -9.680   4.304  70.544  1.00  0.00    -0.282 C  
BRANCH   3   4
HETATM    4  C   UNL     1     -10.436   5.550  70.876  1.00  0.00    -0.249 A  
HETATM    5  N   UNL     1     -11.629   5.543  71.443  1.00  0.00     0.191 NA 
HETATM    6  C   UNL     1     -12.045   6.846  71.487  1.00  0.00    -0.358 A  
HETATM    7  C   UNL     1     -11.064   7.679  70.970  1.00  0.00    -0.257 A  
HETATM    8  N   UNL     1     -10.016   6.845  70.638  1.00  0.00    -0.187 NA 
HETATM    9  C   UNL     1     -11.246   9.056  70.838  1.00  0.00    -0.348 A  
HETATM   10  C   UNL     1     -13.272   7.384  71.926  1.00  0.00    -0.292 A  
HETATM   11  C   UNL     1     -12.419   9.630  71.342  1.00  0.00    -0.465 A  
HETATM   12  C   UNL     1     -14.383   6.511  72.430  1.00  0.00     0.233 C  
HETATM   13  C   UNL     1     -13.424   8.788  71.852  1.00  0.00    -0.447 A  
BRANCH   8  14
HETATM   14  C   UNL     1      -8.790   7.294  69.976  1.00  0.00    -0.141 C  
BRANCH  14  15
HETATM   15  C   UNL     1      -8.963   8.052  68.671  1.00  0.00    -0.134 A  
HETATM   16  C   UNL     1      -9.862   7.679  67.672  1.00  0.00    -0.207 A  
HETATM   17  C   UNL     1      -8.574  10.132  67.406  1.00  0.00    -0.122 A  
HETATM   18  C   UNL     1      -8.301   9.283  68.499  1.00  0.00    -0.119 A  
HETATM   19  C   UNL     1     -10.096   8.516  66.561  1.00  0.00    -0.328 A  
HETATM   20  C   UNL     1      -9.490   9.782  66.402  1.00  0.00    -0.237 A  
BRANCH  20  21
HETATM   21  C   UNL     1      -9.880  10.684  65.264  1.00  0.00    -0.334 A  
HETATM   22  C   UNL     1     -11.371  12.501  64.480  1.00  0.00    -0.379 A  
HETATM   23  C   UNL     1     -10.897  11.638  65.484  1.00  0.00    -0.334 A  
HETATM   24  C   UNL     1      -9.805  11.567  62.957  1.00  0.00    -0.367 A  
HETATM   25  C   UNL     1      -9.317  10.691  63.966  1.00  0.00    -0.303 A  
HETATM   26  C   UNL     1     -10.844  12.451  63.211  1.00  0.00    -0.300 A  
HETATM   27  C   UNL     1      -8.233   9.783  63.523  1.00  0.00    -0.156 C  
HETATM   28  O   UNL     1      -7.345  10.502  62.799  1.00  0.00    -0.140 OA 
HETATM   29  O   UNL     1      -8.166   8.580  63.680  1.00  0.00    -0.164 OA 
ENDBRANCH  20  21
ENDBRANCH  14  15
ENDBRANCH   8  14
BRANCH  11  30
HETATM   30  C   UNL     1     -12.626  11.088  71.323  1.00  0.00    -0.412 A  
HETATM   31  C   UNL     1     -13.856  14.189  72.501  1.00  0.00    -0.590 A  
HETATM   32  C   UNL     1     -13.628  15.461  71.959  1.00  0.00    -0.588 A  
HETATM   33  N   UNL     1     -13.338  11.748  72.224  1.00  0.00    -0.303 NA 
HETATM   34  C   UNL     1     -11.162  11.686  69.336  1.00  0.00    -0.246 C  
HETATM   35  C   UNL     1     -13.274  13.073  71.880  1.00  0.00    -0.430 A  
HETATM   36  C   UNL     1     -12.841  15.618  70.820  1.00  0.00    -0.457 A  
HETATM   37  N   UNL     1     -12.079  11.983  70.413  1.00  0.00    -0.355 NA 
HETATM   38  C   UNL     1     -12.493  13.255  70.746  1.00  0.00    -0.324 A  
HETATM   39  C   UNL     1     -12.256  14.517  70.187  1.00  0.00    -0.399 A  
ENDBRANCH  11  30
ENDBRANCH   3   4
ENDBRANCH   2   3
TORSDOF 6
ENDMDL
MODEL       12
REMARK 921   NORMALIZED FREE ENERGY PREDICTED BY IDOCK:   -7.15 KCAL/MOL
REMARK 922        TOTAL FREE ENERGY PREDICTED BY IDOCK:  -11.66 KCAL/MOL
REMARK 923 INTER-LIGAND FREE ENERGY PREDICTED BY IDOCK:   -9.51 KCAL/MOL
REMARK 924 INTRA-LIGAND FREE ENERGY PREDICTED BY IDOCK:   -2.15 KCAL/MOL
REMARK 927      BINDING AFFINITY PREDICTED BY RF-SCORE:    0.00 PKD
ROOT
HETATM    1  C   UNL     1     -10.082   4.391  72.942  1.00  0.00    -0.214 C  
HETATM    2  C   UNL     1     -10.331   5.238  74.183  1.00  0.00    -0.308 C  
ENDROOT
BRANCH   2   3
HETATM    3  C   UNL     1      -9.586   6.581  74.172  1.00  0.00    -0.256 C  
BRANCH   3   4
HETATM    4  C   UNL     1     -10.230   7.578  73.265  1.00  0.00    -0.343 A  
HETATM    5  N   UNL     1     -11.521   7.854  73.293  1.00  0.00    -0.174 NA 
HETATM    6  C   UNL     1     -11.756   8.718  72.257  1.00  0.00    -0.328 A  
HETATM    7  C   UNL     1     -10.570   9.011  71.601  1.00  0.00    -0.364 A  
HETATM    8  N   UNL     1      -9.592   8.324  72.290  1.00  0.00    -0.255 NA 
HETATM    9  C   UNL     1     -10.524   9.823  70.467  1.00  0.00    -0.366 A  
HETATM   10  C   UNL     1     -12.972   9.263  71.800  1.00  0.00    -0.471 A  
HETATM   11  C   UNL     1     -11.702  10.446  70.040  1.00  0.00    -0.366 A  
HETATM   12  C   UNL     1     -14.284   8.920  72.441  1.00  0.00    -0.452 C  
HETATM   13  C   UNL     1     -12.910  10.139  70.691  1.00  0.00    -0.314 A  
BRANCH   8  14
HETATM   14  C   UNL     1      -8.185   8.280  71.890  1.00  0.00    -0.149 C  
BRANCH  14  15
HETATM   15  C   UNL     1      -7.864   7.506  70.624  1.00  0.00    -0.095 A  
HETATM   16  C   UNL     1      -8.217   6.172  70.422  1.00  0.00    -0.117 A  
HETATM   17  C   UNL     1      -7.180   7.580  68.256  1.00  0.00    -0.093 A  
HETATM   18  C   UNL     1      -7.313   8.188  69.523  1.00  0.00    -0.081 A  
HETATM   19  C   UNL     1      -8.040   5.560  69.163  1.00  0.00    -0.095 A  
HETATM   20  C   UNL     1      -7.549   6.246  68.030  1.00  0.00    -0.102 A  
BRANCH  20  21
HETATM   21  C   UNL     1      -7.508   5.575  66.684  1.00  0.00    -0.087 A  
HETATM   22  C   UNL     1      -6.099   4.519  64.940  1.00  0.00    -0.026 A  
HETATM   23  C   UNL     1      -6.261   5.120  66.201  1.00  0.00    -0.031 A  
HETATM   24  C   UNL     1      -8.434   4.724  64.557  1.00  0.00    -0.140 A  
HETATM   25  C   UNL     1      -8.610   5.330  65.832  1.00  0.00    -0.128 A  
HETATM   26  C   UNL     1      -7.179   4.342  64.108  1.00  0.00    -0.054 A  
HETATM   27  C   UNL     1     -10.006   5.715  66.145  1.00  0.00    -0.058 C  
HETATM   28  O   UNL     1     -10.819   4.692  65.794  1.00  0.00    -0.293 OA 
HETATM   29  O   UNL     1     -10.403   6.787  66.557  1.00  0.00    -0.157 OA 
ENDBRANCH  20  21
ENDBRANCH  14  15
ENDBRANCH   8  14
BRANCH  11  30
HETATM   30  C   UNL     1     -11.700  11.393  68.910  1.00  0.00    -0.343 A  
HETATM   31  C   UNL     1     -11.740  12.355  65.507  1.00  0.00    -0.459 A  
HETATM   32  C   UNL     1     -11.773  13.655  64.985  1.00  0.00    -0.354 A  
HETATM   33  N   UNL     1     -11.710  11.028  67.638  1.00  0.00    -0.580 NA 
HETATM   34  C   UNL     1     -11.840  13.576  70.201  1.00  0.00    -0.278 C  
HETATM   35  C   UNL     1     -11.728  12.182  66.899  1.00  0.00    -0.301 A  
HETATM   36  C   UNL     1     -11.789  14.761  65.834  1.00  0.00    -0.204 A  
HETATM   37  N   UNL     1     -11.738  12.778  69.000  1.00  0.00    -0.308 NA 
HETATM   38  C   UNL     1     -11.744  13.299  67.724  1.00  0.00    -0.358 A  
HETATM   39  C   UNL     1     -11.774  14.607  67.224  1.00  0.00    -0.406 A  
ENDBRANCH  11  30
ENDBRANCH   3   4
ENDBRANCH   2   3
TORSDOF 6
ENDMDL
MODEL       13
REMARK 921   NORMALIZED FREE ENERGY PREDICTED BY IDOCK:   -7.14 KCAL/MOL
REMARK 922        TOTAL FREE ENERGY PREDICTED BY IDOCK:  -11.65 KCAL/MOL
REMARK 923 INTER-LIGAND FREE ENERGY PREDICTED BY IDOCK:   -9.76 KCAL/MOL
REMARK 924 INTRA-LIGAND FREE ENERGY PREDICTED BY IDOCK:   -1.88 KCAL/MOL
REMARK 927      BINDING AFFINITY PREDICTED BY RF-SCORE:    0.00 PKD
ROOT
HETATM    1  C   UNL     1      -8.278   7.543  64.546  1.00  0.00    -0.036 C  
HETATM    2  C   UNL     1      -7.019   8.293  64.131  1.00  0.00    -0.077 C  
ENDROOT
BRANCH   2   3
HETATM    3  C   UNL     1      -7.272   9.758  63.749  1.00  0.00    -0.120 C  
BRANCH   3   4
HETATM    4  C   UNL     1      -8.345  10.383  64.581  1.00  0.00    -0.155 A  
HETATM    5  N   UNL     1      -9.509  10.767  64.091  1.00  0.00    -0.245 NA 
HETATM    6  C   UNL     1     -10.176  11.387  65.114  1.00  0.00    -0.277 A  
HETATM    7  C   UNL     1      -9.415  11.348  66.272  1.00  0.00    -0.209 A  
HETATM    8  N   UNL     1      -8.272  10.652  65.935  1.00  0.00    -0.156 NA 
HETATM    9  C   UNL     1      -9.826  11.959  67.458  1.00  0.00    -0.194 A  
HETATM   10  C   UNL     1     -11.424  12.040  65.108  1.00  0.00    -0.344 A  
HETATM   11  C   UNL     1     -11.098  12.542  67.506  1.00  0.00    -0.311 A  
HETATM   12  C   UNL     1     -12.248  12.162  63.860  1.00  0.00    -0.587 C  
HETATM   13  C   UNL     1     -11.865  12.599  66.329  1.00  0.00    -0.471 A  
BRANCH   8  14
HETATM   14  C   UNL     1      -7.143  10.442  66.843  1.00  0.00    -0.094 C  
BRANCH  14  15
HETATM   15  C   UNL     1      -7.436   9.683  68.126  1.00  0.00    -0.082 A  
HETATM   16  C   UNL     1      -7.396  10.262  69.394  1.00  0.00    -0.115 A  
HETATM   17  C   UNL     1      -8.404   7.677  69.182  1.00  0.00    -0.131 A  
HETATM   18  C   UNL     1      -7.922   8.364  68.048  1.00  0.00    -0.119 A  
HETATM   19  C   UNL     1      -7.840   9.551  70.528  1.00  0.00    -0.182 A  
HETATM   20  C   UNL     1      -8.390   8.251  70.462  1.00  0.00    -0.124 A  
BRANCH  20  21
HETATM   21  C   UNL     1      -8.967   7.598  71.687  1.00  0.00    -0.148 A  
HETATM   22  C   UNL     1     -10.882   7.466  73.254  1.00  0.00    -0.417 A  
HETATM   23  C   UNL     1     -10.263   7.979  72.101  1.00  0.00    -0.308 A  
HETATM   24  C   UNL     1      -8.981   6.097  73.650  1.00  0.00    -0.128 A  
HETATM   25  C   UNL     1      -8.347   6.608  72.485  1.00  0.00    -0.113 A  
HETATM   26  C   UNL     1     -10.235   6.545  74.043  1.00  0.00    -0.374 A  
HETATM   27  C   UNL     1      -6.996   6.057  72.226  1.00  0.00    -0.082 C  
HETATM   28  O   UNL     1      -7.040   4.717  72.409  1.00  0.00    -0.073 OA 
HETATM   29  O   UNL     1      -5.979   6.676  71.983  1.00  0.00    -0.037 OA 
ENDBRANCH  20  21
ENDBRANCH  14  15
ENDBRANCH   8  14
BRANCH  11  30
HETATM   30  C   UNL     1     -11.629  13.115  68.756  1.00  0.00    -0.308 A  
HETATM   31  C   UNL     1     -12.815  15.682  70.881  1.00  0.00    -0.498 A  
HETATM   32  C   UNL     1     -13.301  15.553  72.189  1.00  0.00    -0.561 A  
HETATM   33  N   UNL     1     -11.891  14.401  68.929  1.00  0.00    -0.315 NA 
HETATM   34  C   UNL     1     -11.942  10.975  70.089  1.00  0.00    -0.360 C  
HETATM   35  C   UNL     1     -12.387  14.532  70.200  1.00  0.00    -0.342 A  
HETATM   36  C   UNL     1     -13.356  14.305  72.807  1.00  0.00    -0.621 A  
HETATM   37  N   UNL     1     -11.976  12.408  69.900  1.00  0.00    -0.324 NA 
HETATM   38  C   UNL     1     -12.451  13.299  70.838  1.00  0.00    -0.342 A  
HETATM   39  C   UNL     1     -12.931  13.150  72.145  1.00  0.00    -0.382 A  
ENDBRANCH  11  30
ENDBRANCH   3   4
ENDBRANCH   2   3
TORSDOF 6
ENDMDL
MODEL       14
REMARK 921   NORMALIZED FREE ENERGY PREDICTED BY IDOCK:   -7.13 KCAL/MOL
REMARK 922        TOTAL FREE ENERGY PREDICTED BY IDOCK:  -11.63 KCAL/MOL
REMARK 923 INTER-LIGAND FREE ENERGY PREDICTED BY IDOCK:  -10.53 KCAL/MOL
REMARK 924 INTRA-LIGAND FREE ENERGY PREDICTED BY IDOCK:   -1.10 KCAL/MOL
REMARK 927      BINDING AFFINITY PREDICTED BY RF-SCORE:    0.00 PKD
ROOT
HETATM    1  C   UNL     1     -13.210  15.849  73.215  1.00  0.00    -0.698 C  
HETATM    2  C   UNL     1     -12.430  14.785  72.454  1.00  0.00    -0.410 C  
ENDROOT
BRANCH   2   3
HETATM    3  C   UNL     1     -13.319  13.824  71.652  1.00  0.00    -0.430 C  
BRANCH   3   4
HETATM    4  C   UNL     1     -12.531  12.995  70.690  1.00  0.00    -0.268 A  
HETATM    5  N   UNL     1     -11.957  13.491  69.609  1.00  0.00    -0.329 NA 
HETATM    6  C   UNL     1     -11.430  12.428  68.926  1.00  0.00    -0.307 A  
HETATM    7  C   UNL     1     -11.655  11.252  69.626  1.00  0.00    -0.330 A  
HETATM    8  N   UNL     1     -12.307  11.634  70.781  1.00  0.00    -0.385 NA 
HETATM    9  C   UNL     1     -11.276  10.003  69.132  1.00  0.00    -0.197 A  
HETATM   10  C   UNL     1     -10.779  12.396  67.677  1.00  0.00    -0.248 A  
HETATM   11  C   UNL     1     -10.552   9.947  67.935  1.00  0.00    -0.303 A  
HETATM   12  C   UNL     1     -10.575  13.636  66.858  1.00  0.00    -0.271 C  
HETATM   13  C   UNL     1     -10.338  11.135  67.212  1.00  0.00    -0.243 A  
BRANCH   8  14
HETATM   14  C   UNL     1     -12.813  10.696  71.784  1.00  0.00    -0.444 C  
BRANCH  14  15
HETATM   15  C   UNL     1     -12.215   9.300  71.770  1.00  0.00    -0.457 A  
HETATM   16  C   UNL     1     -10.922   9.007  72.201  1.00  0.00    -0.258 A  
HETATM   17  C   UNL     1     -12.606   6.871  71.612  1.00  0.00    -0.410 A  
HETATM   18  C   UNL     1     -13.038   8.204  71.448  1.00  0.00    -0.248 A  
HETATM   19  C   UNL     1     -10.484   7.671  72.321  1.00  0.00    -0.289 A  
HETATM   20  C   UNL     1     -11.315   6.558  72.064  1.00  0.00    -0.326 A  
BRANCH  20  21
HETATM   21  C   UNL     1     -10.832   5.160  72.336  1.00  0.00    -0.265 A  
HETATM   22  C   UNL     1     -10.781   3.261  73.927  1.00  0.00    -0.291 A  
HETATM   23  C   UNL     1     -11.211   4.545  73.551  1.00  0.00    -0.388 A  
HETATM   24  C   UNL     1      -9.599   3.068  71.876  1.00  0.00    -0.222 A  
HETATM   25  C   UNL     1     -10.030   4.366  71.484  1.00  0.00    -0.250 A  
HETATM   26  C   UNL     1      -9.957   2.531  73.104  1.00  0.00    -0.183 A  
HETATM   27  C   UNL     1      -9.530   4.808  70.161  1.00  0.00    -0.175 C  
HETATM   28  O   UNL     1      -9.670   3.785  69.288  1.00  0.00    -0.176 OA 
HETATM   29  O   UNL     1      -8.992   5.864  69.889  1.00  0.00    -0.136 OA 
ENDBRANCH  20  21
ENDBRANCH  14  15
ENDBRANCH   8  14
BRANCH  11  30
HETATM   30  C   UNL     1     -10.038   8.669  67.412  1.00  0.00    -0.229 A  
HETATM   31  C   UNL     1     -10.261   5.342  66.232  1.00  0.00    -0.263 A  
HETATM   32  C   UNL     1      -9.222   4.531  65.758  1.00  0.00    -0.146 A  
HETATM   33  N   UNL     1     -10.798   7.618  67.145  1.00  0.00    -0.277 NA 
HETATM   34  C   UNL     1      -7.594   9.296  67.120  1.00  0.00    -0.091 C  
HETATM   35  C   UNL     1      -9.964   6.645  66.660  1.00  0.00    -0.140 A  
HETATM   36  C   UNL     1      -7.913   5.006  65.715  1.00  0.00    -0.107 A  
HETATM   37  N   UNL     1      -8.719   8.390  67.078  1.00  0.00    -0.124 NA 
HETATM   38  C   UNL     1      -8.652   7.096  66.607  1.00  0.00    -0.124 A  
HETATM   39  C   UNL     1      -7.598   6.301  66.139  1.00  0.00    -0.090 A  
ENDBRANCH  11  30
ENDBRANCH   3   4
ENDBRANCH   2   3
TORSDOF 6
ENDMDL
MODEL       15
REMARK 921   NORMALIZED FREE ENERGY PREDICTED BY IDOCK:   -7.11 KCAL/MOL
REMARK 922        TOTAL FREE ENERGY PREDICTED BY IDOCK:  -11.60 KCAL/MOL
REMARK 923 INTER-LIGAND FREE ENERGY PREDICTED BY IDOCK:  -10.56 KCAL/MOL
REMARK 924 INTRA-LIGAND FREE ENERGY PREDICTED BY IDOCK:   -1.04 KCAL/MOL
REMARK 927      BINDING AFFINITY PREDICTED BY RF-SCORE:    0.00 PKD
ROOT
HETATM    1  C   UNL     1     -14.382  15.455  72.313  1.00  0.00    -0.576 C  
HETATM    2  C   UNL     1     -13.347  14.433  72.765  1.00  0.00    -0.606 C  
ENDROOT
BRANCH   2   3
HETATM    3  C   UNL     1     -13.535  13.045  72.136  1.00  0.00    -0.638 C  
BRANCH   3   4
HETATM    4  C   UNL     1     -12.674  12.849  70.930  1.00  0.00    -0.207 A  
HETATM    5  N   UNL     1     -12.111  13.847  70.273  1.00  0.00    -0.333 NA 
HETATM    6  C   UNL     1     -11.502  13.295  69.178  1.00  0.00    -0.305 A  
HETATM    7  C   UNL     1     -11.663  11.918  69.185  1.00  0.00    -0.319 A  
HETATM    8  N   UNL     1     -12.363  11.638  70.341  1.00  0.00    -0.312 NA 
HETATM    9  C   UNL     1     -11.192  11.105  68.153  1.00  0.00    -0.356 A  
HETATM   10  C   UNL     1     -10.823  13.924  68.116  1.00  0.00    -0.262 A  
HETATM   11  C   UNL     1     -10.441  11.691  67.127  1.00  0.00    -0.252 A  
HETATM   12  C   UNL     1     -10.685  15.416  68.037  1.00  0.00    -0.279 C  
HETATM   13  C   UNL     1     -10.290  13.089  67.107  1.00  0.00    -0.243 A  
BRANCH   8  14
HETATM   14  C   UNL     1     -12.827  10.301  70.714  1.00  0.00    -0.344 C  
BRANCH  14  15
HETATM   15  C   UNL     1     -11.824   9.408  71.424  1.00  0.00    -0.447 A  
HETATM   16  C   UNL     1     -12.184   8.345  72.251  1.00  0.00    -0.449 A  
HETATM   17  C   UNL     1      -9.493   8.623  71.595  1.00  0.00    -0.339 A  
HETATM   18  C   UNL     1     -10.454   9.546  71.131  1.00  0.00    -0.358 A  
HETATM   19  C   UNL     1     -11.210   7.452  72.745  1.00  0.00    -0.380 A  
HETATM   20  C   UNL     1      -9.840   7.536  72.411  1.00  0.00    -0.219 A  
BRANCH  20  21
HETATM   21  C   UNL     1      -8.873   6.477  72.863  1.00  0.00    -0.127 A  
HETATM   22  C   UNL     1      -6.850   5.955  74.196  1.00  0.00    -0.081 A  
HETATM   23  C   UNL     1      -7.834   6.851  73.745  1.00  0.00    -0.109 A  
HETATM   24  C   UNL     1      -7.893   4.210  72.966  1.00  0.00    -0.085 A  
HETATM   25  C   UNL     1      -8.895   5.108  72.506  1.00  0.00    -0.129 A  
HETATM   26  C   UNL     1      -6.863   4.641  73.790  1.00  0.00    -0.069 A  
HETATM   27  C   UNL     1      -9.901   4.501  71.603  1.00  0.00    -0.190 C  
HETATM   28  O   UNL     1     -10.282   3.314  72.128  1.00  0.00    -0.153 OA 
HETATM   29  O   UNL     1     -10.273   4.917  70.524  1.00  0.00    -0.244 OA 
ENDBRANCH  20  21
ENDBRANCH  14  15
ENDBRANCH   8  14
BRANCH  11  30
HETATM   30  C   UNL     1      -9.833  10.873  66.063  1.00  0.00    -0.233 A  
HETATM   31  C   UNL     1      -7.762   8.335  64.729  1.00  0.00    -0.114 A  
HETATM   32  C   UNL     1      -7.632   7.954  63.387  1.00  0.00    -0.130 A  
HETATM   33  N   UNL     1      -8.950   9.911  66.280  1.00  0.00    -0.142 NA 
HETATM   34  C   UNL     1     -11.103  11.789  64.063  1.00  0.00    -0.390 C  
HETATM   35  C   UNL     1      -8.644   9.376  65.056  1.00  0.00    -0.172 A  
HETATM   36  C   UNL     1      -8.362   8.600  62.391  1.00  0.00    -0.200 A  
HETATM   37  N   UNL     1     -10.121  10.945  64.706  1.00  0.00    -0.297 NA 
HETATM   38  C   UNL     1      -9.361  10.004  64.046  1.00  0.00    -0.270 A  
HETATM   39  C   UNL     1      -9.243   9.641  62.699  1.00  0.00    -0.203 A  
ENDBRANCH  11  30
ENDBRANCH   3   4
ENDBRANCH   2   3
TORSDOF 6
ENDMDL
MODEL       16
REMARK 921   NORMALIZED FREE ENERGY PREDICTED BY IDOCK:   -7.09 KCAL/MOL
REMARK 922        TOTAL FREE ENERGY PREDICTED BY IDOCK:  -11.58 KCAL/MOL
REMARK 923 INTER-LIGAND FREE ENERGY PREDICTED BY IDOCK:  -10.73 KCAL/MOL
REMARK 924 INTRA-LIGAND FREE ENERGY PREDICTED BY IDOCK:   -0.85 KCAL/MOL
REMARK 927      BINDING AFFINITY PREDICTED BY RF-SCORE:    0.00 PKD
ROOT
HETATM    1  C   UNL     1     -12.517  13.583  63.613  1.00  0.00    -0.278 C  
HETATM    2  C   UNL     1     -11.942  12.184  63.438  1.00  0.00    -0.578 C  
ENDROOT
BRANCH   2   3
HETATM    3  C   UNL     1     -10.442  12.090  63.749  1.00  0.00    -0.469 C  
BRANCH   3   4
HETATM    4  C   UNL     1     -10.144  11.072  64.802  1.00  0.00    -0.308 A  
HETATM    5  N   UNL     1      -9.421   9.990  64.577  1.00  0.00    -0.290 NA 
HETATM    6  C   UNL     1      -9.460   9.251  65.729  1.00  0.00    -0.262 A  
HETATM    7  C   UNL     1     -10.194   9.917  66.699  1.00  0.00    -0.226 A  
HETATM    8  N   UNL     1     -10.577  11.107  66.114  1.00  0.00    -0.260 NA 
HETATM    9  C   UNL     1     -10.447   9.366  67.956  1.00  0.00    -0.278 A  
HETATM   10  C   UNL     1      -8.917   7.980  66.001  1.00  0.00    -0.205 A  
HETATM   11  C   UNL     1      -9.850   8.142  68.284  1.00  0.00    -0.191 A  
HETATM   12  C   UNL     1      -8.173   7.198  64.959  1.00  0.00    -0.095 C  
HETATM   13  C   UNL     1      -9.120   7.455  67.298  1.00  0.00    -0.135 A  
BRANCH   8  14
HETATM   14  C   UNL     1     -11.445  12.094  66.757  1.00  0.00    -0.356 C  
BRANCH  14  15
HETATM   15  C   UNL     1     -10.850  13.472  66.990  1.00  0.00    -0.287 A  
HETATM   16  C   UNL     1      -9.716  13.947  66.332  1.00  0.00    -0.309 A  
HETATM   17  C   UNL     1     -11.158  15.747  67.890  1.00  0.00    -0.326 A  
HETATM   18  C   UNL     1     -11.546  14.393  67.797  1.00  0.00    -0.384 A  
HETATM   19  C   UNL     1      -9.312  15.292  66.466  1.00  0.00    -0.309 A  
HETATM   20  C   UNL     1     -10.032  16.246  67.219  1.00  0.00    -0.250 A  
BRANCH  20  21
HETATM   21  C   UNL     1      -9.624  17.693  67.216  1.00  0.00    -0.271 A  
HETATM   22  C   UNL     1     -10.201  20.005  66.536  1.00  0.00    -0.598 A  
HETATM   23  C   UNL     1     -10.501  18.635  66.634  1.00  0.00    -0.459 A  
HETATM   24  C   UNL     1      -8.140  19.621  67.653  1.00  0.00    -0.325 A  
HETATM   25  C   UNL     1      -8.434  18.233  67.758  1.00  0.00    -0.256 A  
HETATM   26  C   UNL     1      -9.013  20.496  67.023  1.00  0.00    -0.380 A  
HETATM   27  C   UNL     1      -7.382  17.429  68.423  1.00  0.00    -0.227 C  
HETATM   28  O   UNL     1      -6.973  18.092  69.528  1.00  0.00    -0.139 OA 
HETATM   29  O   UNL     1      -6.881  16.395  68.027  1.00  0.00    -0.128 OA 
ENDBRANCH  20  21
ENDBRANCH  14  15
ENDBRANCH   8  14
BRANCH  11  30
HETATM   30  C   UNL     1      -9.997   7.557  69.628  1.00  0.00    -0.184 A  
HETATM   31  C   UNL     1     -11.042   5.155  72.005  1.00  0.00    -0.085 A  
HETATM   32  C   UNL     1     -10.787   5.147  73.383  1.00  0.00    -0.359 A  
HETATM   33  N   UNL     1     -10.639   6.426  69.878  1.00  0.00    -0.220 NA 
HETATM   34  C   UNL     1      -8.603   9.214  70.954  1.00  0.00    -0.206 C  
HETATM   35  C   UNL     1     -10.536   6.207  71.227  1.00  0.00    -0.243 A  
HETATM   36  C   UNL     1     -10.047   6.170  73.974  1.00  0.00    -0.282 A  
HETATM   37  N   UNL     1      -9.456   8.058  70.806  1.00  0.00    -0.161 NA 
HETATM   38  C   UNL     1      -9.802   7.215  71.839  1.00  0.00    -0.159 A  
HETATM   39  C   UNL     1      -9.538   7.228  73.215  1.00  0.00    -0.257 A  
ENDBRANCH  11  30
ENDBRANCH   3   4
ENDBRANCH   2   3
TORSDOF 6
ENDMDL
MODEL       17
REMARK 921   NORMALIZED FREE ENERGY PREDICTED BY IDOCK:   -7.06 KCAL/MOL
REMARK 922        TOTAL FREE ENERGY PREDICTED BY IDOCK:  -11.53 KCAL/MOL
REMARK 923 INTER-LIGAND FREE ENERGY PREDICTED BY IDOCK:  -11.00 KCAL/MOL
REMARK 924 INTRA-LIGAND FREE ENERGY PREDICTED BY IDOCK:   -0.53 KCAL/MOL
REMARK 927      BINDING AFFINITY PREDICTED BY RF-SCORE:    0.00 PKD
ROOT
HETATM    1  C   UNL     1     -10.159   6.972  73.889  1.00  0.00    -0.386 C  
HETATM    2  C   UNL     1     -10.346   5.484  74.151  1.00  0.00    -0.302 C  
ENDROOT
BRANCH   2   3
HETATM    3  C   UNL     1     -10.869   4.705  72.935  1.00  0.00    -0.295 C  
BRANCH   3   4
HETATM    4  C   UNL     1     -10.381   5.277  71.644  1.00  0.00    -0.216 A  
HETATM    5  N   UNL     1      -9.181   5.031  71.150  1.00  0.00    -0.141 NA 
HETATM    6  C   UNL     1      -9.056   5.807  70.029  1.00  0.00    -0.142 A  
HETATM    7  C   UNL     1     -10.225   6.518  69.807  1.00  0.00    -0.187 A  
HETATM    8  N   UNL     1     -11.087   6.127  70.812  1.00  0.00    -0.303 NA 
HETATM    9  C   UNL     1     -10.356   7.436  68.764  1.00  0.00    -0.209 A  
HETATM   10  C   UNL     1      -7.950   5.977  69.173  1.00  0.00    -0.103 A  
HETATM   11  C   UNL     1      -9.305   7.564  67.848  1.00  0.00    -0.144 A  
HETATM   12  C   UNL     1      -6.646   5.277  69.416  1.00  0.00    -0.047 C  
HETATM   13  C   UNL     1      -8.111   6.858  68.078  1.00  0.00    -0.115 A  
BRANCH   8  14
HETATM   14  C   UNL     1     -12.421   6.694  71.014  1.00  0.00    -0.166 C  
BRANCH  14  15
HETATM   15  C   UNL     1     -12.489   8.190  71.274  1.00  0.00    -0.269 A  
HETATM   16  C   UNL     1     -11.387   9.040  71.196  1.00  0.00    -0.375 A  
HETATM   17  C   UNL     1     -13.899  10.199  71.503  1.00  0.00     0.019 A  
HETATM   18  C   UNL     1     -13.745   8.797  71.460  1.00  0.00    -0.384 A  
HETATM   19  C   UNL     1     -11.546  10.439  71.283  1.00  0.00    -0.231 A  
HETATM   20  C   UNL     1     -12.804  11.070  71.405  1.00  0.00    -0.548 A  
BRANCH  20  21
HETATM   21  C   UNL     1     -12.919  12.569  71.360  1.00  0.00    -0.347 A  
HETATM   22  C   UNL     1     -13.737  14.617  72.489  1.00  0.00    -0.572 A  
HETATM   23  C   UNL     1     -13.537  13.226  72.447  1.00  0.00    -0.694 A  
HETATM   24  C   UNL     1     -12.661  14.824  70.382  1.00  0.00    -0.399 A  
HETATM   25  C   UNL     1     -12.452  13.418  70.329  1.00  0.00    -0.285 A  
HETATM   26  C   UNL     1     -13.322  15.415  71.449  1.00  0.00    -0.601 A  
HETATM   27  C   UNL     1     -11.766  12.942  69.105  1.00  0.00    -0.324 C  
HETATM   28  O   UNL     1     -10.722  13.765  68.854  1.00  0.00    -0.248 OA 
HETATM   29  O   UNL     1     -12.106  12.034  68.373  1.00  0.00    -0.412 OA 
ENDBRANCH  20  21
ENDBRANCH  14  15
ENDBRANCH   8  14
BRANCH  11  30
HETATM   30  C   UNL     1      -9.421   8.441  66.670  1.00  0.00    -0.205 A  
HETATM   31  C   UNL     1     -10.500  11.277  64.852  1.00  0.00    -0.375 A  
HETATM   32  C   UNL     1     -10.176  11.623  63.533  1.00  0.00    -0.474 A  
HETATM   33  N   UNL     1     -10.123   9.564  66.647  1.00  0.00    -0.243 NA 
HETATM   34  C   UNL     1      -7.853   7.218  65.089  1.00  0.00    -0.123 C  
HETATM   35  C   UNL     1      -9.966  10.099  65.396  1.00  0.00    -0.307 A  
HETATM   36  C   UNL     1      -9.340  10.809  62.771  1.00  0.00    -0.352 A  
HETATM   37  N   UNL     1      -8.788   8.261  65.446  1.00  0.00    -0.124 NA 
HETATM   38  C   UNL     1      -9.136   9.305  64.616  1.00  0.00    -0.121 A  
HETATM   39  C   UNL     1      -8.801   9.630  63.295  1.00  0.00    -0.254 A  
ENDBRANCH  11  30
ENDBRANCH   3   4
ENDBRANCH   2   3
TORSDOF 6
ENDMDL
MODEL       18
REMARK 921   NORMALIZED FREE ENERGY PREDICTED BY IDOCK:   -7.01 KCAL/MOL
REMARK 922        TOTAL FREE ENERGY PREDICTED BY IDOCK:  -11.48 KCAL/MOL
REMARK 923 INTER-LIGAND FREE ENERGY PREDICTED BY IDOCK:  -10.75 KCAL/MOL
REMARK 924 INTRA-LIGAND FREE ENERGY PREDICTED BY IDOCK:   -0.73 KCAL/MOL
REMARK 927      BINDING AFFINITY PREDICTED BY RF-SCORE:    0.00 PKD
ROOT
HETATM    1  C   UNL     1     -10.539  19.616  67.446  1.00  0.00    -0.589 C  
HETATM    2  C   UNL     1     -10.175  18.232  67.967  1.00  0.00    -0.402 C  
ENDROOT
BRANCH   2   3
HETATM    3  C   UNL     1     -10.639  17.088  67.054  1.00  0.00    -0.226 C  
BRANCH   3   4
HETATM    4  C   UNL     1     -11.034  15.872  67.827  1.00  0.00    -0.315 A  
HETATM    5  N   UNL     1     -11.903  15.897  68.821  1.00  0.00    -0.358 NA 
HETATM    6  C   UNL     1     -11.924  14.635  69.351  1.00  0.00    -0.313 A  
HETATM    7  C   UNL     1     -11.074  13.804  68.638  1.00  0.00    -0.267 A  
HETATM    8  N   UNL     1     -10.556  14.590  67.629  1.00  0.00    -0.250 NA 
HETATM    9  C   UNL     1     -10.855  12.473  68.997  1.00  0.00    -0.183 A  
HETATM   10  C   UNL     1     -12.624  14.142  70.470  1.00  0.00    -0.410 A  
HETATM   11  C   UNL     1     -11.599  11.931  70.052  1.00  0.00    -0.301 A  
HETATM   12  C   UNL     1     -13.502  15.024  71.307  1.00  0.00    -0.520 C  
HETATM   13  C   UNL     1     -12.449  12.775  70.789  1.00  0.00    -0.357 A  
BRANCH   8  14
HETATM   14  C   UNL     1      -9.540  14.137  66.677  1.00  0.00    -0.289 C  
BRANCH  14  15
HETATM   15  C   UNL     1      -9.421  12.636  66.476  1.00  0.00    -0.247 A  
HETATM   16  C   UNL     1      -8.505  11.835  67.156  1.00  0.00    -0.170 A  
HETATM   17  C   UNL     1     -10.442  10.565  65.612  1.00  0.00    -0.213 A  
HETATM   18  C   UNL     1     -10.372  11.973  65.677  1.00  0.00    -0.288 A  
HETATM   19  C   UNL     1      -8.556  10.429  67.051  1.00  0.00    -0.130 A  
HETATM   20  C   UNL     1      -9.541   9.743  66.305  1.00  0.00    -0.271 A  
BRANCH  20  21
HETATM   21  C   UNL     1      -9.623   8.242  66.339  1.00  0.00    -0.300 A  
HETATM   22  C   UNL     1     -10.792   6.252  67.241  1.00  0.00    -0.457 A  
HETATM   23  C   UNL     1     -10.649   7.643  67.103  1.00  0.00    -0.410 A  
HETATM   24  C   UNL     1      -8.924   5.931  65.808  1.00  0.00    -0.131 A  
HETATM   25  C   UNL     1      -8.771   7.337  65.661  1.00  0.00    -0.092 A  
HETATM   26  C   UNL     1      -9.918   5.395  66.614  1.00  0.00    -0.220 A  
HETATM   27  C   UNL     1      -7.639   7.748  64.798  1.00  0.00    -0.108 C  
HETATM   28  O   UNL     1      -7.647   6.975  63.689  1.00  0.00    -0.092 OA 
HETATM   29  O   UNL     1      -6.776   8.566  65.050  1.00  0.00    -0.063 OA 
ENDBRANCH  20  21
ENDBRANCH  14  15
ENDBRANCH   8  14
BRANCH  11  30
HETATM   30  C   UNL     1     -11.486  10.508  70.414  1.00  0.00    -0.341 A  
HETATM   31  C   UNL     1      -9.912   7.347  70.627  1.00  0.00    -0.186 A  
HETATM   32  C   UNL     1     -10.400   6.188  71.245  1.00  0.00    -0.264 A  
HETATM   33  N   UNL     1     -10.434   9.753  70.136  1.00  0.00    -0.266 NA 
HETATM   34  C   UNL     1     -13.653  10.239  71.711  1.00  0.00    -0.187 C  
HETATM   35  C   UNL     1     -10.696   8.510  70.651  1.00  0.00    -0.220 A  
HETATM   36  C   UNL     1     -11.646   6.187  71.871  1.00  0.00    -0.352 A  
HETATM   37  N   UNL     1     -12.417   9.766  71.131  1.00  0.00    -0.331 NA 
HETATM   38  C   UNL     1     -11.934   8.484  71.280  1.00  0.00    -0.294 A  
HETATM   39  C   UNL     1     -12.442   7.336  71.901  1.00  0.00    -0.337 A  
ENDBRANCH  11  30
ENDBRANCH   3   4
ENDBRANCH   2   3
TORSDOF 6
ENDMDL
MODEL       19
REMARK 921   NORMALIZED FREE ENERGY PREDICTED BY IDOCK:   -6.96 KCAL/MOL
REMARK 922        TOTAL FREE ENERGY PREDICTED BY IDOCK:  -11.40 KCAL/MOL
REMARK 923 INTER-LIGAND FREE ENERGY PREDICTED BY IDOCK:  -10.30 KCAL/MOL
REMARK 924 INTRA-LIGAND FREE ENERGY PREDICTED BY IDOCK:   -1.11 KCAL/MOL
REMARK 927      BINDING AFFINITY PREDICTED BY RF-SCORE:    0.00 PKD
ROOT
HETATM    1  C   UNL     1     -14.400   7.445  71.208  1.00  0.00    -0.408 C  
HETATM    2  C   UNL     1     -14.246   8.949  71.026  1.00  0.00     0.041 C  
ENDROOT
BRANCH   2   3
HETATM    3  C   UNL     1     -13.353   9.611  72.084  1.00  0.00    -0.545 C  
BRANCH   3   4
HETATM    4  C   UNL     1     -12.911  10.979  71.678  1.00  0.00    -0.456 A  
HETATM    5  N   UNL     1     -13.400  12.085  72.209  1.00  0.00    -0.364 NA 
HETATM    6  C   UNL     1     -12.845  13.127  71.516  1.00  0.00    -0.307 A  
HETATM    7  C   UNL     1     -11.963  12.649  70.560  1.00  0.00    -0.192 A  
HETATM    8  N   UNL     1     -11.968  11.277  70.712  1.00  0.00    -0.327 NA 
HETATM    9  C   UNL     1     -11.298  13.491  69.667  1.00  0.00    -0.219 A  
HETATM   10  C   UNL     1     -13.083  14.511  71.632  1.00  0.00    -0.416 A  
HETATM   11  C   UNL     1     -11.450  14.875  69.812  1.00  0.00    -0.328 A  
HETATM   12  C   UNL     1     -14.079  15.064  72.608  1.00  0.00    -0.397 C  
HETATM   13  C   UNL     1     -12.357  15.365  70.769  1.00  0.00    -0.447 A  
BRANCH   8  14
HETATM   14  C   UNL     1     -11.233  10.354  69.845  1.00  0.00    -0.306 C  
BRANCH  14  15
HETATM   15  C   UNL     1     -10.731   9.073  70.490  1.00  0.00    -0.285 A  
HETATM   16  C   UNL     1     -10.137   9.023  71.750  1.00  0.00    -0.373 A  
HETATM   17  C   UNL     1     -10.745   6.608  70.507  1.00  0.00    -0.293 A  
HETATM   18  C   UNL     1     -11.001   7.840  69.867  1.00  0.00    -0.194 A  
HETATM   19  C   UNL     1      -9.845   7.786  72.363  1.00  0.00    -0.264 A  
HETATM   20  C   UNL     1     -10.167   6.539  71.783  1.00  0.00    -0.210 A  
BRANCH  20  21
HETATM   21  C   UNL     1      -9.950   5.259  72.543  1.00  0.00    -0.208 A  
HETATM   22  C   UNL     1     -10.885   3.628  74.157  1.00  0.00    -0.215 A  
HETATM   23  C   UNL     1     -10.994   4.787  73.369  1.00  0.00    -0.396 A  
HETATM   24  C   UNL     1      -8.691   3.278  73.315  1.00  0.00    -0.081 A  
HETATM   25  C   UNL     1      -8.792   4.447  72.512  1.00  0.00    -0.122 A  
HETATM   26  C   UNL     1      -9.727   2.886  74.150  1.00  0.00    -0.135 A  
HETATM   27  C   UNL     1      -7.585   4.749  71.707  1.00  0.00    -0.095 C  
HETATM   28  O   UNL     1      -7.158   3.602  71.134  1.00  0.00    -0.032 OA 
HETATM   29  O   UNL     1      -6.996   5.809  71.627  1.00  0.00    -0.068 OA 
ENDBRANCH  20  21
ENDBRANCH  14  15
ENDBRANCH   8  14
BRANCH  11  30
HETATM   30  C   UNL     1     -10.698  15.819  68.966  1.00  0.00    -0.235 A  
HETATM   31  C   UNL     1     -10.278  18.598  66.819  1.00  0.00    -0.431 A  
HETATM   32  C   UNL     1      -9.081  19.097  66.289  1.00  0.00    -0.326 A  
HETATM   33  N   UNL     1     -11.252  16.819  68.299  1.00  0.00    -0.267 NA 
HETATM   34  C   UNL     1      -8.341  14.983  69.411  1.00  0.00    -0.141 C  
HETATM   35  C   UNL     1     -10.233  17.474  67.658  1.00  0.00    -0.343 A  
HETATM   36  C   UNL     1      -7.864  18.485  66.584  1.00  0.00    -0.270 A  
HETATM   37  N   UNL     1      -9.321  15.838  68.781  1.00  0.00    -0.205 NA 
HETATM   38  C   UNL     1      -9.008  16.882  67.938  1.00  0.00    -0.225 A  
HETATM   39  C   UNL     1      -7.800  17.362  67.416  1.00  0.00    -0.212 A  
ENDBRANCH  11  30
ENDBRANCH   3   4
ENDBRANCH   2   3
TORSDOF 6
ENDMDL
MODEL       20
REMARK 921   NORMALIZED FREE ENERGY PREDICTED BY IDOCK:   -6.93 KCAL/MOL
REMARK 922        TOTAL FREE ENERGY PREDICTED BY IDOCK:  -11.36 KCAL/MOL
REMARK 923 INTER-LIGAND FREE ENERGY PREDICTED BY IDOCK:  -10.57 KCAL/MOL
REMARK 924 INTRA-LIGAND FREE ENERGY PREDICTED BY IDOCK:   -0.79 KCAL/MOL
REMARK 927      BINDING AFFINITY PREDICTED BY RF-SCORE:    0.00 PKD
ROOT
HETATM    1  C   UNL     1     -12.049  16.271  72.858  1.00  0.00    -0.625 C  
HETATM    2  C   UNL     1     -13.031  15.200  73.311  1.00  0.00    -0.645 C  
ENDROOT
BRANCH   2   3
HETATM    3  C   UNL     1     -13.884  14.623  72.172  1.00  0.00    -0.569 C  
BRANCH   3   4
HETATM    4  C   UNL     1     -13.401  13.280  71.728  1.00  0.00    -0.393 A  
HETATM    5  N   UNL     1     -13.857  12.146  72.228  1.00  0.00    -0.086 NA 
HETATM    6  C   UNL     1     -13.110  11.146  71.665  1.00  0.00    -0.424 A  
HETATM    7  C   UNL     1     -12.199  11.679  70.766  1.00  0.00    -0.344 A  
HETATM    8  N   UNL     1     -12.435  13.038  70.769  1.00  0.00    -0.339 NA 
HETATM    9  C   UNL     1     -11.268  10.890  70.089  1.00  0.00    -0.317 A  
HETATM   10  C   UNL     1     -13.136   9.759  71.909  1.00  0.00    -0.544 A  
HETATM   11  C   UNL     1     -11.325   9.500  70.247  1.00  0.00    -0.284 A  
HETATM   12  C   UNL     1     -14.061   9.150  72.922  1.00  0.00     0.001 C  
HETATM   13  C   UNL     1     -12.235   8.957  71.171  1.00  0.00    -0.303 A  
BRANCH   8  14
HETATM   14  C   UNL     1     -11.638  14.010  70.018  1.00  0.00    -0.232 C  
BRANCH  14  15
HETATM   15  C   UNL     1     -11.178  13.584  68.635  1.00  0.00    -0.311 A  
HETATM   16  C   UNL     1      -9.841  13.386  68.291  1.00  0.00    -0.235 A  
HETATM   17  C   UNL     1     -11.780  12.625  66.445  1.00  0.00    -0.466 A  
HETATM   18  C   UNL     1     -12.139  13.220  67.673  1.00  0.00    -0.295 A  
HETATM   19  C   UNL     1      -9.490  12.830  67.043  1.00  0.00    -0.233 A  
HETATM   20  C   UNL     1     -10.441  12.400  66.091  1.00  0.00    -0.274 A  
BRANCH  20  21
HETATM   21  C   UNL     1     -10.007  11.695  64.836  1.00  0.00    -0.293 A  
HETATM   22  C   UNL     1      -8.275  10.305  63.737  1.00  0.00    -0.153 A  
HETATM   23  C   UNL     1      -8.798  10.965  64.862  1.00  0.00    -0.127 A  
HETATM   24  C   UNL     1     -10.160  11.000  62.469  1.00  0.00     0.132 A  
HETATM   25  C   UNL     1     -10.699  11.669  63.602  1.00  0.00    -0.500 A  
HETATM   26  C   UNL     1      -8.941  10.340  62.534  1.00  0.00    -0.283 A  
HETATM   27  C   UNL     1     -11.988  12.357  63.357  1.00  0.00    -0.504 C  
HETATM   28  O   UNL     1     -12.788  11.526  62.652  1.00  0.00     0.173 OA 
HETATM   29  O   UNL     1     -12.280  13.502  63.640  1.00  0.00    -0.625 OA 
ENDBRANCH  20  21
ENDBRANCH  14  15
ENDBRANCH   8  14
BRANCH  11  30
HETATM   30  C   UNL     1     -10.435   8.607  69.484  1.00  0.00    -0.220 A  
HETATM   31  C   UNL     1      -8.969   7.229  66.575  1.00  0.00    -0.175 A  
HETATM   32  C   UNL     1      -7.963   6.256  66.502  1.00  0.00    -0.109 A  
HETATM   33  N   UNL     1     -10.370   8.579  68.162  1.00  0.00    -0.212 NA 
HETATM   34  C   UNL     1      -9.196   7.514  71.413  1.00  0.00    -0.141 C  
HETATM   35  C   UNL     1      -9.420   7.646  67.837  1.00  0.00    -0.143 A  
HETATM   36  C   UNL     1      -7.421   5.707  67.663  1.00  0.00    -0.077 A  
HETATM   37  N   UNL     1      -9.513   7.715  70.017  1.00  0.00    -0.161 NA 
HETATM   38  C   UNL     1      -8.864   7.084  68.979  1.00  0.00    -0.134 A  
HETATM   39  C   UNL     1      -7.860   6.108  68.928  1.00  0.00    -0.101 A  
ENDBRANCH  11  30
ENDBRANCH   3   4
ENDBRANCH   2   3
TORSDOF 6
ENDMDL
MODEL       21
REMARK 921   NORMALIZED FREE ENERGY PREDICTED BY IDOCK:   -6.93 KCAL/MOL
REMARK 922        TOTAL FREE ENERGY PREDICTED BY IDOCK:  -11.36 KCAL/MOL
REMARK 923 INTER-LIGAND FREE ENERGY PREDICTED BY IDOCK:   -9.87 KCAL/MOL
REMARK 924 INTRA-LIGAND FREE ENERGY PREDICTED BY IDOCK:   -1.49 KCAL/MOL
REMARK 927      BINDING AFFINITY PREDICTED BY RF-SCORE:    0.00 PKD
ROOT
HETATM    1  C   UNL     1     -13.257  15.560  73.036  1.00  0.00    -0.648 C  
HETATM    2  C   UNL     1     -12.537  14.371  72.413  1.00  0.00    -0.356 C  
ENDROOT
BRANCH   2   3
HETATM    3  C   UNL     1     -13.440  13.495  71.534  1.00  0.00    -0.315 C  
BRANCH   3   4
HETATM    4  C   UNL     1     -12.702  12.340  70.938  1.00  0.00    -0.187 A  
HETATM    5  N   UNL     1     -12.464  11.218  71.594  1.00  0.00    -0.222 NA 
HETATM    6  C   UNL     1     -11.679  10.450  70.776  1.00  0.00    -0.368 A  
HETATM    7  C   UNL     1     -11.462  11.102  69.572  1.00  0.00    -0.303 A  
HETATM    8  N   UNL     1     -12.170  12.283  69.663  1.00  0.00    -0.172 NA 
HETATM    9  C   UNL     1     -10.645  10.573  68.572  1.00  0.00    -0.234 A  
HETATM   10  C   UNL     1     -11.085   9.196  71.020  1.00  0.00    -0.374 A  
HETATM   11  C   UNL     1     -10.109   9.292  68.751  1.00  0.00    -0.210 A  
HETATM   12  C   UNL     1     -11.241   8.488  72.334  1.00  0.00    -0.399 C  
HETATM   13  C   UNL     1     -10.312   8.635  69.977  1.00  0.00    -0.213 A  
BRANCH   8  14
HETATM   14  C   UNL     1     -12.157  13.328  68.638  1.00  0.00    -0.222 C  
BRANCH  14  15
HETATM   15  C   UNL     1     -11.065  14.377  68.754  1.00  0.00    -0.275 A  
HETATM   16  C   UNL     1      -9.796  14.239  68.191  1.00  0.00    -0.226 A  
HETATM   17  C   UNL     1     -10.468  16.711  69.280  1.00  0.00    -0.333 A  
HETATM   18  C   UNL     1     -11.371  15.627  69.325  1.00  0.00    -0.348 A  
HETATM   19  C   UNL     1      -8.885  15.316  68.189  1.00  0.00    -0.171 A  
HETATM   20  C   UNL     1      -9.196  16.596  68.700  1.00  0.00    -0.248 A  
BRANCH  20  21
HETATM   21  C   UNL     1      -8.230  17.738  68.550  1.00  0.00    -0.296 A  
HETATM   22  C   UNL     1      -6.057  18.715  69.230  1.00  0.00    -0.263 A  
HETATM   23  C   UNL     1      -7.012  17.683  69.262  1.00  0.00    -0.161 A  
HETATM   24  C   UNL     1      -7.433  19.925  67.719  1.00  0.00    -0.326 A  
HETATM   25  C   UNL     1      -8.405  18.887  67.742  1.00  0.00    -0.305 A  
HETATM   26  C   UNL     1      -6.275  19.845  68.479  1.00  0.00    -0.305 A  
HETATM   27  C   UNL     1      -9.601  19.143  66.906  1.00  0.00    -0.325 C  
HETATM   28  O   UNL     1      -9.190  19.622  65.710  1.00  0.00    -0.376 OA 
HETATM   29  O   UNL     1     -10.767  19.043  67.233  1.00  0.00    -0.452 OA 
ENDBRANCH  20  21
ENDBRANCH  14  15
ENDBRANCH   8  14
BRANCH  11  30
HETATM   30  C   UNL     1      -9.321   8.639  67.691  1.00  0.00    -0.137 A  
HETATM   31  C   UNL     1      -6.483   8.093  65.652  1.00  0.00    -0.049 A  
HETATM   32  C   UNL     1      -6.310   7.105  64.673  1.00  0.00    -0.037 A  
HETATM   33  N   UNL     1      -8.091   8.995  67.355  1.00  0.00    -0.107 NA 
HETATM   34  C   UNL     1     -10.940   6.787  67.056  1.00  0.00    -0.368 C  
HETATM   35  C   UNL     1      -7.695   8.144  66.358  1.00  0.00    -0.092 A  
HETATM   36  C   UNL     1      -7.325   6.190  64.400  1.00  0.00    -0.069 A  
HETATM   37  N   UNL     1      -9.714   7.543  66.933  1.00  0.00    -0.194 NA 
HETATM   38  C   UNL     1      -8.692   7.221  66.067  1.00  0.00    -0.151 A  
HETATM   39  C   UNL     1      -8.540   6.228  65.091  1.00  0.00    -0.030 A  
ENDBRANCH  11  30
ENDBRANCH   3   4
ENDBRANCH   2   3
TORSDOF 6
ENDMDL
MODEL       22
REMARK 921   NORMALIZED FREE ENERGY PREDICTED BY IDOCK:   -6.92 KCAL/MOL
REMARK 922        TOTAL FREE ENERGY PREDICTED BY IDOCK:  -11.35 KCAL/MOL
REMARK 923 INTER-LIGAND FREE ENERGY PREDICTED BY IDOCK:   -9.77 KCAL/MOL
REMARK 924 INTRA-LIGAND FREE ENERGY PREDICTED BY IDOCK:   -1.58 KCAL/MOL
REMARK 927      BINDING AFFINITY PREDICTED BY RF-SCORE:    0.00 PKD
ROOT
HETATM    1  C   UNL     1      -9.724  20.581  67.209  1.00  0.00    -0.600 C  
HETATM    2  C   UNL     1     -10.253  19.378  66.441  1.00  0.00    -0.556 C  
ENDROOT
BRANCH   2   3
HETATM    3  C   UNL     1     -10.779  18.253  67.344  1.00  0.00    -0.377 C  
BRANCH   3   4
HETATM    4  C   UNL     1      -9.793  17.140  67.495  1.00  0.00    -0.266 A  
HETATM    5  N   UNL     1      -8.504  17.340  67.704  1.00  0.00    -0.207 NA 
HETATM    6  C   UNL     1      -7.910  16.107  67.676  1.00  0.00    -0.147 A  
HETATM    7  C   UNL     1      -8.867  15.121  67.485  1.00  0.00    -0.182 A  
HETATM    8  N   UNL     1     -10.073  15.788  67.430  1.00  0.00    -0.242 NA 
HETATM    9  C   UNL     1      -8.534  13.771  67.357  1.00  0.00    -0.209 A  
HETATM   10  C   UNL     1      -6.548  15.763  67.773  1.00  0.00    -0.181 A  
HETATM   11  C   UNL     1      -7.199  13.390  67.532  1.00  0.00    -0.163 A  
HETATM   12  C   UNL     1      -5.476  16.803  67.914  1.00  0.00    -0.129 C  
HETATM   13  C   UNL     1      -6.223  14.387  67.709  1.00  0.00    -0.151 A  
BRANCH   8  14
HETATM   14  C   UNL     1     -11.356  15.140  67.155  1.00  0.00    -0.290 C  
BRANCH  14  15
HETATM   15  C   UNL     1     -11.702  13.931  68.008  1.00  0.00    -0.387 A  
HETATM   16  C   UNL     1     -11.742  12.626  67.520  1.00  0.00    -0.429 A  
HETATM   17  C   UNL     1     -11.967  12.988  70.270  1.00  0.00    -0.360 A  
HETATM   18  C   UNL     1     -11.848  14.092  69.399  1.00  0.00    -0.381 A  
HETATM   19  C   UNL     1     -11.904  11.531  68.395  1.00  0.00    -0.353 A  
HETATM   20  C   UNL     1     -11.988  11.667  69.799  1.00  0.00    -0.402 A  
BRANCH  20  21
HETATM   21  C   UNL     1     -12.027  10.454  70.687  1.00  0.00    -0.448 A  
HETATM   22  C   UNL     1     -13.274   9.199  72.422  1.00  0.00    -0.512 A  
HETATM   23  C   UNL     1     -13.152  10.272  71.521  1.00  0.00    -0.534 A  
HETATM   24  C   UNL     1     -11.176   8.362  71.688  1.00  0.00    -0.343 A  
HETATM   25  C   UNL     1     -11.043   9.441  70.772  1.00  0.00    -0.365 A  
HETATM   26  C   UNL     1     -12.278   8.257  72.524  1.00  0.00    -0.367 A  
HETATM   27  C   UNL     1      -9.791   9.429  69.980  1.00  0.00    -0.221 C  
HETATM   28  O   UNL     1      -9.581   8.169  69.535  1.00  0.00    -0.166 OA 
HETATM   29  O   UNL     1      -9.012  10.346  69.815  1.00  0.00    -0.118 OA 
ENDBRANCH  20  21
ENDBRANCH  14  15
ENDBRANCH   8  14
BRANCH  11  30
HETATM   30  C   UNL     1      -6.800  11.972  67.509  1.00  0.00    -0.128 A  
HETATM   31  C   UNL     1      -6.366   8.765  66.080  1.00  0.00    -0.057 A  
HETATM   32  C   UNL     1      -5.780   7.637  66.670  1.00  0.00    -0.035 A  
HETATM   33  N   UNL     1      -6.954  11.176  66.462  1.00  0.00    -0.140 NA 
HETATM   34  C   UNL     1      -5.730  11.806  69.806  1.00  0.00    -0.102 C  
HETATM   35  C   UNL     1      -6.445   9.954  66.820  1.00  0.00    -0.070 A  
HETATM   36  C   UNL     1      -5.288   7.692  67.973  1.00  0.00    -0.031 A  
HETATM   37  N   UNL     1      -6.170  11.278  68.535  1.00  0.00    -0.046 NA 
HETATM   38  C   UNL     1      -5.947   9.985  68.116  1.00  0.00    -0.042 A  
HETATM   39  C   UNL     1      -5.361   8.868  68.726  1.00  0.00    -0.033 A  
ENDBRANCH  11  30
ENDBRANCH   3   4
ENDBRANCH   2   3
TORSDOF 6
ENDMDL
MODEL       23
REMARK 921   NORMALIZED FREE ENERGY PREDICTED BY IDOCK:   -6.84 KCAL/MOL
REMARK 922        TOTAL FREE ENERGY PREDICTED BY IDOCK:  -11.24 KCAL/MOL
REMARK 923 INTER-LIGAND FREE ENERGY PREDICTED BY IDOCK:   -9.54 KCAL/MOL
REMARK 924 INTRA-LIGAND FREE ENERGY PREDICTED BY IDOCK:   -1.70 KCAL/MOL
REMARK 927      BINDING AFFINITY PREDICTED BY RF-SCORE:    0.00 PKD
ROOT
HETATM    1  C   UNL     1     -12.138  13.843  64.563  1.00  0.00    -0.473 C  
HETATM    2  C   UNL     1     -12.269  12.776  65.641  1.00  0.00    -0.503 C  
ENDROOT
BRANCH   2   3
HETATM    3  C   UNL     1     -12.047  13.306  67.064  1.00  0.00    -0.375 C  
BRANCH   3   4
HETATM    4  C   UNL     1     -11.609  12.231  68.006  1.00  0.00    -0.349 A  
HETATM    5  N   UNL     1     -12.387  11.738  68.952  1.00  0.00    -0.233 NA 
HETATM    6  C   UNL     1     -11.616  10.867  69.674  1.00  0.00    -0.322 A  
HETATM    7  C   UNL     1     -10.341  10.796  69.132  1.00  0.00    -0.217 A  
HETATM    8  N   UNL     1     -10.366  11.626  68.031  1.00  0.00    -0.186 NA 
HETATM    9  C   UNL     1      -9.327  10.027  69.706  1.00  0.00    -0.233 A  
HETATM   10  C   UNL     1     -11.935  10.131  70.832  1.00  0.00    -0.461 A  
HETATM   11  C   UNL     1      -9.637   9.220  70.806  1.00  0.00    -0.341 A  
HETATM   12  C   UNL     1     -13.281  10.231  71.488  1.00  0.00    -0.484 C  
HETATM   13  C   UNL     1     -10.923   9.302  71.370  1.00  0.00    -0.429 A  
BRANCH   8  14
HETATM   14  C   UNL     1      -9.198  11.919  67.199  1.00  0.00    -0.183 C  
BRANCH  14  15
HETATM   15  C   UNL     1      -8.612  13.316  67.319  1.00  0.00    -0.211 A  
HETATM   16  C   UNL     1      -8.859  14.339  66.405  1.00  0.00    -0.001 A  
HETATM   17  C   UNL     1      -7.508  14.993  68.749  1.00  0.00    -0.133 A  
HETATM   18  C   UNL     1      -7.901  13.664  68.482  1.00  0.00    -0.131 A  
HETATM   19  C   UNL     1      -8.425  15.657  66.660  1.00  0.00    -0.323 A  
HETATM   20  C   UNL     1      -7.766  16.039  67.850  1.00  0.00    -0.149 A  
BRANCH  20  21
HETATM   21  C   UNL     1      -7.445  17.483  68.121  1.00  0.00    -0.218 A  
HETATM   22  C   UNL     1      -5.677  19.204  68.344  1.00  0.00    -0.217 A  
HETATM   23  C   UNL     1      -6.094  17.891  68.065  1.00  0.00    -0.169 A  
HETATM   24  C   UNL     1      -7.939  19.834  68.702  1.00  0.00    -0.271 A  
HETATM   25  C   UNL     1      -8.373  18.509  68.420  1.00  0.00    -0.355 A  
HETATM   26  C   UNL     1      -6.593  20.170  68.685  1.00  0.00    -0.334 A  
HETATM   27  C   UNL     1      -9.837  18.305  68.519  1.00  0.00    -0.381 C  
HETATM   28  O   UNL     1     -10.454  19.336  67.899  1.00  0.00    -0.403 OA 
HETATM   29  O   UNL     1     -10.422  17.428  69.123  1.00  0.00    -0.341 OA 
ENDBRANCH  20  21
ENDBRANCH  14  15
ENDBRANCH   8  14
BRANCH  11  30
HETATM   30  C   UNL     1      -8.637   8.312  71.394  1.00  0.00    -0.149 A  
HETATM   31  C   UNL     1      -6.000   7.383  73.561  1.00  0.00    -0.056 A  
HETATM   32  C   UNL     1      -5.402   6.122  73.691  1.00  0.00    -0.040 A  
HETATM   33  N   UNL     1      -7.780   8.665  72.339  1.00  0.00    -0.342 NA 
HETATM   34  C   UNL     1      -9.273   6.166  70.193  1.00  0.00    -0.155 C  
HETATM   35  C   UNL     1      -7.041   7.549  72.635  1.00  0.00    -0.071 A  
HETATM   36  C   UNL     1      -5.830   5.050  72.910  1.00  0.00    -0.021 A  
HETATM   37  N   UNL     1      -8.474   6.965  71.094  1.00  0.00    -0.123 NA 
HETATM   38  C   UNL     1      -7.450   6.465  71.868  1.00  0.00    -0.094 A  
HETATM   39  C   UNL     1      -6.864   5.198  71.980  1.00  0.00    -0.061 A  
ENDBRANCH  11  30
ENDBRANCH   3   4
ENDBRANCH   2   3
TORSDOF 6
ENDMDL
MODEL       24
REMARK 921   NORMALIZED FREE ENERGY PREDICTED BY IDOCK:   -6.74 KCAL/MOL
REMARK 922        TOTAL FREE ENERGY PREDICTED BY IDOCK:  -11.10 KCAL/MOL
REMARK 923 INTER-LIGAND FREE ENERGY PREDICTED BY IDOCK:   -9.58 KCAL/MOL
REMARK 924 INTRA-LIGAND FREE ENERGY PREDICTED BY IDOCK:   -1.52 KCAL/MOL
REMARK 927      BINDING AFFINITY PREDICTED BY RF-SCORE:    0.00 PKD
ROOT
HETATM    1  C   UNL     1     -10.700  14.741  65.076  1.00  0.00    -0.452 C  
HETATM    2  C   UNL     1     -10.313  13.576  65.976  1.00  0.00    -0.303 C  
ENDROOT
BRANCH   2   3
HETATM    3  C   UNL     1     -11.230  12.353  65.831  1.00  0.00    -0.373 C  
BRANCH   3   4
HETATM    4  C   UNL     1     -11.341  11.574  67.101  1.00  0.00    -0.284 A  
HETATM    5  N   UNL     1     -11.986  12.014  68.166  1.00  0.00    -0.496 NA 
HETATM    6  C   UNL     1     -11.778  11.092  69.155  1.00  0.00    -0.333 A  
HETATM    7  C   UNL     1     -11.018  10.037  68.673  1.00  0.00    -0.204 A  
HETATM    8  N   UNL     1     -10.794  10.327  67.342  1.00  0.00    -0.288 NA 
HETATM    9  C   UNL     1     -10.604   8.980  69.485  1.00  0.00    -0.231 A  
HETATM   10  C   UNL     1     -12.184  11.114  70.505  1.00  0.00    -0.475 A  
HETATM   11  C   UNL     1     -11.061   8.932  70.808  1.00  0.00    -0.312 A  
HETATM   12  C   UNL     1     -12.951  12.266  71.082  1.00  0.00    -0.229 C  
HETATM   13  C   UNL     1     -11.818  10.007  71.306  1.00  0.00    -0.471 A  
BRANCH   8  14
HETATM   14  C   UNL     1      -9.957   9.517  66.457  1.00  0.00    -0.261 C  
BRANCH  14  15
HETATM   15  C   UNL     1      -9.720   8.077  66.878  1.00  0.00    -0.291 A  
HETATM   16  C   UNL     1      -8.523   7.618  67.427  1.00  0.00    -0.122 A  
HETATM   17  C   UNL     1     -10.698   5.882  67.429  1.00  0.00    -0.370 A  
HETATM   18  C   UNL     1     -10.797   7.171  66.862  1.00  0.00    -0.307 A  
HETATM   19  C   UNL     1      -8.422   6.313  67.952  1.00  0.00    -0.117 A  
HETATM   20  C   UNL     1      -9.508   5.411  68.003  1.00  0.00    -0.138 A  
BRANCH  20  21
HETATM   21  C   UNL     1      -9.372   4.083  68.694  1.00  0.00    -0.224 A  
HETATM   22  C   UNL     1      -9.648   2.808  70.801  1.00  0.00    -0.187 A  
HETATM   23  C   UNL     1      -9.772   3.987  70.046  1.00  0.00    -0.264 A  
HETATM   24  C   UNL     1      -8.766   1.695  68.896  1.00  0.00    -0.105 A  
HETATM   25  C   UNL     1      -8.889   2.882  68.122  1.00  0.00    -0.166 A  
HETATM   26  C   UNL     1      -9.124   1.669  70.237  1.00  0.00    -0.147 A  
HETATM   27  C   UNL     1      -8.427   2.755  66.720  1.00  0.00    -0.101 C  
HETATM   28  O   UNL     1      -8.911   1.597  66.216  1.00  0.00    -0.117 OA 
HETATM   29  O   UNL     1      -7.669   3.492  66.122  1.00  0.00    -0.080 OA 
ENDBRANCH  20  21
ENDBRANCH  14  15
ENDBRANCH   8  14
BRANCH  11  30
HETATM   30  C   UNL     1     -10.741   7.792  71.685  1.00  0.00    -0.220 A  
HETATM   31  C   UNL     1     -11.383   4.781  73.426  1.00  0.00    -0.397 A  
HETATM   32  C   UNL     1     -10.486   4.032  74.199  1.00  0.00    -0.277 A  
HETATM   33  N   UNL     1     -11.603   6.841  72.008  1.00  0.00    -0.278 NA 
HETATM   34  C   UNL     1      -8.272   8.247  72.068  1.00  0.00    -0.160 C  
HETATM   35  C   UNL     1     -10.930   5.958  72.812  1.00  0.00    -0.265 A  
HETATM   36  C   UNL     1      -9.166   4.450  74.361  1.00  0.00    -0.116 A  
HETATM   37  N   UNL     1      -9.504   7.516  72.254  1.00  0.00    -0.149 NA 
HETATM   38  C   UNL     1      -9.610   6.354  72.988  1.00  0.00    -0.152 A  
HETATM   39  C   UNL     1      -8.698   5.622  73.759  1.00  0.00    -0.121 A  
ENDBRANCH  11  30
ENDBRANCH   3   4
ENDBRANCH   2   3
TORSDOF 6
ENDMDL
MODEL       25
REMARK 921   NORMALIZED FREE ENERGY PREDICTED BY IDOCK:   -6.73 KCAL/MOL
REMARK 922        TOTAL FREE ENERGY PREDICTED BY IDOCK:  -11.09 KCAL/MOL
REMARK 923 INTER-LIGAND FREE ENERGY PREDICTED BY IDOCK:  -11.74 KCAL/MOL
REMARK 924 INTRA-LIGAND FREE ENERGY PREDICTED BY IDOCK:    0.65 KCAL/MOL
REMARK 927      BINDING AFFINITY PREDICTED BY RF-SCORE:    0.00 PKD
ROOT
HETATM    1  C   UNL     1     -10.423   4.841  66.003  1.00  0.00    -0.332 C  
HETATM    2  C   UNL     1      -9.305   4.283  66.874  1.00  0.00    -0.181 C  
ENDROOT
BRANCH   2   3
HETATM    3  C   UNL     1      -8.379   5.361  67.454  1.00  0.00    -0.103 C  
BRANCH   3   4
HETATM    4  C   UNL     1      -9.119   6.348  68.299  1.00  0.00    -0.114 A  
HETATM    5  N   UNL     1      -9.818   6.006  69.366  1.00  0.00    -0.157 NA 
HETATM    6  C   UNL     1     -10.436   7.145  69.807  1.00  0.00    -0.225 A  
HETATM    7  C   UNL     1     -10.075   8.222  69.012  1.00  0.00    -0.202 A  
HETATM    8  N   UNL     1      -9.186   7.712  68.088  1.00  0.00    -0.138 NA 
HETATM    9  C   UNL     1     -10.604   9.500  69.198  1.00  0.00    -0.237 A  
HETATM   10  C   UNL     1     -11.351   7.320  70.863  1.00  0.00    -0.308 A  
HETATM   11  C   UNL     1     -11.450   9.723  70.291  1.00  0.00    -0.317 A  
HETATM   12  C   UNL     1     -11.818   6.169  71.705  1.00  0.00    -0.241 C  
HETATM   13  C   UNL     1     -11.833   8.630  71.089  1.00  0.00    -0.331 A  
BRANCH   8  14
HETATM   14  C   UNL     1      -8.608   8.490  66.991  1.00  0.00    -0.121 C  
BRANCH  14  15
HETATM   15  C   UNL     1      -9.081   9.928  66.856  1.00  0.00    -0.162 A  
HETATM   16  C   UNL     1      -8.571  10.984  67.610  1.00  0.00    -0.125 A  
HETATM   17  C   UNL     1     -10.292  11.603  65.513  1.00  0.00    -0.309 A  
HETATM   18  C   UNL     1      -9.973  10.263  65.821  1.00  0.00    -0.337 A  
HETATM   19  C   UNL     1      -8.930  12.317  67.322  1.00  0.00    -0.187 A  
HETATM   20  C   UNL     1      -9.773  12.678  66.248  1.00  0.00    -0.260 A  
BRANCH  20  21
HETATM   21  C   UNL     1     -10.012  14.124  65.912  1.00  0.00    -0.331 A  
HETATM   22  C   UNL     1      -9.217  16.461  66.139  1.00  0.00    -0.365 A  
HETATM   23  C   UNL     1      -9.071  15.080  66.357  1.00  0.00    -0.312 A  
HETATM   24  C   UNL     1     -11.234  16.047  64.954  1.00  0.00    -0.319 A  
HETATM   25  C   UNL     1     -11.095  14.648  65.168  1.00  0.00    -0.382 A  
HETATM   26  C   UNL     1     -10.308  16.948  65.458  1.00  0.00    -0.196 A  
HETATM   27  C   UNL     1     -12.188  13.825  64.598  1.00  0.00    -0.406 C  
HETATM   28  O   UNL     1     -12.448  14.269  63.347  1.00  0.00    -0.761 OA 
HETATM   29  O   UNL     1     -12.829  12.957  65.158  1.00  0.00    -0.702 OA 
ENDBRANCH  20  21
ENDBRANCH  14  15
ENDBRANCH   8  14
BRANCH  11  30
HETATM   30  C   UNL     1     -11.962  11.070  70.599  1.00  0.00    -0.365 A  
HETATM   31  C   UNL     1     -12.227  14.579  70.247  1.00  0.00    -0.391 A  
HETATM   32  C   UNL     1     -13.086  15.446  70.936  1.00  0.00    -0.528 A  
HETATM   33  N   UNL     1     -11.555  12.174  69.993  1.00  0.00    -0.229 NA 
HETATM   34  C   UNL     1     -13.738  10.456  72.308  1.00  0.00     0.100 C  
HETATM   35  C   UNL     1     -12.275  13.207  70.534  1.00  0.00    -0.328 A  
HETATM   36  C   UNL     1     -13.971  14.956  71.895  1.00  0.00    -0.585 A  
HETATM   37  N   UNL     1     -12.961  11.380  71.513  1.00  0.00    -0.440 NA 
HETATM   38  C   UNL     1     -13.165  12.742  71.494  1.00  0.00    -0.239 A  
HETATM   39  C   UNL     1     -14.029  13.591  72.196  1.00  0.00    -0.575 A  
ENDBRANCH  11  30
ENDBRANCH   3   4
ENDBRANCH   2   3
TORSDOF 6
ENDMDL
MODEL       26
REMARK 921   NORMALIZED FREE ENERGY PREDICTED BY IDOCK:   -6.64 KCAL/MOL
REMARK 922        TOTAL FREE ENERGY PREDICTED BY IDOCK:  -10.97 KCAL/MOL
REMARK 923 INTER-LIGAND FREE ENERGY PREDICTED BY IDOCK:   -9.22 KCAL/MOL
REMARK 924 INTRA-LIGAND FREE ENERGY PREDICTED BY IDOCK:   -1.75 KCAL/MOL
REMARK 927      BINDING AFFINITY PREDICTED BY RF-SCORE:    0.00 PKD
ROOT
HETATM    1  C   UNL     1      -5.680  21.287  67.383  1.00  0.00    -0.409 C  
HETATM    2  C   UNL     1      -5.287  20.843  65.980  1.00  0.00    -0.237 C  
ENDROOT
BRANCH   2   3
HETATM    3  C   UNL     1      -5.378  19.325  65.766  1.00  0.00    -0.177 C  
BRANCH   3   4
HETATM    4  C   UNL     1      -6.642  18.751  66.319  1.00  0.00    -0.211 A  
HETATM    5  N   UNL     1      -7.837  19.020  65.824  1.00  0.00    -0.456 NA 
HETATM    6  C   UNL     1      -8.745  18.412  66.649  1.00  0.00    -0.286 A  
HETATM    7  C   UNL     1      -8.088  17.718  67.653  1.00  0.00    -0.222 A  
HETATM    8  N   UNL     1      -6.743  17.892  67.398  1.00  0.00    -0.174 NA 
HETATM    9  C   UNL     1      -8.771  17.051  68.671  1.00  0.00    -0.261 A  
HETATM   10  C   UNL     1     -10.153  18.445  66.614  1.00  0.00    -0.399 A  
HETATM   11  C   UNL     1     -10.169  16.995  68.617  1.00  0.00    -0.321 A  
HETATM   12  C   UNL     1     -10.901  19.237  65.584  1.00  0.00    -0.269 C  
HETATM   13  C   UNL     1     -10.840  17.712  67.610  1.00  0.00    -0.227 A  
BRANCH   8  14
HETATM   14  C   UNL     1      -5.673  17.394  68.264  1.00  0.00    -0.148 C  
BRANCH  14  15
HETATM   15  C   UNL     1      -5.743  15.927  68.653  1.00  0.00    -0.101 A  
HETATM   16  C   UNL     1      -6.026  15.481  69.943  1.00  0.00    -0.149 A  
HETATM   17  C   UNL     1      -5.930  13.584  67.909  1.00  0.00    -0.143 A  
HETATM   18  C   UNL     1      -5.669  14.946  67.646  1.00  0.00    -0.026 A  
HETATM   19  C   UNL     1      -6.242  14.111  70.204  1.00  0.00    -0.151 A  
HETATM   20  C   UNL     1      -6.235  13.120  69.197  1.00  0.00    -0.100 A  
BRANCH  20  21
HETATM   21  C   UNL     1      -6.603  11.698  69.517  1.00  0.00    -0.111 A  
HETATM   22  C   UNL     1      -5.926   9.583  70.617  1.00  0.00    -0.066 A  
HETATM   23  C   UNL     1      -5.705  10.933  70.295  1.00  0.00    -0.105 A  
HETATM   24  C   UNL     1      -7.998   9.659  69.457  1.00  0.00    -0.125 A  
HETATM   25  C   UNL     1      -7.786  11.026  69.128  1.00  0.00    -0.102 A  
HETATM   26  C   UNL     1      -7.059   8.937  70.180  1.00  0.00    -0.048 A  
HETATM   27  C   UNL     1      -8.864  11.641  68.320  1.00  0.00    -0.167 C  
HETATM   28  O   UNL     1     -10.054  11.277  68.850  1.00  0.00    -0.204 OA 
HETATM   29  O   UNL     1      -8.746  12.286  67.297  1.00  0.00    -0.172 OA 
ENDBRANCH  20  21
ENDBRANCH  14  15
ENDBRANCH   8  14
BRANCH  11  30
HETATM   30  C   UNL     1     -10.941  16.223  69.605  1.00  0.00    -0.346 A  
HETATM   31  C   UNL     1     -12.437  15.586  72.747  1.00  0.00    -0.519 A  
HETATM   32  C   UNL     1     -13.222  14.484  73.114  1.00  0.00    -0.484 A  
HETATM   33  N   UNL     1     -11.161  16.621  70.849  1.00  0.00    -0.060 NA 
HETATM   34  C   UNL     1     -11.682  14.291  68.133  1.00  0.00    -0.350 C  
HETATM   35  C   UNL     1     -11.931  15.653  71.440  1.00  0.00    -0.418 A  
HETATM   36  C   UNL     1     -13.492  13.469  72.198  1.00  0.00    -0.631 A  
HETATM   37  N   UNL     1     -11.587  15.014  69.381  1.00  0.00    -0.296 NA 
HETATM   38  C   UNL     1     -12.214  14.629  70.546  1.00  0.00    -0.324 A  
HETATM   39  C   UNL     1     -12.993  13.518  70.893  1.00  0.00    -0.224 A  
ENDBRANCH  11  30
ENDBRANCH   3   4
ENDBRANCH   2   3
TORSDOF 6
ENDMDL
MODEL       27
REMARK 921   NORMALIZED FREE ENERGY PREDICTED BY IDOCK:   -6.59 KCAL/MOL
REMARK 922        TOTAL FREE ENERGY PREDICTED BY IDOCK:  -10.90 KCAL/MOL
REMARK 923 INTER-LIGAND FREE ENERGY PREDICTED BY IDOCK:   -9.39 KCAL/MOL
REMARK 924 INTRA-LIGAND FREE ENERGY PREDICTED BY IDOCK:   -1.51 KCAL/MOL
REMARK 927      BINDING AFFINITY PREDICTED BY RF-SCORE:    0.00 PKD
ROOT
HETATM    1  C   UNL     1      -9.717  19.356  68.054  1.00  0.00    -0.447 C  
HETATM    2  C   UNL     1      -9.519  17.972  67.452  1.00  0.00    -0.262 C  
ENDROOT
BRANCH   2   3
HETATM    3  C   UNL     1     -10.829  17.291  67.030  1.00  0.00    -0.045 C  
BRANCH   3   4
HETATM    4  C   UNL     1     -11.246  16.222  67.989  1.00  0.00    -0.260 A  
HETATM    5  N   UNL     1     -11.466  16.447  69.271  1.00  0.00    -0.233 NA 
HETATM    6  C   UNL     1     -11.716  15.228  69.842  1.00  0.00    -0.323 A  
HETATM    7  C   UNL     1     -11.687  14.234  68.876  1.00  0.00    -0.328 A  
HETATM    8  N   UNL     1     -11.444  14.888  67.685  1.00  0.00    -0.345 NA 
HETATM    9  C   UNL     1     -11.850  12.883  69.187  1.00  0.00    -0.353 A  
HETATM   10  C   UNL     1     -11.939  14.897  71.193  1.00  0.00    -0.389 A  
HETATM   11  C   UNL     1     -12.157  12.531  70.507  1.00  0.00    -0.361 A  
HETATM   12  C   UNL     1     -11.913  15.933  72.277  1.00  0.00    -0.617 C  
HETATM   13  C   UNL     1     -12.171  13.534  71.493  1.00  0.00    -0.037 A  
BRANCH   8  14
HETATM   14  C   UNL     1     -11.251  14.211  66.402  1.00  0.00    -0.328 C  
BRANCH  14  15
HETATM   15  C   UNL     1     -10.271  13.050  66.390  1.00  0.00    -0.283 A  
HETATM   16  C   UNL     1      -8.999  13.105  66.958  1.00  0.00    -0.228 A  
HETATM   17  C   UNL     1      -9.913  10.632  66.064  1.00  0.00    -0.295 A  
HETATM   18  C   UNL     1     -10.699  11.795  65.917  1.00  0.00    -0.328 A  
HETATM   19  C   UNL     1      -8.203  11.944  67.062  1.00  0.00    -0.170 A  
HETATM   20  C   UNL     1      -8.640  10.665  66.652  1.00  0.00    -0.139 A  
BRANCH  20  21
HETATM   21  C   UNL     1      -7.797   9.447  66.910  1.00  0.00    -0.105 A  
HETATM   22  C   UNL     1      -6.843   7.911  68.604  1.00  0.00    -0.063 A  
HETATM   23  C   UNL     1      -7.642   9.010  68.244  1.00  0.00    -0.091 A  
HETATM   24  C   UNL     1      -6.329   7.551  66.314  1.00  0.00    -0.042 A  
HETATM   25  C   UNL     1      -7.136   8.660  65.938  1.00  0.00    -0.076 A  
HETATM   26  C   UNL     1      -6.167   7.195  67.645  1.00  0.00    -0.046 A  
HETATM   27  C   UNL     1      -7.174   8.931  64.482  1.00  0.00    -0.097 C  
HETATM   28  O   UNL     1      -7.340   7.755  63.834  1.00  0.00    -0.083 OA 
HETATM   29  O   UNL     1      -6.994   9.995  63.923  1.00  0.00    -0.123 OA 
ENDBRANCH  20  21
ENDBRANCH  14  15
ENDBRANCH   8  14
BRANCH  11  30
HETATM   30  C   UNL     1     -12.439  11.134  70.880  1.00  0.00    -0.409 A  
HETATM   31  C   UNL     1     -14.396   8.452  72.100  1.00  0.00    -0.520 A  
HETATM   32  C   UNL     1     -14.040   7.098  72.176  1.00  0.00    -0.182 A  
HETATM   33  N   UNL     1     -13.587  10.721  71.395  1.00  0.00     0.035 NA 
HETATM   34  C   UNL     1     -10.284  10.052  70.084  1.00  0.00    -0.242 C  
HETATM   35  C   UNL     1     -13.469   9.369  71.581  1.00  0.00    -0.394 A  
HETATM   36  C   UNL     1     -12.785   6.668  71.747  1.00  0.00    -0.280 A  
HETATM   37  N   UNL     1     -11.588  10.050  70.706  1.00  0.00    -0.332 NA 
HETATM   38  C   UNL     1     -12.225   8.916  71.160  1.00  0.00    -0.255 A  
HETATM   39  C   UNL     1     -11.849   7.569  71.230  1.00  0.00    -0.319 A  
ENDBRANCH  11  30
ENDBRANCH   3   4
ENDBRANCH   2   3
TORSDOF 6
ENDMDL
MODEL       28
REMARK 921   NORMALIZED FREE ENERGY PREDICTED BY IDOCK:   -6.58 KCAL/MOL
REMARK 922        TOTAL FREE ENERGY PREDICTED BY IDOCK:  -10.89 KCAL/MOL
REMARK 923 INTER-LIGAND FREE ENERGY PREDICTED BY IDOCK:  -10.17 KCAL/MOL
REMARK 924 INTRA-LIGAND FREE ENERGY PREDICTED BY IDOCK:   -0.72 KCAL/MOL
REMARK 927      BINDING AFFINITY PREDICTED BY RF-SCORE:    0.00 PKD
ROOT
HETATM    1  C   UNL     1     -10.439   5.249  73.884  1.00  0.00    -0.317 C  
HETATM    2  C   UNL     1      -9.346   4.620  73.030  1.00  0.00    -0.137 C  
ENDROOT
BRANCH   2   3
HETATM    3  C   UNL     1      -9.844   4.106  71.672  1.00  0.00    -0.254 C  
BRANCH   3   4
HETATM    4  C   UNL     1      -9.568   5.071  70.565  1.00  0.00    -0.185 A  
HETATM    5  N   UNL     1      -8.438   5.084  69.882  1.00  0.00    -0.087 NA 
HETATM    6  C   UNL     1      -8.506   6.162  69.041  1.00  0.00    -0.118 A  
HETATM    7  C   UNL     1      -9.726   6.804  69.184  1.00  0.00    -0.146 A  
HETATM    8  N   UNL     1     -10.421   6.063  70.118  1.00  0.00    -0.224 NA 
HETATM    9  C   UNL     1     -10.044   7.972  68.489  1.00  0.00    -0.218 A  
HETATM   10  C   UNL     1      -7.538   6.670  68.151  1.00  0.00    -0.104 A  
HETATM   11  C   UNL     1      -9.137   8.453  67.537  1.00  0.00    -0.145 A  
HETATM   12  C   UNL     1      -6.182   6.045  68.016  1.00  0.00    -0.029 C  
HETATM   13  C   UNL     1      -7.891   7.816  67.400  1.00  0.00    -0.118 A  
BRANCH   8  14
HETATM   14  C   UNL     1     -11.739   6.429  70.638  1.00  0.00    -0.311 C  
BRANCH  14  15
HETATM   15  C   UNL     1     -11.946   7.892  70.993  1.00  0.00    -0.268 A  
HETATM   16  C   UNL     1     -10.917   8.832  71.027  1.00  0.00    -0.328 A  
HETATM   17  C   UNL     1     -13.530   9.759  71.283  1.00  0.00    -0.362 A  
HETATM   18  C   UNL     1     -13.256   8.380  71.156  1.00  0.00    -0.035 A  
HETATM   19  C   UNL     1     -11.198  10.204  71.199  1.00  0.00    -0.244 A  
HETATM   20  C   UNL     1     -12.509  10.721  71.299  1.00  0.00    -0.504 A  
BRANCH  20  21
HETATM   21  C   UNL     1     -12.748  12.204  71.348  1.00  0.00    -0.368 A  
HETATM   22  C   UNL     1     -13.628  14.117  72.655  1.00  0.00    -0.618 A  
HETATM   23  C   UNL     1     -13.320  12.752  72.518  1.00  0.00    -0.319 A  
HETATM   24  C   UNL     1     -12.760  14.518  70.480  1.00  0.00    -0.404 A  
HETATM   25  C   UNL     1     -12.443  13.140  70.331  1.00  0.00    -0.280 A  
HETATM   26  C   UNL     1     -13.371  14.997  71.630  1.00  0.00    -0.490 A  
HETATM   27  C   UNL     1     -11.831  12.785  69.030  1.00  0.00    -0.297 C  
HETATM   28  O   UNL     1     -10.883  13.705  68.740  1.00  0.00    -0.248 OA 
HETATM   29  O   UNL     1     -12.159  11.888  68.279  1.00  0.00    -0.485 OA 
ENDBRANCH  20  21
ENDBRANCH  14  15
ENDBRANCH   8  14
BRANCH  11  30
HETATM   30  C   UNL     1      -9.456   9.623  66.701  1.00  0.00    -0.170 A  
HETATM   31  C   UNL     1     -10.796  11.319  63.900  1.00  0.00    -0.427 A  
HETATM   32  C   UNL     1     -10.821  12.701  63.668  1.00  0.00    -0.437 A  
HETATM   33  N   UNL     1     -10.081   9.554  65.535  1.00  0.00    -0.159 NA 
HETATM   34  C   UNL     1      -8.634  11.468  68.241  1.00  0.00    -0.161 C  
HETATM   35  C   UNL     1     -10.212  10.841  65.083  1.00  0.00    -0.298 A  
HETATM   36  C   UNL     1     -10.271  13.587  64.593  1.00  0.00    -0.341 A  
HETATM   37  N   UNL     1      -9.206  10.953  67.018  1.00  0.00    -0.152 NA 
HETATM   38  C   UNL     1      -9.671  11.743  65.989  1.00  0.00    -0.232 A  
HETATM   39  C   UNL     1      -9.682  13.127  65.775  1.00  0.00    -0.151 A  
ENDBRANCH  11  30
ENDBRANCH   3   4
ENDBRANCH   2   3
TORSDOF 6
ENDMDL
MODEL       29
REMARK 921   NORMALIZED FREE ENERGY PREDICTED BY IDOCK:   -6.55 KCAL/MOL
REMARK 922        TOTAL FREE ENERGY PREDICTED BY IDOCK:  -10.84 KCAL/MOL
REMARK 923 INTER-LIGAND FREE ENERGY PREDICTED BY IDOCK:   -9.05 KCAL/MOL
REMARK 924 INTRA-LIGAND FREE ENERGY PREDICTED BY IDOCK:   -1.79 KCAL/MOL
REMARK 927      BINDING AFFINITY PREDICTED BY RF-SCORE:    0.00 PKD
ROOT
HETATM    1  C   UNL     1      -7.339   8.423  74.434  1.00  0.00    -0.240 C  
HETATM    2  C   UNL     1      -8.555   7.517  74.287  1.00  0.00    -0.270 C  
ENDROOT
BRANCH   2   3
HETATM    3  C   UNL     1      -8.823   7.075  72.842  1.00  0.00    -0.146 C  
BRANCH   3   4
HETATM    4  C   UNL     1      -9.525   8.130  72.048  1.00  0.00    -0.215 A  
HETATM    5  N   UNL     1     -10.744   8.553  72.326  1.00  0.00    -0.344 NA 
HETATM    6  C   UNL     1     -11.089   9.426  71.330  1.00  0.00    -0.380 A  
HETATM    7  C   UNL     1     -10.037   9.573  70.438  1.00  0.00    -0.271 A  
HETATM    8  N   UNL     1      -9.021   8.785  70.940  1.00  0.00    -0.181 NA 
HETATM    9  C   UNL     1     -10.134  10.361  69.290  1.00  0.00    -0.248 A  
HETATM   10  C   UNL     1     -12.305  10.103  71.109  1.00  0.00    -0.488 A  
HETATM   11  C   UNL     1     -11.298  11.111  69.088  1.00  0.00    -0.340 A  
HETATM   12  C   UNL     1     -13.488   9.920  72.012  1.00  0.00    -0.478 C  
HETATM   13  C   UNL     1     -12.374  10.952  69.980  1.00  0.00    -0.385 A  
BRANCH   8  14
HETATM   14  C   UNL     1      -7.739   8.575  70.267  1.00  0.00    -0.077 C  
BRANCH  14  15
HETATM   15  C   UNL     1      -7.737   7.603  69.099  1.00  0.00    -0.109 A  
HETATM   16  C   UNL     1      -8.021   6.244  69.224  1.00  0.00    -0.109 A  
HETATM   17  C   UNL     1      -7.782   7.287  66.655  1.00  0.00    -0.101 A  
HETATM   18  C   UNL     1      -7.590   8.102  67.791  1.00  0.00    -0.098 A  
HETATM   19  C   UNL     1      -8.169   5.428  68.082  1.00  0.00    -0.099 A  
HETATM   20  C   UNL     1      -8.088   5.922  66.761  1.00  0.00    -0.102 A  
BRANCH  20  21
HETATM   21  C   UNL     1      -8.385   5.029  65.588  1.00  0.00    -0.120 A  
HETATM   22  C   UNL     1     -10.100   3.732  64.356  1.00  0.00    -0.220 A  
HETATM   23  C   UNL     1      -9.717   4.602  65.393  1.00  0.00    -0.174 A  
HETATM   24  C   UNL     1      -7.855   3.687  63.582  1.00  0.00    -0.079 A  
HETATM   25  C   UNL     1      -7.457   4.568  64.625  1.00  0.00    -0.072 A  
HETATM   26  C   UNL     1      -9.168   3.255  63.465  1.00  0.00    -0.096 A  
HETATM   27  C   UNL     1      -6.014   4.903  64.634  1.00  0.00    -0.021 C  
HETATM   28  O   UNL     1      -5.634   5.182  63.366  1.00  0.00    -0.013 OA 
HETATM   29  O   UNL     1      -5.249   4.854  65.577  1.00  0.00    -0.011 OA 
ENDBRANCH  20  21
ENDBRANCH  14  15
ENDBRANCH   8  14
BRANCH  11  30
HETATM   30  C   UNL     1     -11.422  12.037  67.949  1.00  0.00    -0.330 A  
HETATM   31  C   UNL     1     -12.436  13.063  64.719  1.00  0.00    -0.485 A  
HETATM   32  C   UNL     1     -12.249  14.316  64.121  1.00  0.00    -0.410 A  
HETATM   33  N   UNL     1     -12.027  11.736  66.810  1.00  0.00    -0.529 NA 
HETATM   34  C   UNL     1     -10.362  14.102  68.980  1.00  0.00    -0.150 C  
HETATM   35  C   UNL     1     -11.954  12.853  66.020  1.00  0.00    -0.446 A  
HETATM   36  C   UNL     1     -11.590  15.338  64.803  1.00  0.00    -0.322 A  
HETATM   37  N   UNL     1     -10.981  13.354  67.909  1.00  0.00    -0.249 NA 
HETATM   38  C   UNL     1     -11.301  13.886  66.680  1.00  0.00    -0.331 A  
HETATM   39  C   UNL     1     -11.101  15.145  66.099  1.00  0.00    -0.311 A  
ENDBRANCH  11  30
ENDBRANCH   3   4
ENDBRANCH   2   3
TORSDOF 6
ENDMDL
MODEL       30
REMARK 921   NORMALIZED FREE ENERGY PREDICTED BY IDOCK:   -6.50 KCAL/MOL
REMARK 922        TOTAL FREE ENERGY PREDICTED BY IDOCK:  -10.78 KCAL/MOL
REMARK 923 INTER-LIGAND FREE ENERGY PREDICTED BY IDOCK:   -9.64 KCAL/MOL
REMARK 924 INTRA-LIGAND FREE ENERGY PREDICTED BY IDOCK:   -1.14 KCAL/MOL
REMARK 927      BINDING AFFINITY PREDICTED BY RF-SCORE:    0.00 PKD
ROOT
HETATM    1  C   UNL     1     -10.638  19.136  67.463  1.00  0.00    -0.567 C  
HETATM    2  C   UNL     1      -9.869  17.828  67.589  1.00  0.00    -0.299 C  
ENDROOT
BRANCH   2   3
HETATM    3  C   UNL     1     -10.465  16.680  66.762  1.00  0.00    -0.261 C  
BRANCH   3   4
HETATM    4  C   UNL     1     -10.900  15.534  67.617  1.00  0.00    -0.306 A  
HETATM    5  N   UNL     1     -11.779  15.654  68.595  1.00  0.00    -0.375 NA 
HETATM    6  C   UNL     1     -11.839  14.434  69.215  1.00  0.00    -0.325 A  
HETATM    7  C   UNL     1     -11.003  13.532  68.574  1.00  0.00    -0.267 A  
HETATM    8  N   UNL     1     -10.454  14.229  67.518  1.00  0.00    -0.252 NA 
HETATM    9  C   UNL     1     -10.823  12.225  69.032  1.00  0.00    -0.197 A  
HETATM   10  C   UNL     1     -12.563  14.042  70.358  1.00  0.00    -0.374 A  
HETATM   11  C   UNL     1     -11.592  11.781  70.114  1.00  0.00    -0.281 A  
HETATM   12  C   UNL     1     -13.426  15.005  71.118  1.00  0.00    -0.503 C  
HETATM   13  C   UNL     1     -12.427  12.698  70.777  1.00  0.00    -0.357 A  
BRANCH   8  14
HETATM   14  C   UNL     1      -9.440  13.682  66.614  1.00  0.00    -0.277 C  
BRANCH  14  15
HETATM   15  C   UNL     1      -9.423  12.172  66.449  1.00  0.00    -0.238 A  
HETATM   16  C   UNL     1     -10.323  11.471  65.647  1.00  0.00    -0.308 A  
HETATM   17  C   UNL     1      -8.175  10.064  66.718  1.00  0.00    -0.121 A  
HETATM   18  C   UNL     1      -8.362  11.433  67.004  1.00  0.00    -0.161 A  
HETATM   19  C   UNL     1     -10.152  10.093  65.402  1.00  0.00    -0.342 A  
HETATM   20  C   UNL     1      -9.059   9.348  65.898  1.00  0.00    -0.242 A  
BRANCH  20  21
HETATM   21  C   UNL     1      -8.861   7.913  65.494  1.00  0.00    -0.070 A  
HETATM   22  C   UNL     1      -7.926   6.345  63.818  1.00  0.00    -0.086 A  
HETATM   23  C   UNL     1      -8.134   7.644  64.313  1.00  0.00    -0.071 A  
HETATM   24  C   UNL     1      -9.108   5.461  65.679  1.00  0.00    -0.148 A  
HETATM   25  C   UNL     1      -9.323   6.771  66.190  1.00  0.00    -0.095 A  
HETATM   26  C   UNL     1      -8.432   5.255  64.485  1.00  0.00    -0.133 A  
HETATM   27  C   UNL     1     -10.095   6.822  67.453  1.00  0.00    -0.175 C  
HETATM   28  O   UNL     1      -9.615   5.870  68.285  1.00  0.00    -0.117 OA 
HETATM   29  O   UNL     1     -11.060   7.517  67.702  1.00  0.00    -0.071 OA 
ENDBRANCH  20  21
ENDBRANCH  14  15
ENDBRANCH   8  14
BRANCH  11  30
HETATM   30  C   UNL     1     -11.520  10.386  70.580  1.00  0.00    -0.349 A  
HETATM   31  C   UNL     1     -12.802   7.311  71.770  1.00  0.00    -0.369 A  
HETATM   32  C   UNL     1     -12.092   6.131  72.031  1.00  0.00    -0.256 A  
HETATM   33  N   UNL     1     -12.571   9.677  70.964  1.00  0.00    -0.304 NA 
HETATM   34  C   UNL     1      -9.044   9.955  70.214  1.00  0.00    -0.054 C  
HETATM   35  C   UNL     1     -12.103   8.433  71.299  1.00  0.00    -0.284 A  
HETATM   36  C   UNL     1     -10.713   6.073  71.832  1.00  0.00    -0.282 A  
HETATM   37  N   UNL     1     -10.378   9.597  70.640  1.00  0.00    -0.296 NA 
HETATM   38  C   UNL     1     -10.730   8.351  71.109  1.00  0.00    -0.230 A  
HETATM   39  C   UNL     1     -10.001   7.183  71.367  1.00  0.00    -0.193 A  
ENDBRANCH  11  30
ENDBRANCH   3   4
ENDBRANCH   2   3
TORSDOF 6
ENDMDL
MODEL       31
REMARK 921   NORMALIZED FREE ENERGY PREDICTED BY IDOCK:   -6.34 KCAL/MOL
REMARK 922        TOTAL FREE ENERGY PREDICTED BY IDOCK:  -10.56 KCAL/MOL
REMARK 923 INTER-LIGAND FREE ENERGY PREDICTED BY IDOCK:   -8.43 KCAL/MOL
REMARK 924 INTRA-LIGAND FREE ENERGY PREDICTED BY IDOCK:   -2.13 KCAL/MOL
REMARK 927      BINDING AFFINITY PREDICTED BY RF-SCORE:    0.00 PKD
ROOT
HETATM    1  C   UNL     1      -9.296  11.257  62.748  1.00  0.00    -0.362 C  
HETATM    2  C   UNL     1      -9.128   9.786  62.390  1.00  0.00    -0.300 C  
ENDROOT
BRANCH   2   3
HETATM    3  C   UNL     1      -7.832   9.164  62.927  1.00  0.00    -0.129 C  
BRANCH   3   4
HETATM    4  C   UNL     1      -8.046   8.432  64.212  1.00  0.00    -0.151 A  
HETATM    5  N   UNL     1      -8.378   7.155  64.270  1.00  0.00     0.057 NA 
HETATM    6  C   UNL     1      -8.594   6.870  65.592  1.00  0.00    -0.110 A  
HETATM    7  C   UNL     1      -8.348   7.992  66.369  1.00  0.00    -0.124 A  
HETATM    8  N   UNL     1      -7.941   8.968  65.482  1.00  0.00    -0.102 NA 
HETATM    9  C   UNL     1      -8.547   8.002  67.750  1.00  0.00    -0.128 A  
HETATM   10  C   UNL     1      -9.038   5.675  66.192  1.00  0.00    -0.158 A  
HETATM   11  C   UNL     1      -8.907   6.808  68.386  1.00  0.00    -0.122 A  
HETATM   12  C   UNL     1      -9.378   4.460  65.381  1.00  0.00    -0.164 C  
HETATM   13  C   UNL     1      -9.173   5.672  67.600  1.00  0.00    -0.106 A  
BRANCH   8  14
HETATM   14  C   UNL     1      -7.655  10.352  65.863  1.00  0.00    -0.146 C  
BRANCH  14  15
HETATM   15  C   UNL     1      -8.688  11.043  66.735  1.00  0.00    -0.152 A  
HETATM   16  C   UNL     1     -10.064  10.876  66.585  1.00  0.00    -0.264 A  
HETATM   17  C   UNL     1      -9.165  12.273  68.818  1.00  0.00     0.106 A  
HETATM   18  C   UNL     1      -8.258  11.779  67.856  1.00  0.00    -0.147 A  
HETATM   19  C   UNL     1     -10.965  11.411  67.530  1.00  0.00    -0.312 A  
HETATM   20  C   UNL     1     -10.551  12.097  68.693  1.00  0.00    -0.248 A  
BRANCH  20  21
HETATM   21  C   UNL     1     -11.553  12.527  69.729  1.00  0.00    -0.291 A  
HETATM   22  C   UNL     1     -12.891  14.391  70.665  1.00  0.00    -0.390 A  
HETATM   23  C   UNL     1     -11.992  13.870  69.718  1.00  0.00    -0.398 A  
HETATM   24  C   UNL     1     -13.040  12.251  71.683  1.00  0.00    -0.408 A  
HETATM   25  C   UNL     1     -12.132  11.713  70.730  1.00  0.00    -0.383 A  
HETATM   26  C   UNL     1     -13.398  13.591  71.661  1.00  0.00    -0.420 A  
HETATM   27  C   UNL     1     -11.823  10.275  70.915  1.00  0.00    -0.377 C  
HETATM   28  O   UNL     1     -12.981   9.618  71.154  1.00  0.00    -0.336 OA 
HETATM   29  O   UNL     1     -10.727   9.753  70.948  1.00  0.00    -0.312 OA 
ENDBRANCH  20  21
ENDBRANCH  14  15
ENDBRANCH   8  14
BRANCH  11  30
HETATM   30  C   UNL     1      -9.034   6.731  69.851  1.00  0.00    -0.144 A  
HETATM   31  C   UNL     1      -7.900   6.852  73.200  1.00  0.00    -0.101 A  
HETATM   32  C   UNL     1      -8.662   6.710  74.367  1.00  0.00    -0.178 A  
HETATM   33  N   UNL     1      -8.024   6.888  70.693  1.00  0.00    -0.108 NA 
HETATM   34  C   UNL     1     -11.549   6.424  70.031  1.00  0.00    -0.377 C  
HETATM   35  C   UNL     1      -8.543   6.770  71.955  1.00  0.00    -0.122 A  
HETATM   36  C   UNL     1     -10.036   6.486  74.296  1.00  0.00    -0.379 A  
HETATM   37  N   UNL     1     -10.211   6.537  70.565  1.00  0.00    -0.188 NA 
HETATM   38  C   UNL     1      -9.913   6.547  71.910  1.00  0.00    -0.177 A  
HETATM   39  C   UNL     1     -10.693   6.399  73.064  1.00  0.00    -0.286 A  
ENDBRANCH  11  30
ENDBRANCH   3   4
ENDBRANCH   2   3
TORSDOF 6
ENDMDL
MODEL       32
REMARK 921   NORMALIZED FREE ENERGY PREDICTED BY IDOCK:   -6.23 KCAL/MOL
REMARK 922        TOTAL FREE ENERGY PREDICTED BY IDOCK:  -10.42 KCAL/MOL
REMARK 923 INTER-LIGAND FREE ENERGY PREDICTED BY IDOCK:  -10.63 KCAL/MOL
REMARK 924 INTRA-LIGAND FREE ENERGY PREDICTED BY IDOCK:    0.21 KCAL/MOL
REMARK 927      BINDING AFFINITY PREDICTED BY RF-SCORE:    0.00 PKD
ROOT
HETATM    1  C   UNL     1      -6.812   4.132  71.000  1.00  0.00    -0.032 C  
HETATM    2  C   UNL     1      -8.242   3.863  70.549  1.00  0.00    -0.071 C  
ENDROOT
BRANCH   2   3
HETATM    3  C   UNL     1      -8.728   4.808  69.442  1.00  0.00    -0.107 C  
BRANCH   3   4
HETATM    4  C   UNL     1      -9.568   5.922  69.976  1.00  0.00    -0.163 A  
HETATM    5  N   UNL     1     -10.623   5.727  70.747  1.00  0.00    -0.256 NA 
HETATM    6  C   UNL     1     -11.194   6.956  70.941  1.00  0.00    -0.289 A  
HETATM    7  C   UNL     1     -10.448   7.936  70.304  1.00  0.00    -0.225 A  
HETATM    8  N   UNL     1      -9.378   7.271  69.740  1.00  0.00    -0.151 NA 
HETATM    9  C   UNL     1     -10.834   9.277  70.287  1.00  0.00    -0.286 A  
HETATM   10  C   UNL     1     -12.378   7.298  71.624  1.00  0.00    -0.387 A  
HETATM   11  C   UNL     1     -11.959   9.660  71.027  1.00  0.00    -0.427 A  
HETATM   12  C   UNL     1     -13.248   6.261  72.270  1.00  0.00     0.345 C  
HETATM   13  C   UNL     1     -12.729   8.668  71.660  1.00  0.00    -0.379 A  
BRANCH   8  14
HETATM   14  C   UNL     1      -8.369   7.911  68.895  1.00  0.00    -0.127 C  
BRANCH  14  15
HETATM   15  C   UNL     1      -8.884   8.855  67.821  1.00  0.00    -0.136 A  
HETATM   16  C   UNL     1     -10.060   8.643  67.104  1.00  0.00    -0.329 A  
HETATM   17  C   UNL     1      -8.778  11.094  66.794  1.00  0.00    -0.157 A  
HETATM   18  C   UNL     1      -8.237  10.089  67.625  1.00  0.00    -0.114 A  
HETATM   19  C   UNL     1     -10.571   9.637  66.242  1.00  0.00    -0.051 A  
HETATM   20  C   UNL     1      -9.971  10.905  66.081  1.00  0.00    -0.282 A  
BRANCH  20  21
HETATM   21  C   UNL     1     -10.634  11.968  65.250  1.00  0.00    -0.328 A  
HETATM   22  C   UNL     1     -12.020  12.474  63.259  1.00  0.00    -0.516 A  
HETATM   23  C   UNL     1     -11.395  11.565  64.129  1.00  0.00    -0.349 A  
HETATM   24  C   UNL     1     -11.228  14.275  64.591  1.00  0.00    -0.370 A  
HETATM   25  C   UNL     1     -10.593  13.364  65.479  1.00  0.00    -0.294 A  
HETATM   26  C   UNL     1     -11.919  13.829  63.473  1.00  0.00    -0.197 A  
HETATM   27  C   UNL     1      -9.864  14.002  66.600  1.00  0.00    -0.284 C  
HETATM   28  O   UNL     1     -10.647  14.976  67.118  1.00  0.00    -0.283 OA 
HETATM   29  O   UNL     1      -8.725  13.783  66.961  1.00  0.00    -0.224 OA 
ENDBRANCH  20  21
ENDBRANCH  14  15
ENDBRANCH   8  14
BRANCH  11  30
HETATM   30  C   UNL     1     -12.360  11.074  71.130  1.00  0.00    -0.359 A  
HETATM   31  C   UNL     1     -13.985  13.872  72.559  1.00  0.00    -0.565 A  
HETATM   32  C   UNL     1     -13.935  15.204  72.127  1.00  0.00    -0.635 A  
HETATM   33  N   UNL     1     -13.147  11.555  72.080  1.00  0.00    -0.444 NA 
HETATM   34  C   UNL     1     -11.004  12.028  69.205  1.00  0.00    -0.131 C  
HETATM   35  C   UNL     1     -13.264  12.901  71.849  1.00  0.00    -0.423 A  
HETATM   36  C   UNL     1     -13.184  15.560  71.008  1.00  0.00    -0.539 A  
HETATM   37  N   UNL     1     -11.945  12.108  70.299  1.00  0.00    -0.344 NA 
HETATM   38  C   UNL     1     -12.523  13.280  70.737  1.00  0.00    -0.324 A  
HETATM   39  C   UNL     1     -12.461  14.605  70.287  1.00  0.00    -0.401 A  
ENDBRANCH  11  30
ENDBRANCH   3   4
ENDBRANCH   2   3
TORSDOF 6
ENDMDL
MODEL       33
REMARK 921   NORMALIZED FREE ENERGY PREDICTED BY IDOCK:   -6.23 KCAL/MOL
REMARK 922        TOTAL FREE ENERGY PREDICTED BY IDOCK:  -10.41 KCAL/MOL
REMARK 923 INTER-LIGAND FREE ENERGY PREDICTED BY IDOCK:   -9.21 KCAL/MOL
REMARK 924 INTRA-LIGAND FREE ENERGY PREDICTED BY IDOCK:   -1.20 KCAL/MOL
REMARK 927      BINDING AFFINITY PREDICTED BY RF-SCORE:    0.00 PKD
ROOT
HETATM    1  C   UNL     1      -8.765   7.584  73.953  1.00  0.00    -0.280 C  
HETATM    2  C   UNL     1      -9.315   6.166  73.873  1.00  0.00    -0.141 C  
ENDROOT
BRANCH   2   3
HETATM    3  C   UNL     1     -10.479   6.011  72.884  1.00  0.00    -0.243 C  
BRANCH   3   4
HETATM    4  C   UNL     1     -10.772   7.280  72.151  1.00  0.00    -0.219 A  
HETATM    5  N   UNL     1     -11.652   8.171  72.570  1.00  0.00    -0.399 NA 
HETATM    6  C   UNL     1     -11.728   9.130  71.596  1.00  0.00    -0.378 A  
HETATM    7  C   UNL     1     -10.841   8.840  70.570  1.00  0.00    -0.233 A  
HETATM    8  N   UNL     1     -10.192   7.687  70.963  1.00  0.00    -0.194 NA 
HETATM    9  C   UNL     1     -10.750   9.621  69.416  1.00  0.00    -0.248 A  
HETATM   10  C   UNL     1     -12.565  10.260  71.510  1.00  0.00    -0.544 A  
HETATM   11  C   UNL     1     -11.508  10.795  69.340  1.00  0.00    -0.366 A  
HETATM   12  C   UNL     1     -13.583  10.572  72.566  1.00  0.00     0.345 C  
HETATM   13  C   UNL     1     -12.421  11.084  70.370  1.00  0.00    -0.397 A  
BRANCH   8  14
HETATM   14  C   UNL     1      -9.219   6.972  70.136  1.00  0.00    -0.152 C  
BRANCH  14  15
HETATM   15  C   UNL     1      -9.056   7.459  68.707  1.00  0.00    -0.131 A  
HETATM   16  C   UNL     1      -9.953   7.162  67.681  1.00  0.00    -0.201 A  
HETATM   17  C   UNL     1      -7.955   9.027  67.155  1.00  0.00    -0.102 A  
HETATM   18  C   UNL     1      -8.036   8.382  68.408  1.00  0.00    -0.123 A  
HETATM   19  C   UNL     1      -9.838   7.780  66.418  1.00  0.00    -0.198 A  
HETATM   20  C   UNL     1      -8.860   8.755  66.119  1.00  0.00    -0.201 A  
BRANCH  20  21
HETATM   21  C   UNL     1      -8.871   9.473  64.798  1.00  0.00    -0.244 A  
HETATM   22  C   UNL     1      -9.877  11.280  63.432  1.00  0.00    -0.416 A  
HETATM   23  C   UNL     1      -9.752  10.566  64.637  1.00  0.00    -0.369 A  
HETATM   24  C   UNL     1      -8.203   9.905  62.458  1.00  0.00    -0.147 A  
HETATM   25  C   UNL     1      -8.067   9.177  63.672  1.00  0.00    -0.160 A  
HETATM   26  C   UNL     1      -9.121  10.937  62.336  1.00  0.00    -0.336 A  
HETATM   27  C   UNL     1      -7.071   8.081  63.626  1.00  0.00    -0.078 C  
HETATM   28  O   UNL     1      -5.955   8.544  63.018  1.00  0.00    -0.080 OA 
HETATM   29  O   UNL     1      -7.224   6.928  63.977  1.00  0.00    -0.058 OA 
ENDBRANCH  20  21
ENDBRANCH  14  15
ENDBRANCH   8  14
BRANCH  11  30
HETATM   30  C   UNL     1     -11.382  11.712  68.194  1.00  0.00    -0.292 A  
HETATM   31  C   UNL     1     -12.492  13.476  65.335  1.00  0.00    -0.540 A  
HETATM   32  C   UNL     1     -11.771  14.399  64.566  1.00  0.00    -0.430 A  
HETATM   33  N   UNL     1     -12.361  11.970  67.340  1.00  0.00    -0.065 NA 
HETATM   34  C   UNL     1      -9.022  12.559  68.600  1.00  0.00     0.046 C  
HETATM   35  C   UNL     1     -11.867  12.879  66.441  1.00  0.00    -0.415 A  
HETATM   36  C   UNL     1     -10.452  14.716  64.889  1.00  0.00    -0.415 A  
HETATM   37  N   UNL     1     -10.265  12.470  67.867  1.00  0.00    -0.213 NA 
HETATM   38  C   UNL     1     -10.552  13.211  66.742  1.00  0.00    -0.263 A  
HETATM   39  C   UNL     1      -9.813  14.128  65.984  1.00  0.00    -0.329 A  
ENDBRANCH  11  30
ENDBRANCH   3   4
ENDBRANCH   2   3
TORSDOF 6
ENDMDL
MODEL       34
REMARK 921   NORMALIZED FREE ENERGY PREDICTED BY IDOCK:   -6.17 KCAL/MOL
REMARK 922        TOTAL FREE ENERGY PREDICTED BY IDOCK:  -10.34 KCAL/MOL
REMARK 923 INTER-LIGAND FREE ENERGY PREDICTED BY IDOCK:   -8.64 KCAL/MOL
REMARK 924 INTRA-LIGAND FREE ENERGY PREDICTED BY IDOCK:   -1.70 KCAL/MOL
REMARK 927      BINDING AFFINITY PREDICTED BY RF-SCORE:    0.00 PKD
ROOT
HETATM    1  C   UNL     1      -9.993  15.499  69.028  1.00  0.00    -0.233 C  
HETATM    2  C   UNL     1     -11.144  15.353  68.040  1.00  0.00    -0.312 C  
ENDROOT
BRANCH   2   3
HETATM    3  C   UNL     1     -11.226  13.965  67.391  1.00  0.00    -0.330 C  
BRANCH   3   4
HETATM    4  C   UNL     1     -11.358  12.873  68.403  1.00  0.00    -0.294 A  
HETATM    5  N   UNL     1     -12.269  12.879  69.359  1.00  0.00    -0.169 NA 
HETATM    6  C   UNL     1     -12.012  11.790  70.147  1.00  0.00    -0.339 A  
HETATM    7  C   UNL     1     -10.939  11.074  69.637  1.00  0.00    -0.225 A  
HETATM    8  N   UNL     1     -10.567  11.742  68.489  1.00  0.00    -0.210 NA 
HETATM    9  C   UNL     1     -10.422   9.945  70.276  1.00  0.00    -0.348 A  
HETATM   10  C   UNL     1     -12.638  11.375  71.339  1.00  0.00    -0.439 A  
HETATM   11  C   UNL     1     -11.076   9.460  71.415  1.00  0.00    -0.450 A  
HETATM   12  C   UNL     1     -13.758  12.157  71.958  1.00  0.00    -0.102 C  
HETATM   13  C   UNL     1     -12.153  10.192  71.945  1.00  0.00    -0.101 A  
BRANCH   8  14
HETATM   14  C   UNL     1      -9.412  11.378  67.667  1.00  0.00    -0.162 C  
BRANCH  14  15
HETATM   15  C   UNL     1      -9.223   9.897  67.382  1.00  0.00    -0.151 A  
HETATM   16  C   UNL     1      -8.077   9.183  67.731  1.00  0.00    -0.105 A  
HETATM   17  C   UNL     1     -10.262   7.745  66.780  1.00  0.00    -0.346 A  
HETATM   18  C   UNL     1     -10.304   9.152  66.875  1.00  0.00    -0.321 A  
HETATM   19  C   UNL     1      -8.030   7.780  67.592  1.00  0.00    -0.124 A  
HETATM   20  C   UNL     1      -9.125   7.008  67.145  1.00  0.00    -0.137 A  
BRANCH  20  21
HETATM   21  C   UNL     1      -9.057   5.506  67.144  1.00  0.00    -0.111 A  
HETATM   22  C   UNL     1      -8.367   3.467  65.916  1.00  0.00    -0.103 A  
HETATM   23  C   UNL     1      -8.447   4.865  66.043  1.00  0.00    -0.117 A  
HETATM   24  C   UNL     1      -9.450   3.228  68.017  1.00  0.00    -0.217 A  
HETATM   25  C   UNL     1      -9.535   4.640  68.156  1.00  0.00    -0.195 A  
HETATM   26  C   UNL     1      -8.888   2.647  66.889  1.00  0.00    -0.148 A  
HETATM   27  C   UNL     1     -10.197   5.100  69.399  1.00  0.00    -0.223 C  
HETATM   28  O   UNL     1      -9.715   4.373  70.433  1.00  0.00    -0.182 OA 
HETATM   29  O   UNL     1     -11.090   5.917  69.502  1.00  0.00    -0.381 OA 
ENDBRANCH  20  21
ENDBRANCH  14  15
ENDBRANCH   8  14
BRANCH  11  30
HETATM   30  C   UNL     1     -10.639   8.218  72.075  1.00  0.00    -0.296 A  
HETATM   31  C   UNL     1     -11.052   5.027  73.545  1.00  0.00    -0.386 A  
HETATM   32  C   UNL     1     -10.053   4.176  74.038  1.00  0.00    -0.206 A  
HETATM   33  N   UNL     1     -11.459   7.247  72.446  1.00  0.00    -0.285 NA 
HETATM   34  C   UNL     1      -8.126   8.586  72.025  1.00  0.00    -0.117 C  
HETATM   35  C   UNL     1     -10.679   6.264  72.996  1.00  0.00    -0.253 A  
HETATM   36  C   UNL     1      -8.712   4.552  73.990  1.00  0.00    -0.104 A  
HETATM   37  N   UNL     1      -9.328   7.856  72.359  1.00  0.00    -0.168 NA 
HETATM   38  C   UNL     1      -9.336   6.616  72.959  1.00  0.00    -0.135 A  
HETATM   39  C   UNL     1      -8.323   5.782  73.449  1.00  0.00    -0.115 A  
ENDBRANCH  11  30
ENDBRANCH   3   4
ENDBRANCH   2   3
TORSDOF 6
ENDMDL
MODEL       35
REMARK 921   NORMALIZED FREE ENERGY PREDICTED BY IDOCK:   -6.12 KCAL/MOL
REMARK 922        TOTAL FREE ENERGY PREDICTED BY IDOCK:  -10.27 KCAL/MOL
REMARK 923 INTER-LIGAND FREE ENERGY PREDICTED BY IDOCK:   -9.01 KCAL/MOL
REMARK 924 INTRA-LIGAND FREE ENERGY PREDICTED BY IDOCK:   -1.27 KCAL/MOL
REMARK 927      BINDING AFFINITY PREDICTED BY RF-SCORE:    0.00 PKD
ROOT
HETATM    1  C   UNL     1      -8.222   5.518  62.630  1.00  0.00    -0.106 C  
HETATM    2  C   UNL     1      -6.768   5.918  62.416  1.00  0.00    -0.036 C  
ENDROOT
BRANCH   2   3
HETATM    3  C   UNL     1      -6.376   7.221  63.125  1.00  0.00    -0.053 C  
BRANCH   3   4
HETATM    4  C   UNL     1      -6.974   7.325  64.491  1.00  0.00    -0.052 A  
HETATM    5  N   UNL     1      -6.572   6.593  65.514  1.00  0.00    -0.049 NA 
HETATM    6  C   UNL     1      -7.415   6.881  66.553  1.00  0.00    -0.074 A  
HETATM    7  C   UNL     1      -8.335   7.845  66.168  1.00  0.00    -0.127 A  
HETATM    8  N   UNL     1      -8.006   8.165  64.867  1.00  0.00    -0.138 NA 
HETATM    9  C   UNL     1      -9.354   8.286  67.014  1.00  0.00    -0.203 A  
HETATM   10  C   UNL     1      -7.472   6.324  67.846  1.00  0.00    -0.093 A  
HETATM   11  C   UNL     1      -9.385   7.813  68.331  1.00  0.00    -0.143 A  
HETATM   12  C   UNL     1      -6.538   5.233  68.279  1.00  0.00    -0.049 C  
HETATM   13  C   UNL     1      -8.465   6.823  68.721  1.00  0.00    -0.124 A  
BRANCH   8  14
HETATM   14  C   UNL     1      -8.773   9.090  64.032  1.00  0.00    -0.086 C  
BRANCH  14  15
HETATM   15  C   UNL     1      -9.267  10.359  64.704  1.00  0.00    -0.282 A  
HETATM   16  C   UNL     1     -10.591  10.796  64.655  1.00  0.00    -0.269 A  
HETATM   17  C   UNL     1      -8.847  12.136  66.361  1.00  0.00    -0.100 A  
HETATM   18  C   UNL     1      -8.397  11.071  65.550  1.00  0.00    -0.024 A  
HETATM   19  C   UNL     1     -11.021  11.889  65.436  1.00  0.00    -0.352 A  
HETATM   20  C   UNL     1     -10.179  12.575  66.339  1.00  0.00    -0.260 A  
BRANCH  20  21
HETATM   21  C   UNL     1     -10.730  13.646  67.240  1.00  0.00    -0.283 A  
HETATM   22  C   UNL     1     -11.641  14.202  69.477  1.00  0.00    -0.349 A  
HETATM   23  C   UNL     1     -11.077  13.293  68.563  1.00  0.00    -0.294 A  
HETATM   24  C   UNL     1     -11.503  15.915  67.838  1.00  0.00    -0.187 A  
HETATM   25  C   UNL     1     -10.931  15.006  66.906  1.00  0.00    -0.324 A  
HETATM   26  C   UNL     1     -11.876  15.505  69.110  1.00  0.00    -0.373 A  
HETATM   27  C   UNL     1     -10.625  15.591  65.580  1.00  0.00    -0.373 C  
HETATM   28  O   UNL     1     -10.027  16.789  65.771  1.00  0.00    -0.492 OA 
HETATM   29  O   UNL     1     -10.928  15.149  64.489  1.00  0.00    -0.326 OA 
ENDBRANCH  20  21
ENDBRANCH  14  15
ENDBRANCH   8  14
BRANCH  11  30
HETATM   30  C   UNL     1     -10.375   8.315  69.300  1.00  0.00    -0.218 A  
HETATM   31  C   UNL     1     -12.292  10.770  70.976  1.00  0.00    -0.509 A  
HETATM   32  C   UNL     1     -13.276  10.567  71.953  1.00  0.00    -0.526 A  
HETATM   33  N   UNL     1     -10.666   9.595  69.466  1.00  0.00    -0.224 NA 
HETATM   34  C   UNL     1     -11.241   6.099  70.190  1.00  0.00    -0.382 C  
HETATM   35  C   UNL     1     -11.639   9.654  70.429  1.00  0.00    -0.236 A  
HETATM   36  C   UNL     1     -13.599   9.280  72.380  1.00  0.00    -0.527 A  
HETATM   37  N   UNL     1     -11.174   7.542  70.133  1.00  0.00    -0.236 NA 
HETATM   38  C   UNL     1     -11.979   8.382  70.871  1.00  0.00    -0.177 A  
HETATM   39  C   UNL     1     -12.957   8.158  71.848  1.00  0.00    -0.356 A  
ENDBRANCH  11  30
ENDBRANCH   3   4
ENDBRANCH   2   3
TORSDOF 6
ENDMDL
MODEL       36
REMARK 921   NORMALIZED FREE ENERGY PREDICTED BY IDOCK:   -6.12 KCAL/MOL
REMARK 922        TOTAL FREE ENERGY PREDICTED BY IDOCK:  -10.27 KCAL/MOL
REMARK 923 INTER-LIGAND FREE ENERGY PREDICTED BY IDOCK:   -9.72 KCAL/MOL
REMARK 924 INTRA-LIGAND FREE ENERGY PREDICTED BY IDOCK:   -0.55 KCAL/MOL
REMARK 927      BINDING AFFINITY PREDICTED BY RF-SCORE:    0.00 PKD
ROOT
HETATM    1  C   UNL     1     -13.573   7.343  71.312  1.00  0.00    -0.341 C  
HETATM    2  C   UNL     1     -14.096   8.768  71.178  1.00  0.00    -0.114 C  
ENDROOT
BRANCH   2   3
HETATM    3  C   UNL     1     -13.635   9.702  72.306  1.00  0.00    -0.449 C  
BRANCH   3   4
HETATM    4  C   UNL     1     -13.157  11.020  71.790  1.00  0.00    -0.449 A  
HETATM    5  N   UNL     1     -13.639  12.177  72.204  1.00  0.00    -0.349 NA 
HETATM    6  C   UNL     1     -13.046  13.143  71.436  1.00  0.00    -0.266 A  
HETATM    7  C   UNL     1     -12.147  12.564  70.553  1.00  0.00    -0.274 A  
HETATM    8  N   UNL     1     -12.182  11.213  70.828  1.00  0.00    -0.372 NA 
HETATM    9  C   UNL     1     -11.442  13.311  69.607  1.00  0.00    -0.267 A  
HETATM   10  C   UNL     1     -13.261  14.535  71.418  1.00  0.00    -0.424 A  
HETATM   11  C   UNL     1     -11.571  14.705  69.621  1.00  0.00    -0.349 A  
HETATM   12  C   UNL     1     -14.272  15.192  72.310  1.00  0.00    -0.613 C  
HETATM   13  C   UNL     1     -12.495  15.294  70.502  1.00  0.00    -0.454 A  
BRANCH   8  14
HETATM   14  C   UNL     1     -11.442  10.202  70.071  1.00  0.00    -0.277 C  
BRANCH  14  15
HETATM   15  C   UNL     1     -10.326   9.483  70.810  1.00  0.00    -0.377 A  
HETATM   16  C   UNL     1     -10.507   8.809  72.017  1.00  0.00    -0.414 A  
HETATM   17  C   UNL     1      -8.057   8.524  70.728  1.00  0.00    -0.128 A  
HETATM   18  C   UNL     1      -9.069   9.349  70.192  1.00  0.00    -0.262 A  
HETATM   19  C   UNL     1      -9.474   8.021  72.567  1.00  0.00    -0.297 A  
HETATM   20  C   UNL     1      -8.228   7.822  71.931  1.00  0.00    -0.128 A  
BRANCH  20  21
HETATM   21  C   UNL     1      -7.218   6.866  72.502  1.00  0.00    -0.081 A  
HETATM   22  C   UNL     1      -5.139   6.597  73.822  1.00  0.00    -0.041 A  
HETATM   23  C   UNL     1      -6.162   7.393  73.278  1.00  0.00    -0.060 A  
HETATM   24  C   UNL     1      -6.175   4.664  72.911  1.00  0.00    -0.025 A  
HETATM   25  C   UNL     1      -7.215   5.459  72.357  1.00  0.00    -0.093 A  
HETATM   26  C   UNL     1      -5.130   5.237  73.621  1.00  0.00    -0.013 A  
HETATM   27  C   UNL     1      -8.234   4.699  71.595  1.00  0.00    -0.104 C  
HETATM   28  O   UNL     1      -8.565   3.598  72.307  1.00  0.00    -0.083 OA 
HETATM   29  O   UNL     1      -8.653   4.938  70.480  1.00  0.00    -0.103 OA 
ENDBRANCH  20  21
ENDBRANCH  14  15
ENDBRANCH   8  14
BRANCH  11  30
HETATM   30  C   UNL     1     -10.779  15.554  68.715  1.00  0.00    -0.249 A  
HETATM   31  C   UNL     1      -9.855  18.559  67.093  1.00  0.00    -0.335 A  
HETATM   32  C   UNL     1      -8.786  18.762  66.210  1.00  0.00    -0.244 A  
HETATM   33  N   UNL     1     -11.009  16.843  68.516  1.00  0.00    -0.331 NA 
HETATM   34  C   UNL     1      -9.021  13.867  67.999  1.00  0.00    -0.184 C  
HETATM   35  C   UNL     1     -10.056  17.280  67.634  1.00  0.00    -0.313 A  
HETATM   36  C   UNL     1      -7.937  17.710  65.869  1.00  0.00    -0.078 A  
HETATM   37  N   UNL     1      -9.664  15.161  67.985  1.00  0.00    -0.208 NA 
HETATM   38  C   UNL     1      -9.197  16.248  67.279  1.00  0.00    -0.208 A  
HETATM   39  C   UNL     1      -8.125  16.428  66.396  1.00  0.00    -0.357 A  
ENDBRANCH  11  30
ENDBRANCH   3   4
ENDBRANCH   2   3
TORSDOF 6
ENDMDL
MODEL       37
REMARK 921   NORMALIZED FREE ENERGY PREDICTED BY IDOCK:   -6.08 KCAL/MOL
REMARK 922        TOTAL FREE ENERGY PREDICTED BY IDOCK:  -10.22 KCAL/MOL
REMARK 923 INTER-LIGAND FREE ENERGY PREDICTED BY IDOCK:   -8.60 KCAL/MOL
REMARK 924 INTRA-LIGAND FREE ENERGY PREDICTED BY IDOCK:   -1.62 KCAL/MOL
REMARK 927      BINDING AFFINITY PREDICTED BY RF-SCORE:    0.00 PKD
ROOT
HETATM    1  C   UNL     1      -5.967   8.326  62.837  1.00  0.00    -0.078 C  
HETATM    2  C   UNL     1      -7.222   7.751  63.480  1.00  0.00    -0.087 C  
ENDROOT
BRANCH   2   3
HETATM    3  C   UNL     1      -7.107   7.567  65.000  1.00  0.00    -0.060 C  
BRANCH   3   4
HETATM    4  C   UNL     1      -7.711   8.706  65.755  1.00  0.00    -0.090 A  
HETATM    5  N   UNL     1      -7.088   9.853  65.955  1.00  0.00    -0.102 NA 
HETATM    6  C   UNL     1      -7.897  10.597  66.770  1.00  0.00    -0.126 A  
HETATM    7  C   UNL     1      -9.065   9.903  67.047  1.00  0.00    -0.138 A  
HETATM    8  N   UNL     1      -8.962   8.720  66.345  1.00  0.00    -0.148 NA 
HETATM    9  C   UNL     1     -10.047  10.402  67.905  1.00  0.00    -0.200 A  
HETATM   10  C   UNL     1      -7.674  11.865  67.343  1.00  0.00    -0.158 A  
HETATM   11  C   UNL     1      -9.892  11.694  68.422  1.00  0.00    -0.202 A  
HETATM   12  C   UNL     1      -6.396  12.620  67.122  1.00  0.00     0.005 C  
HETATM   13  C   UNL     1      -8.701  12.395  68.159  1.00  0.00    -0.190 A  
BRANCH   8  14
HETATM   14  C   UNL     1      -9.945   7.638  66.413  1.00  0.00    -0.072 C  
BRANCH  14  15
HETATM   15  C   UNL     1     -10.008   6.859  67.716  1.00  0.00    -0.180 A  
HETATM   16  C   UNL     1      -8.882   6.477  68.443  1.00  0.00    -0.123 A  
HETATM   17  C   UNL     1     -11.376   6.096  69.619  1.00  0.00    -0.442 A  
HETATM   18  C   UNL     1     -11.259   6.629  68.317  1.00  0.00    -0.208 A  
HETATM   19  C   UNL     1      -9.010   5.904  69.726  1.00  0.00    -0.135 A  
HETATM   20  C   UNL     1     -10.253   5.724  70.374  1.00  0.00    -0.288 A  
BRANCH  20  21
HETATM   21  C   UNL     1     -10.315   5.231  71.793  1.00  0.00    -0.277 A  
HETATM   22  C   UNL     1     -10.519   3.272  73.297  1.00  0.00    -0.254 A  
HETATM   23  C   UNL     1     -10.410   3.839  72.015  1.00  0.00    -0.083 A  
HETATM   24  C   UNL     1     -10.386   5.442  74.254  1.00  0.00    -0.302 A  
HETATM   25  C   UNL     1     -10.274   6.026  72.963  1.00  0.00    -0.210 A  
HETATM   26  C   UNL     1     -10.530   4.072  74.415  1.00  0.00    -0.278 A  
HETATM   27  C   UNL     1     -10.165   7.504  72.961  1.00  0.00    -0.306 C  
HETATM   28  O   UNL     1      -9.282   7.867  73.918  1.00  0.00    -0.267 OA 
HETATM   29  O   UNL     1     -10.810   8.292  72.298  1.00  0.00    -0.289 OA 
ENDBRANCH  20  21
ENDBRANCH  14  15
ENDBRANCH   8  14
BRANCH  11  30
HETATM   30  C   UNL     1     -10.938  12.315  69.252  1.00  0.00    -0.097 A  
HETATM   31  C   UNL     1     -13.329  12.460  71.856  1.00  0.00    -0.450 A  
HETATM   32  C   UNL     1     -14.122  13.554  72.229  1.00  0.00    -0.564 A  
HETATM   33  N   UNL     1     -11.556  11.700  70.250  1.00  0.00    -0.240 NA 
HETATM   34  C   UNL     1     -10.910  14.656  68.270  1.00  0.00    -0.245 C  
HETATM   35  C   UNL     1     -12.434  12.606  70.785  1.00  0.00    -0.270 A  
HETATM   36  C   UNL     1     -14.029  14.765  71.546  1.00  0.00    -0.548 A  
HETATM   37  N   UNL     1     -11.394  13.623  69.157  1.00  0.00    -0.273 NA 
HETATM   38  C   UNL     1     -12.359  13.823  70.120  1.00  0.00    -0.323 A  
HETATM   39  C   UNL     1     -13.145  14.926  70.475  1.00  0.00    -0.299 A  
ENDBRANCH  11  30
ENDBRANCH   3   4
ENDBRANCH   2   3
TORSDOF 6
ENDMDL
MODEL       38
REMARK 921   NORMALIZED FREE ENERGY PREDICTED BY IDOCK:   -6.05 KCAL/MOL
REMARK 922        TOTAL FREE ENERGY PREDICTED BY IDOCK:  -10.17 KCAL/MOL
REMARK 923 INTER-LIGAND FREE ENERGY PREDICTED BY IDOCK:   -8.93 KCAL/MOL
REMARK 924 INTRA-LIGAND FREE ENERGY PREDICTED BY IDOCK:   -1.24 KCAL/MOL
REMARK 927      BINDING AFFINITY PREDICTED BY RF-SCORE:    0.00 PKD
ROOT
HETATM    1  C   UNL     1      -9.276  16.876  66.537  1.00  0.00    -0.295 C  
HETATM    2  C   UNL     1      -9.891  16.112  67.703  1.00  0.00    -0.236 C  
ENDROOT
BRANCH   2   3
HETATM    3  C   UNL     1     -11.241  15.462  67.371  1.00  0.00    -0.287 C  
BRANCH   3   4
HETATM    4  C   UNL     1     -11.578  14.347  68.307  1.00  0.00    -0.328 A  
HETATM    5  N   UNL     1     -12.407  14.482  69.325  1.00  0.00    -0.215 NA 
HETATM    6  C   UNL     1     -12.379  13.297  70.009  1.00  0.00    -0.200 A  
HETATM    7  C   UNL     1     -11.539  12.397  69.371  1.00  0.00    -0.307 A  
HETATM    8  N   UNL     1     -11.078  13.058  68.251  1.00  0.00    -0.249 NA 
HETATM    9  C   UNL     1     -11.275  11.126  69.885  1.00  0.00    -0.293 A  
HETATM   10  C   UNL     1     -13.022  12.936  71.210  1.00  0.00    -0.317 A  
HETATM   11  C   UNL     1     -11.964  10.709  71.030  1.00  0.00    -0.442 A  
HETATM   12  C   UNL     1     -13.886  13.902  71.966  1.00  0.00    -0.588 C  
HETATM   13  C   UNL     1     -12.804  11.624  71.690  1.00  0.00    -0.454 A  
BRANCH   8  14
HETATM   14  C   UNL     1     -10.091  12.507  67.321  1.00  0.00    -0.213 C  
BRANCH  14  15
HETATM   15  C   UNL     1      -9.773  11.029  67.468  1.00  0.00    -0.190 A  
HETATM   16  C   UNL     1      -8.795  10.529  68.328  1.00  0.00    -0.139 A  
HETATM   17  C   UNL     1     -10.482   8.699  67.082  1.00  0.00    -0.360 A  
HETATM   18  C   UNL     1     -10.594  10.083  66.826  1.00  0.00    -0.229 A  
HETATM   19  C   UNL     1      -8.663   9.142  68.543  1.00  0.00    -0.129 A  
HETATM   20  C   UNL     1      -9.517   8.181  67.958  1.00  0.00    -0.155 A  
BRANCH  20  21
HETATM   21  C   UNL     1      -9.409   6.728  68.330  1.00  0.00    -0.124 A  
HETATM   22  C   UNL     1     -10.285   4.878  69.727  1.00  0.00    -0.284 A  
HETATM   23  C   UNL     1     -10.323   6.209  69.274  1.00  0.00    -0.276 A  
HETATM   24  C   UNL     1      -8.447   4.452  68.284  1.00  0.00    -0.101 A  
HETATM   25  C   UNL     1      -8.477   5.795  67.817  1.00  0.00    -0.103 A  
HETATM   26  C   UNL     1      -9.335   4.006  69.252  1.00  0.00    -0.238 A  
HETATM   27  C   UNL     1      -7.439   6.123  66.812  1.00  0.00    -0.087 C  
HETATM   28  O   UNL     1      -7.391   5.120  65.906  1.00  0.00    -0.078 OA 
HETATM   29  O   UNL     1      -6.676   7.069  66.819  1.00  0.00    -0.056 OA 
ENDBRANCH  20  21
ENDBRANCH  14  15
ENDBRANCH   8  14
BRANCH  11  30
HETATM   30  C   UNL     1     -11.805   9.345  71.563  1.00  0.00    -0.385 A  
HETATM   31  C   UNL     1     -10.100   6.674  73.136  1.00  0.00    -0.213 A  
HETATM   32  C   UNL     1     -10.603   5.404  73.448  1.00  0.00    -0.297 A  
HETATM   33  N   UNL     1     -10.691   8.891  72.117  1.00  0.00    -0.321 NA 
HETATM   34  C   UNL     1     -14.168   8.484  71.208  1.00  0.00    -0.207 C  
HETATM   35  C   UNL     1     -10.944   7.601  72.505  1.00  0.00    -0.324 A  
HETATM   36  C   UNL     1     -11.917   5.062  73.133  1.00  0.00     0.031 A  
HETATM   37  N   UNL     1     -12.786   8.363  71.613  1.00  0.00    -0.323 NA 
HETATM   38  C   UNL     1     -12.249   7.238  72.201  1.00  0.00    -0.223 A  
HETATM   39  C   UNL     1     -12.770   5.973  72.501  1.00  0.00     0.305 A  
ENDBRANCH  11  30
ENDBRANCH   3   4
ENDBRANCH   2   3
TORSDOF 6
ENDMDL
MODEL       39
REMARK 921   NORMALIZED FREE ENERGY PREDICTED BY IDOCK:   -6.04 KCAL/MOL
REMARK 922        TOTAL FREE ENERGY PREDICTED BY IDOCK:  -10.16 KCAL/MOL
REMARK 923 INTER-LIGAND FREE ENERGY PREDICTED BY IDOCK:   -8.16 KCAL/MOL
REMARK 924 INTRA-LIGAND FREE ENERGY PREDICTED BY IDOCK:   -2.00 KCAL/MOL
REMARK 927      BINDING AFFINITY PREDICTED BY RF-SCORE:    0.00 PKD
ROOT
HETATM    1  C   UNL     1     -13.871   8.100  72.174  1.00  0.00    -0.304 C  
HETATM    2  C   UNL     1     -13.951   9.548  71.712  1.00  0.00    -0.220 C  
ENDROOT
BRANCH   2   3
HETATM    3  C   UNL     1     -12.646  10.332  71.911  1.00  0.00    -0.414 C  
BRANCH   3   4
HETATM    4  C   UNL     1     -11.568   9.881  70.980  1.00  0.00    -0.389 A  
HETATM    5  N   UNL     1     -10.580   9.085  71.348  1.00  0.00    -0.295 NA 
HETATM    6  C   UNL     1      -9.740   8.986  70.272  1.00  0.00    -0.196 A  
HETATM    7  C   UNL     1     -10.246   9.709  69.202  1.00  0.00    -0.202 A  
HETATM    8  N   UNL     1     -11.444  10.229  69.647  1.00  0.00    -0.249 NA 
HETATM    9  C   UNL     1      -9.562   9.831  67.992  1.00  0.00    -0.160 A  
HETATM   10  C   UNL     1      -8.504   8.320  70.155  1.00  0.00    -0.126 A  
HETATM   11  C   UNL     1      -8.373   9.113  67.817  1.00  0.00    -0.117 A  
HETATM   12  C   UNL     1      -7.891   7.582  71.308  1.00  0.00    -0.094 C  
HETATM   13  C   UNL     1      -7.847   8.392  68.905  1.00  0.00    -0.113 A  
BRANCH   8  14
HETATM   14  C   UNL     1     -12.285  11.135  68.864  1.00  0.00    -0.076 C  
BRANCH  14  15
HETATM   15  C   UNL     1     -11.833  12.583  68.786  1.00  0.00    -0.347 A  
HETATM   16  C   UNL     1     -11.689  13.409  69.900  1.00  0.00    -0.337 A  
HETATM   17  C   UNL     1     -10.766  14.361  67.452  1.00  0.00    -0.280 A  
HETATM   18  C   UNL     1     -11.387  13.097  67.554  1.00  0.00    -0.336 A  
HETATM   19  C   UNL     1     -11.106  14.689  69.780  1.00  0.00    -0.268 A  
HETATM   20  C   UNL     1     -10.595  15.197  68.565  1.00  0.00    -0.237 A  
BRANCH  20  21
HETATM   21  C   UNL     1      -9.867  16.512  68.529  1.00  0.00    -0.243 A  
HETATM   22  C   UNL     1     -10.047  18.971  68.278  1.00  0.00    -0.466 A  
HETATM   23  C   UNL     1     -10.626  17.693  68.369  1.00  0.00    -0.318 A  
HETATM   24  C   UNL     1      -7.896  18.003  68.558  1.00  0.00    -0.310 A  
HETATM   25  C   UNL     1      -8.471  16.705  68.654  1.00  0.00    -0.253 A  
HETATM   26  C   UNL     1      -8.683  19.126  68.348  1.00  0.00    -0.387 A  
HETATM   27  C   UNL     1      -7.493  15.609  68.839  1.00  0.00    -0.162 C  
HETATM   28  O   UNL     1      -6.595  15.992  69.775  1.00  0.00    -0.195 OA 
HETATM   29  O   UNL     1      -7.419  14.570  68.212  1.00  0.00    -0.104 OA 
ENDBRANCH  20  21
ENDBRANCH  14  15
ENDBRANCH   8  14
BRANCH  11  30
HETATM   30  C   UNL     1      -7.657   9.121  66.530  1.00  0.00    -0.093 A  
HETATM   31  C   UNL     1      -6.686   7.865  63.369  1.00  0.00    -0.075 A  
HETATM   32  C   UNL     1      -5.857   8.480  62.421  1.00  0.00    -0.084 A  
HETATM   33  N   UNL     1      -7.731   8.149  65.634  1.00  0.00    -0.086 NA 
HETATM   34  C   UNL     1      -6.597  11.425  66.663  1.00  0.00    -0.114 C  
HETATM   35  C   UNL     1      -6.952   8.533  64.574  1.00  0.00    -0.073 A  
HETATM   36  C   UNL     1      -5.301   9.733  62.671  1.00  0.00    -0.088 A  
HETATM   37  N   UNL     1      -6.855  10.146  66.043  1.00  0.00    -0.104 NA 
HETATM   38  C   UNL     1      -6.386   9.781  64.800  1.00  0.00    -0.097 A  
HETATM   39  C   UNL     1      -5.552  10.412  63.867  1.00  0.00    -0.147 A  
ENDBRANCH  11  30
ENDBRANCH   3   4
ENDBRANCH   2   3
TORSDOF 6
ENDMDL
MODEL       40
REMARK 921   NORMALIZED FREE ENERGY PREDICTED BY IDOCK:   -6.01 KCAL/MOL
REMARK 922        TOTAL FREE ENERGY PREDICTED BY IDOCK:  -10.11 KCAL/MOL
REMARK 923 INTER-LIGAND FREE ENERGY PREDICTED BY IDOCK:   -8.86 KCAL/MOL
REMARK 924 INTRA-LIGAND FREE ENERGY PREDICTED BY IDOCK:   -1.25 KCAL/MOL
REMARK 927      BINDING AFFINITY PREDICTED BY RF-SCORE:    0.00 PKD
ROOT
HETATM    1  C   UNL     1      -8.758  10.487  62.618  1.00  0.00    -0.254 C  
HETATM    2  C   UNL     1      -8.774   8.966  62.682  1.00  0.00    -0.140 C  
ENDROOT
BRANCH   2   3
HETATM    3  C   UNL     1      -7.562   8.367  63.410  1.00  0.00    -0.129 C  
BRANCH   3   4
HETATM    4  C   UNL     1      -7.963   7.399  64.475  1.00  0.00    -0.122 A  
HETATM    5  N   UNL     1      -8.340   6.159  64.220  1.00  0.00    -0.042 NA 
HETATM    6  C   UNL     1      -8.733   5.619  65.416  1.00  0.00    -0.137 A  
HETATM    7  C   UNL     1      -8.556   6.541  66.437  1.00  0.00    -0.136 A  
HETATM    8  N   UNL     1      -8.007   7.654  65.833  1.00  0.00    -0.109 NA 
HETATM    9  C   UNL     1      -8.930   6.277  67.755  1.00  0.00    -0.112 A  
HETATM   10  C   UNL     1      -9.289   4.354  65.692  1.00  0.00    -0.161 A  
HETATM   11  C   UNL     1      -9.407   5.000  68.075  1.00  0.00    -0.152 A  
HETATM   12  C   UNL     1      -9.559   3.355  64.606  1.00  0.00    -0.161 C  
HETATM   13  C   UNL     1      -9.605   4.069  67.040  1.00  0.00    -0.231 A  
BRANCH   8  14
HETATM   14  C   UNL     1      -7.728   8.910  66.530  1.00  0.00    -0.099 C  
BRANCH  14  15
HETATM   15  C   UNL     1      -8.772   9.376  67.531  1.00  0.00    -0.123 A  
HETATM   16  C   UNL     1      -8.491   9.655  68.868  1.00  0.00    -0.125 A  
HETATM   17  C   UNL     1     -11.017  10.320  67.909  1.00  0.00    -0.350 A  
HETATM   18  C   UNL     1     -10.066   9.693  67.077  1.00  0.00    -0.275 A  
HETATM   19  C   UNL     1      -9.463  10.243  69.704  1.00  0.00    -0.180 A  
HETATM   20  C   UNL     1     -10.745  10.626  69.251  1.00  0.00    -0.275 A  
BRANCH  20  21
HETATM   21  C   UNL     1     -11.689  11.368  70.156  1.00  0.00    -0.414 A  
HETATM   22  C   UNL     1     -12.588  13.570  70.853  1.00  0.00    -0.414 A  
HETATM   23  C   UNL     1     -11.773  12.772  70.030  1.00  0.00    -0.282 A  
HETATM   24  C   UNL     1     -13.356  11.616  71.964  1.00  0.00    -0.405 A  
HETATM   25  C   UNL     1     -12.536  10.799  71.137  1.00  0.00    -0.532 A  
HETATM   26  C   UNL     1     -13.361  12.997  71.835  1.00  0.00    -0.539 A  
HETATM   27  C   UNL     1     -12.616   9.349  71.428  1.00  0.00    -0.348 C  
HETATM   28  O   UNL     1     -13.918   9.017  71.584  1.00  0.00    -0.384 OA 
HETATM   29  O   UNL     1     -11.693   8.577  71.598  1.00  0.00    -0.272 OA 
ENDBRANCH  20  21
ENDBRANCH  14  15
ENDBRANCH   8  14
BRANCH  11  30
HETATM   30  C   UNL     1      -9.725   4.630  69.465  1.00  0.00    -0.208 A  
HETATM   31  C   UNL     1     -11.066   5.101  72.704  1.00  0.00    -0.298 A  
HETATM   32  C   UNL     1     -11.087   4.183  73.763  1.00  0.00    -0.305 A  
HETATM   33  N   UNL     1     -10.352   5.423  70.319  1.00  0.00    -0.271 NA 
HETATM   34  C   UNL     1      -8.893   2.230  69.452  1.00  0.00    -0.092 C  
HETATM   35  C   UNL     1     -10.481   4.719  71.487  1.00  0.00    -0.072 A  
HETATM   36  C   UNL     1     -10.532   2.913  73.614  1.00  0.00    -0.237 A  
HETATM   37  N   UNL     1      -9.469   3.404  70.067  1.00  0.00    -0.182 NA 
HETATM   38  C   UNL     1      -9.935   3.448  71.363  1.00  0.00    -0.065 A  
HETATM   39  C   UNL     1      -9.943   2.517  72.410  1.00  0.00    -0.228 A  
ENDBRANCH  11  30
ENDBRANCH   3   4
ENDBRANCH   2   3
TORSDOF 6
ENDMDL
MODEL       41
REMARK 921   NORMALIZED FREE ENERGY PREDICTED BY IDOCK:   -5.95 KCAL/MOL
REMARK 922        TOTAL FREE ENERGY PREDICTED BY IDOCK:  -10.04 KCAL/MOL
REMARK 923 INTER-LIGAND FREE ENERGY PREDICTED BY IDOCK:   -8.44 KCAL/MOL
REMARK 924 INTRA-LIGAND FREE ENERGY PREDICTED BY IDOCK:   -1.60 KCAL/MOL
REMARK 927      BINDING AFFINITY PREDICTED BY RF-SCORE:    0.00 PKD
ROOT
HETATM    1  C   UNL     1      -8.055   5.632  73.704  1.00  0.00    -0.112 C  
HETATM    2  C   UNL     1      -9.488   5.120  73.649  1.00  0.00    -0.134 C  
ENDROOT
BRANCH   2   3
HETATM    3  C   UNL     1     -10.118   5.202  72.251  1.00  0.00    -0.243 C  
BRANCH   3   4
HETATM    4  C   UNL     1     -10.617   6.575  71.935  1.00  0.00    -0.210 A  
HETATM    5  N   UNL     1     -11.830   6.994  72.249  1.00  0.00    -0.262 NA 
HETATM    6  C   UNL     1     -11.961   8.245  71.707  1.00  0.00    -0.316 A  
HETATM    7  C   UNL     1     -10.783   8.618  71.078  1.00  0.00    -0.228 A  
HETATM    8  N   UNL     1      -9.911   7.568  71.281  1.00  0.00    -0.186 NA 
HETATM    9  C   UNL     1     -10.654   9.825  70.388  1.00  0.00    -0.365 A  
HETATM   10  C   UNL     1     -13.078   9.102  71.686  1.00  0.00    -0.431 A  
HETATM   11  C   UNL     1     -11.718  10.733  70.421  1.00  0.00    -0.445 A  
HETATM   12  C   UNL     1     -14.390   8.708  72.297  1.00  0.00    -0.486 C  
HETATM   13  C   UNL     1     -12.920  10.352  71.042  1.00  0.00    -0.490 A  
BRANCH   8  14
HETATM   14  C   UNL     1      -8.564   7.500  70.713  1.00  0.00    -0.135 C  
BRANCH  14  15
HETATM   15  C   UNL     1      -8.434   6.833  69.354  1.00  0.00    -0.132 A  
HETATM   16  C   UNL     1      -8.115   5.487  69.180  1.00  0.00    -0.095 A  
HETATM   17  C   UNL     1      -8.894   6.936  66.934  1.00  0.00    -0.122 A  
HETATM   18  C   UNL     1      -8.795   7.553  68.200  1.00  0.00    -0.127 A  
HETATM   19  C   UNL     1      -8.174   4.890  67.903  1.00  0.00    -0.100 A  
HETATM   20  C   UNL     1      -8.596   5.579  66.744  1.00  0.00    -0.110 A  
BRANCH  20  21
HETATM   21  C   UNL     1      -8.764   4.853  65.438  1.00  0.00    -0.143 A  
HETATM   22  C   UNL     1     -10.216   3.403  64.048  1.00  0.00    -0.212 A  
HETATM   23  C   UNL     1      -9.969   4.152  65.212  1.00  0.00    -0.216 A  
HETATM   24  C   UNL     1      -8.089   4.042  63.203  1.00  0.00    -0.081 A  
HETATM   25  C   UNL     1      -7.830   4.803  64.376  1.00  0.00    -0.085 A  
HETATM   26  C   UNL     1      -9.269   3.328  63.053  1.00  0.00    -0.092 A  
HETATM   27  C   UNL     1      -6.510   5.474  64.397  1.00  0.00    -0.033 C  
HETATM   28  O   UNL     1      -6.304   6.049  63.190  1.00  0.00    -0.024 OA 
HETATM   29  O   UNL     1      -5.685   5.455  65.288  1.00  0.00    -0.016 OA 
ENDBRANCH  20  21
ENDBRANCH  14  15
ENDBRANCH   8  14
BRANCH  11  30
HETATM   30  C   UNL     1     -11.606  12.063  69.796  1.00  0.00    -0.276 A  
HETATM   31  C   UNL     1     -11.662  15.599  69.701  1.00  0.00    -0.373 A  
HETATM   32  C   UNL     1     -11.377  16.430  68.610  1.00  0.00    -0.289 A  
HETATM   33  N   UNL     1     -11.801  13.203  70.440  1.00  0.00    -0.247 NA 
HETATM   34  C   UNL     1     -10.844  11.366  67.476  1.00  0.00    -0.244 C  
HETATM   35  C   UNL     1     -11.584  14.208  69.533  1.00  0.00    -0.295 A  
HETATM   36  C   UNL     1     -11.027  15.887  67.375  1.00  0.00    -0.257 A  
HETATM   37  N   UNL     1     -11.240  12.325  68.482  1.00  0.00    -0.249 NA 
HETATM   38  C   UNL     1     -11.233  13.690  68.293  1.00  0.00    -0.273 A  
HETATM   39  C   UNL     1     -10.947  14.503  67.189  1.00  0.00    -0.304 A  
ENDBRANCH  11  30
ENDBRANCH   3   4
ENDBRANCH   2   3
TORSDOF 6
ENDMDL
MODEL       42
REMARK 921   NORMALIZED FREE ENERGY PREDICTED BY IDOCK:   -5.85 KCAL/MOL
REMARK 922        TOTAL FREE ENERGY PREDICTED BY IDOCK:   -9.91 KCAL/MOL
REMARK 923 INTER-LIGAND FREE ENERGY PREDICTED BY IDOCK:   -9.35 KCAL/MOL
REMARK 924 INTRA-LIGAND FREE ENERGY PREDICTED BY IDOCK:   -0.56 KCAL/MOL
REMARK 927      BINDING AFFINITY PREDICTED BY RF-SCORE:    0.00 PKD
ROOT
HETATM    1  C   UNL     1     -13.544  13.679  72.568  1.00  0.00    -0.675 C  
HETATM    2  C   UNL     1     -13.245  12.377  71.838  1.00  0.00    -0.486 C  
ENDROOT
BRANCH   2   3
HETATM    3  C   UNL     1     -12.525  12.573  70.497  1.00  0.00    -0.266 C  
BRANCH   3   4
HETATM    4  C   UNL     1     -11.845  11.326  70.031  1.00  0.00    -0.367 A  
HETATM    5  N   UNL     1     -11.561  10.315  70.832  1.00  0.00    -0.359 NA 
HETATM    6  C   UNL     1     -10.850   9.415  70.085  1.00  0.00    -0.249 A  
HETATM    7  C   UNL     1     -10.729   9.869  68.780  1.00  0.00    -0.220 A  
HETATM    8  N   UNL     1     -11.420  11.063  68.743  1.00  0.00    -0.279 NA 
HETATM    9  C   UNL     1     -10.000   9.176  67.812  1.00  0.00    -0.236 A  
HETATM   10  C   UNL     1     -10.246   8.203  70.472  1.00  0.00    -0.207 A  
HETATM   11  C   UNL     1      -9.459   7.928  68.145  1.00  0.00    -0.154 A  
HETATM   12  C   UNL     1     -10.297   7.710  71.888  1.00  0.00    -0.240 C  
HETATM   13  C   UNL     1      -9.564   7.472  69.471  1.00  0.00    -0.156 A  
BRANCH   8  14
HETATM   14  C   UNL     1     -11.485  11.935  67.569  1.00  0.00    -0.326 C  
BRANCH  14  15
HETATM   15  C   UNL     1     -11.066  13.381  67.776  1.00  0.00    -0.292 A  
HETATM   16  C   UNL     1      -9.889  13.762  68.420  1.00  0.00    -0.227 A  
HETATM   17  C   UNL     1     -11.369  15.745  67.145  1.00  0.00    -0.025 A  
HETATM   18  C   UNL     1     -11.813  14.406  67.165  1.00  0.00    -0.437 A  
HETATM   19  C   UNL     1      -9.475  15.110  68.431  1.00  0.00    -0.208 A  
HETATM   20  C   UNL     1     -10.178  16.143  67.770  1.00  0.00    -0.267 A  
BRANCH  20  21
HETATM   21  C   UNL     1      -9.616  17.536  67.708  1.00  0.00    -0.269 A  
HETATM   22  C   UNL     1     -10.086  19.965  67.845  1.00  0.00    -0.571 A  
HETATM   23  C   UNL     1     -10.493  18.622  67.923  1.00  0.00    -0.431 A  
HETATM   24  C   UNL     1      -7.867  19.252  67.388  1.00  0.00    -0.283 A  
HETATM   25  C   UNL     1      -8.267  17.890  67.466  1.00  0.00    -0.228 A  
HETATM   26  C   UNL     1      -8.780  20.283  67.555  1.00  0.00    -0.401 A  
HETATM   27  C   UNL     1      -7.181  16.912  67.226  1.00  0.00    -0.166 C  
HETATM   28  O   UNL     1      -6.089  17.310  67.919  1.00  0.00    -0.135 OA 
HETATM   29  O   UNL     1      -7.196  15.960  66.472  1.00  0.00    -0.143 OA 
ENDBRANCH  20  21
ENDBRANCH  14  15
ENDBRANCH   8  14
BRANCH  11  30
HETATM   30  C   UNL     1      -8.765   7.104  67.140  1.00  0.00    -0.121 A  
HETATM   31  C   UNL     1      -6.072   6.142  65.058  1.00  0.00    -0.030 A  
HETATM   32  C   UNL     1      -6.005   5.034  64.203  1.00  0.00    -0.021 A  
HETATM   33  N   UNL     1      -7.536   7.341  66.707  1.00  0.00    -0.098 NA 
HETATM   34  C   UNL     1     -10.514   5.291  66.814  1.00  0.00    -0.273 C  
HETATM   35  C   UNL     1      -7.240   6.352  65.806  1.00  0.00    -0.078 A  
HETATM   36  C   UNL     1      -7.082   4.156  64.092  1.00  0.00    -0.047 A  
HETATM   37  N   UNL     1      -9.256   5.950  66.543  1.00  0.00    -0.142 NA 
HETATM   38  C   UNL     1      -8.300   5.464  65.678  1.00  0.00    -0.130 A  
HETATM   39  C   UNL     1      -8.255   4.352  64.827  1.00  0.00    -0.105 A  
ENDBRANCH  11  30
ENDBRANCH   3   4
ENDBRANCH   2   3
TORSDOF 6
ENDMDL
MODEL       43
REMARK 921   NORMALIZED FREE ENERGY PREDICTED BY IDOCK:   -5.80 KCAL/MOL
REMARK 922        TOTAL FREE ENERGY PREDICTED BY IDOCK:   -9.84 KCAL/MOL
REMARK 923 INTER-LIGAND FREE ENERGY PREDICTED BY IDOCK:   -9.36 KCAL/MOL
REMARK 924 INTRA-LIGAND FREE ENERGY PREDICTED BY IDOCK:   -0.47 KCAL/MOL
REMARK 927      BINDING AFFINITY PREDICTED BY RF-SCORE:    0.00 PKD
ROOT
HETATM    1  C   UNL     1     -12.521  16.423  74.519  1.00  0.00    -0.490 C  
HETATM    2  C   UNL     1     -12.355  16.305  73.010  1.00  0.00    -0.581 C  
ENDROOT
BRANCH   2   3
HETATM    3  C   UNL     1     -12.764  14.935  72.450  1.00  0.00    -0.428 C  
BRANCH   3   4
HETATM    4  C   UNL     1     -11.974  14.560  71.239  1.00  0.00    -0.333 A  
HETATM    5  N   UNL     1     -11.055  15.342  70.703  1.00  0.00    -0.324 NA 
HETATM    6  C   UNL     1     -10.633  14.720  69.559  1.00  0.00    -0.185 A  
HETATM    7  C   UNL     1     -11.283  13.504  69.410  1.00  0.00    -0.187 A  
HETATM    8  N   UNL     1     -12.094  13.385  70.520  1.00  0.00    -0.347 NA 
HETATM    9  C   UNL     1     -11.089  12.683  68.298  1.00  0.00    -0.295 A  
HETATM   10  C   UNL     1      -9.720  15.160  68.581  1.00  0.00    -0.216 A  
HETATM   11  C   UNL     1     -10.126  13.054  67.351  1.00  0.00    -0.231 A  
HETATM   12  C   UNL     1      -9.046  16.497  68.672  1.00  0.00    -0.239 C  
HETATM   13  C   UNL     1      -9.477  14.294  67.489  1.00  0.00    -0.209 A  
BRANCH   8  14
HETATM   14  C   UNL     1     -13.031  12.280  70.736  1.00  0.00     0.112 C  
BRANCH  14  15
HETATM   15  C   UNL     1     -12.424  10.894  70.875  1.00  0.00    -0.507 A  
HETATM   16  C   UNL     1     -11.056  10.638  70.803  1.00  0.00     0.079 A  
HETATM   17  C   UNL     1     -12.725   8.554  71.588  1.00  0.00    -0.365 A  
HETATM   18  C   UNL     1     -13.252   9.817  71.245  1.00  0.00    -0.452 A  
HETATM   19  C   UNL     1     -10.543   9.359  71.107  1.00  0.00    -0.403 A  
HETATM   20  C   UNL     1     -11.349   8.284  71.541  1.00  0.00    -0.320 A  
BRANCH  20  21
HETATM   21  C   UNL     1     -10.728   6.985  71.976  1.00  0.00    -0.243 A  
HETATM   22  C   UNL     1     -10.501   5.301  73.780  1.00  0.00    -0.304 A  
HETATM   23  C   UNL     1     -11.056   6.481  73.254  1.00  0.00    -0.141 A  
HETATM   24  C   UNL     1      -9.282   4.992  71.765  1.00  0.00    -0.171 A  
HETATM   25  C   UNL     1      -9.839   6.183  71.222  1.00  0.00    -0.204 A  
HETATM   26  C   UNL     1      -9.598   4.568  73.047  1.00  0.00    -0.153 A  
HETATM   27  C   UNL     1      -9.371   6.517  69.857  1.00  0.00    -0.152 C  
HETATM   28  O   UNL     1      -9.396   5.389  69.110  1.00  0.00    -0.113 OA 
HETATM   29  O   UNL     1      -8.942   7.583  69.462  1.00  0.00    -0.143 OA 
ENDBRANCH  20  21
ENDBRANCH  14  15
ENDBRANCH   8  14
BRANCH  11  30
HETATM   30  C   UNL     1      -9.803  12.182  66.208  1.00  0.00    -0.234 A  
HETATM   31  C   UNL     1     -10.268  10.760  63.003  1.00  0.00    -0.103 A  
HETATM   32  C   UNL     1      -9.433   9.848  62.342  1.00  0.00    -0.174 A  
HETATM   33  N   UNL     1     -10.540  12.095  65.111  1.00  0.00    -0.276 NA 
HETATM   34  C   UNL     1      -7.577  11.258  67.009  1.00  0.00    -0.143 C  
HETATM   35  C   UNL     1      -9.905  11.208  64.282  1.00  0.00    -0.286 A  
HETATM   36  C   UNL     1      -8.264   9.388  62.946  1.00  0.00    -0.165 A  
HETATM   37  N   UNL     1      -8.680  11.374  66.082  1.00  0.00    -0.176 NA 
HETATM   38  C   UNL     1      -8.735  10.735  64.863  1.00  0.00    -0.126 A  
HETATM   39  C   UNL     1      -7.889   9.822  64.221  1.00  0.00    -0.134 A  
ENDBRANCH  11  30
ENDBRANCH   3   4
ENDBRANCH   2   3
TORSDOF 6
ENDMDL
MODEL       44
REMARK 921   NORMALIZED FREE ENERGY PREDICTED BY IDOCK:   -5.78 KCAL/MOL
REMARK 922        TOTAL FREE ENERGY PREDICTED BY IDOCK:   -9.81 KCAL/MOL
REMARK 923 INTER-LIGAND FREE ENERGY PREDICTED BY IDOCK:   -8.04 KCAL/MOL
REMARK 924 INTRA-LIGAND FREE ENERGY PREDICTED BY IDOCK:   -1.77 KCAL/MOL
REMARK 927      BINDING AFFINITY PREDICTED BY RF-SCORE:    0.00 PKD
ROOT
HETATM    1  C   UNL     1      -6.645   7.053  62.914  1.00  0.00    -0.048 C  
HETATM    2  C   UNL     1      -6.630   7.776  64.254  1.00  0.00    -0.056 C  
ENDROOT
BRANCH   2   3
HETATM    3  C   UNL     1      -6.602   9.306  64.130  1.00  0.00    -0.091 C  
BRANCH   3   4
HETATM    4  C   UNL     1      -7.761   9.951  64.820  1.00  0.00    -0.138 A  
HETATM    5  N   UNL     1      -8.845  10.359  64.185  1.00  0.00    -0.201 NA 
HETATM    6  C   UNL     1      -9.625  10.990  65.116  1.00  0.00    -0.237 A  
HETATM    7  C   UNL     1      -9.020  10.935  66.363  1.00  0.00    -0.175 A  
HETATM    8  N   UNL     1      -7.858  10.216  66.173  1.00  0.00    -0.111 NA 
HETATM    9  C   UNL     1      -9.569  11.552  67.488  1.00  0.00    -0.179 A  
HETATM   10  C   UNL     1     -10.849  11.668  64.952  1.00  0.00    -0.359 A  
HETATM   11  C   UNL     1     -10.824  12.160  67.375  1.00  0.00    -0.286 A  
HETATM   12  C   UNL     1     -11.503  11.808  63.609  1.00  0.00    -0.524 C  
HETATM   13  C   UNL     1     -11.433  12.235  66.109  1.00  0.00    -0.429 A  
BRANCH   8  14
HETATM   14  C   UNL     1      -6.859   9.983  67.217  1.00  0.00    -0.082 C  
BRANCH  14  15
HETATM   15  C   UNL     1      -7.016   8.711  68.033  1.00  0.00    -0.075 A  
HETATM   16  C   UNL     1      -8.221   8.299  68.601  1.00  0.00    -0.120 A  
HETATM   17  C   UNL     1      -6.080   6.522  68.675  1.00  0.00    -0.025 A  
HETATM   18  C   UNL     1      -5.939   7.808  68.109  1.00  0.00    -0.040 A  
HETATM   19  C   UNL     1      -8.340   7.028  69.202  1.00  0.00    -0.125 A  
HETATM   20  C   UNL     1      -7.290   6.084  69.233  1.00  0.00    -0.083 A  
BRANCH  20  21
HETATM   21  C   UNL     1      -7.519   4.698  69.770  1.00  0.00    -0.055 A  
HETATM   22  C   UNL     1      -7.379   3.190  71.732  1.00  0.00    -0.043 A  
HETATM   23  C   UNL     1      -7.243   4.456  71.134  1.00  0.00    -0.040 A  
HETATM   24  C   UNL     1      -8.137   2.308  69.661  1.00  0.00    -0.057 A  
HETATM   25  C   UNL     1      -8.006   3.584  69.047  1.00  0.00    -0.063 A  
HETATM   26  C   UNL     1      -7.803   2.111  70.992  1.00  0.00    -0.046 A  
HETATM   27  C   UNL     1      -8.367   3.618  67.610  1.00  0.00    -0.093 C  
HETATM   28  O   UNL     1      -9.521   2.933  67.445  1.00  0.00    -0.189 OA 
HETATM   29  O   UNL     1      -7.718   4.087  66.696  1.00  0.00    -0.087 OA 
ENDBRANCH  20  21
ENDBRANCH  14  15
ENDBRANCH   8  14
BRANCH  11  30
HETATM   30  C   UNL     1     -11.500  12.742  68.548  1.00  0.00    -0.309 A  
HETATM   31  C   UNL     1     -13.085  12.697  71.710  1.00  0.00    -0.461 A  
HETATM   32  C   UNL     1     -13.555  13.792  72.447  1.00  0.00    -0.690 A  
HETATM   33  N   UNL     1     -11.940  12.034  69.576  1.00  0.00    -0.301 NA 
HETATM   34  C   UNL     1     -11.316  15.204  67.952  1.00  0.00    -0.338 C  
HETATM   35  C   UNL     1     -12.481  12.927  70.464  1.00  0.00    -0.217 A  
HETATM   36  C   UNL     1     -13.429  15.089  71.952  1.00  0.00    -0.500 A  
HETATM   37  N   UNL     1     -11.731  14.092  68.777  1.00  0.00    -0.324 NA 
HETATM   38  C   UNL     1     -12.368  14.227  69.991  1.00  0.00    -0.346 A  
HETATM   39  C   UNL     1     -12.833  15.335  70.711  1.00  0.00    -0.494 A  
ENDBRANCH  11  30
ENDBRANCH   3   4
ENDBRANCH   2   3
TORSDOF 6
ENDMDL
MODEL       45
REMARK 921   NORMALIZED FREE ENERGY PREDICTED BY IDOCK:   -5.71 KCAL/MOL
REMARK 922        TOTAL FREE ENERGY PREDICTED BY IDOCK:   -9.72 KCAL/MOL
REMARK 923 INTER-LIGAND FREE ENERGY PREDICTED BY IDOCK:   -9.03 KCAL/MOL
REMARK 924 INTRA-LIGAND FREE ENERGY PREDICTED BY IDOCK:   -0.69 KCAL/MOL
REMARK 927      BINDING AFFINITY PREDICTED BY RF-SCORE:    0.00 PKD
ROOT
HETATM    1  C   UNL     1      -5.638   3.937  69.258  1.00  0.00    -0.017 C  
HETATM    2  C   UNL     1      -5.445   4.481  67.848  1.00  0.00    -0.016 C  
ENDROOT
BRANCH   2   3
HETATM    3  C   UNL     1      -6.605   4.155  66.897  1.00  0.00    -0.046 C  
BRANCH   3   4
HETATM    4  C   UNL     1      -7.160   5.377  66.241  1.00  0.00    -0.072 A  
HETATM    5  N   UNL     1      -6.954   5.673  64.971  1.00  0.00    -0.058 NA 
HETATM    6  C   UNL     1      -7.515   6.905  64.763  1.00  0.00    -0.096 A  
HETATM    7  C   UNL     1      -8.116   7.358  65.927  1.00  0.00    -0.128 A  
HETATM    8  N   UNL     1      -7.935   6.347  66.849  1.00  0.00    -0.108 NA 
HETATM    9  C   UNL     1      -8.715   8.615  66.019  1.00  0.00    -0.196 A  
HETATM   10  C   UNL     1      -7.513   7.709  63.607  1.00  0.00    -0.101 A  
HETATM   11  C   UNL     1      -8.803   9.402  64.865  1.00  0.00    -0.240 A  
HETATM   12  C   UNL     1      -6.818   7.284  62.347  1.00  0.00    -0.069 C  
HETATM   13  C   UNL     1      -8.181   8.954  63.686  1.00  0.00    -0.172 A  
BRANCH   8  14
HETATM   14  C   UNL     1      -8.342   6.436  68.252  1.00  0.00    -0.116 C  
BRANCH  14  15
HETATM   15  C   UNL     1      -9.171   7.648  68.643  1.00  0.00    -0.141 A  
HETATM   16  C   UNL     1     -10.549   7.736  68.455  1.00  0.00    -0.157 A  
HETATM   17  C   UNL     1      -9.314   9.741  69.938  1.00  0.00    -0.262 A  
HETATM   18  C   UNL     1      -8.563   8.689  69.370  1.00  0.00    -0.127 A  
HETATM   19  C   UNL     1     -11.285   8.814  68.990  1.00  0.00     0.307 A  
HETATM   20  C   UNL     1     -10.704   9.834  69.776  1.00  0.00    -0.283 A  
BRANCH  20  21
HETATM   21  C   UNL     1     -11.561  10.884  70.427  1.00  0.00    -0.418 A  
HETATM   22  C   UNL     1     -12.230  13.269  70.481  1.00  0.00    -0.416 A  
HETATM   23  C   UNL     1     -11.506  12.202  69.922  1.00  0.00    -0.210 A  
HETATM   24  C   UNL     1     -13.176  11.778  72.070  1.00  0.00    -0.460 A  
HETATM   25  C   UNL     1     -12.450  10.691  71.511  1.00  0.00    -0.471 A  
HETATM   26  C   UNL     1     -13.046  13.065  71.568  1.00  0.00    -0.400 A  
HETATM   27  C   UNL     1     -12.671   9.390  72.185  1.00  0.00    -0.382 C  
HETATM   28  O   UNL     1     -13.997   9.243  72.403  1.00  0.00    -0.460 OA 
HETATM   29  O   UNL     1     -11.827   8.608  72.576  1.00  0.00    -0.361 OA 
ENDBRANCH  20  21
ENDBRANCH  14  15
ENDBRANCH   8  14
BRANCH  11  30
HETATM   30  C   UNL     1      -9.511  10.694  64.873  1.00  0.00    -0.243 A  
HETATM   31  C   UNL     1     -11.912  13.066  63.811  1.00  0.00    -0.585 A  
HETATM   32  C   UNL     1     -12.154  14.337  64.348  1.00  0.00    -0.490 A  
HETATM   33  N   UNL     1     -10.495  11.006  64.044  1.00  0.00    -0.371 NA 
HETATM   34  C   UNL     1      -8.389  11.766  66.884  1.00  0.00    -0.170 C  
HETATM   35  C   UNL     1     -10.905  12.270  64.379  1.00  0.00    -0.329 A  
HETATM   36  C   UNL     1     -11.406  14.808  65.426  1.00  0.00    -0.356 A  
HETATM   37  N   UNL     1      -9.299  11.741  65.761  1.00  0.00    -0.218 NA 
HETATM   38  C   UNL     1     -10.173  12.761  65.452  1.00  0.00    -0.283 A  
HETATM   39  C   UNL     1     -10.397  14.030  66.002  1.00  0.00    -0.312 A  
ENDBRANCH  11  30
ENDBRANCH   3   4
ENDBRANCH   2   3
TORSDOF 6
ENDMDL
MODEL       46
REMARK 921   NORMALIZED FREE ENERGY PREDICTED BY IDOCK:   -5.70 KCAL/MOL
REMARK 922        TOTAL FREE ENERGY PREDICTED BY IDOCK:   -9.70 KCAL/MOL
REMARK 923 INTER-LIGAND FREE ENERGY PREDICTED BY IDOCK:   -8.14 KCAL/MOL
REMARK 924 INTRA-LIGAND FREE ENERGY PREDICTED BY IDOCK:   -1.56 KCAL/MOL
REMARK 927      BINDING AFFINITY PREDICTED BY RF-SCORE:    0.00 PKD
ROOT
HETATM    1  C   UNL     1     -10.316   4.479  71.373  1.00  0.00    -0.117 C  
HETATM    2  C   UNL     1     -10.671   5.861  70.841  1.00  0.00    -0.338 C  
ENDROOT
BRANCH   2   3
HETATM    3  C   UNL     1      -9.472   6.818  70.762  1.00  0.00    -0.167 C  
BRANCH   3   4
HETATM    4  C   UNL     1      -9.889   8.224  70.476  1.00  0.00    -0.183 A  
HETATM    5  N   UNL     1     -10.957   8.786  71.012  1.00  0.00    -0.252 NA 
HETATM    6  C   UNL     1     -11.077  10.022  70.436  1.00  0.00    -0.327 A  
HETATM    7  C   UNL     1     -10.031  10.240  69.552  1.00  0.00    -0.228 A  
HETATM    8  N   UNL     1      -9.245   9.108  69.630  1.00  0.00    -0.160 NA 
HETATM    9  C   UNL     1      -9.934  11.398  68.779  1.00  0.00    -0.188 A  
HETATM   10  C   UNL     1     -12.081  10.996  70.599  1.00  0.00    -0.471 A  
HETATM   11  C   UNL     1     -10.870  12.419  68.980  1.00  0.00    -0.194 A  
HETATM   12  C   UNL     1     -13.263  10.772  71.495  1.00  0.00    -0.434 C  
HETATM   13  C   UNL     1     -11.942  12.195  69.862  1.00  0.00    -0.380 A  
BRANCH   8  14
HETATM   14  C   UNL     1      -8.065   8.870  68.797  1.00  0.00    -0.114 C  
BRANCH  14  15
HETATM   15  C   UNL     1      -8.185   7.777  67.749  1.00  0.00    -0.126 A  
HETATM   16  C   UNL     1      -7.148   6.906  67.418  1.00  0.00    -0.084 A  
HETATM   17  C   UNL     1      -9.665   6.388  66.351  1.00  0.00    -0.140 A  
HETATM   18  C   UNL     1      -9.441   7.513  67.173  1.00  0.00    -0.194 A  
HETATM   19  C   UNL     1      -7.371   5.808  66.561  1.00  0.00    -0.079 A  
HETATM   20  C   UNL     1      -8.639   5.489  66.024  1.00  0.00    -0.134 A  
BRANCH  20  21
HETATM   21  C   UNL     1      -8.840   4.232  65.224  1.00  0.00    -0.131 A  
HETATM   22  C   UNL     1      -9.048   3.224  62.970  1.00  0.00    -0.092 A  
HETATM   23  C   UNL     1      -8.827   4.326  63.815  1.00  0.00    -0.132 A  
HETATM   24  C   UNL     1      -9.257   1.821  64.876  1.00  0.00    -0.114 A  
HETATM   25  C   UNL     1      -9.033   2.928  65.740  1.00  0.00    -0.144 A  
HETATM   26  C   UNL     1      -9.287   1.977  63.498  1.00  0.00    -0.099 A  
HETATM   27  C   UNL     1      -9.071   2.602  67.184  1.00  0.00    -0.154 C  
HETATM   28  O   UNL     1      -8.362   1.467  67.384  1.00  0.00    -0.069 OA 
HETATM   29  O   UNL     1      -9.697   3.173  68.055  1.00  0.00    -0.138 OA 
ENDBRANCH  20  21
ENDBRANCH  14  15
ENDBRANCH   8  14
BRANCH  11  30
HETATM   30  C   UNL     1     -10.764  13.704  68.267  1.00  0.00    -0.254 A  
HETATM   31  C   UNL     1     -10.094  17.160  67.929  1.00  0.00    -0.308 A  
HETATM   32  C   UNL     1     -10.151  17.933  66.761  1.00  0.00    -0.349 A  
HETATM   33  N   UNL     1     -10.402  14.841  68.839  1.00  0.00    -0.238 NA 
HETATM   34  C   UNL     1     -11.280  12.911  65.910  1.00  0.00    -0.293 C  
HETATM   35  C   UNL     1     -10.400  15.793  67.853  1.00  0.00    -0.261 A  
HETATM   36  C   UNL     1     -10.511  17.356  65.544  1.00  0.00    -0.112 A  
HETATM   37  N   UNL     1     -10.972  13.909  66.909  1.00  0.00    -0.293 NA 
HETATM   38  C   UNL     1     -10.755  15.241  66.630  1.00  0.00    -0.309 A  
HETATM   39  C   UNL     1     -10.822  15.995  65.451  1.00  0.00    -0.340 A  
ENDBRANCH  11  30
ENDBRANCH   3   4
ENDBRANCH   2   3
TORSDOF 6
ENDMDL
MODEL       47
REMARK 921   NORMALIZED FREE ENERGY PREDICTED BY IDOCK:   -5.70 KCAL/MOL
REMARK 922        TOTAL FREE ENERGY PREDICTED BY IDOCK:   -9.69 KCAL/MOL
REMARK 923 INTER-LIGAND FREE ENERGY PREDICTED BY IDOCK:   -8.73 KCAL/MOL
REMARK 924 INTRA-LIGAND FREE ENERGY PREDICTED BY IDOCK:   -0.96 KCAL/MOL
REMARK 927      BINDING AFFINITY PREDICTED BY RF-SCORE:    0.00 PKD
ROOT
HETATM    1  C   UNL     1     -11.453   5.299  72.883  1.00  0.00    -0.339 C  
HETATM    2  C   UNL     1     -11.011   6.579  72.186  1.00  0.00    -0.283 C  
ENDROOT
BRANCH   2   3
HETATM    3  C   UNL     1     -10.405   6.346  70.795  1.00  0.00    -0.244 C  
BRANCH   3   4
HETATM    4  C   UNL     1      -9.455   7.431  70.402  1.00  0.00    -0.165 A  
HETATM    5  N   UNL     1      -8.146   7.262  70.347  1.00  0.00    -0.115 NA 
HETATM    6  C   UNL     1      -7.608   8.488  70.064  1.00  0.00    -0.064 A  
HETATM    7  C   UNL     1      -8.617   9.426  69.902  1.00  0.00    -0.191 A  
HETATM    8  N   UNL     1      -9.795   8.727  70.062  1.00  0.00    -0.174 NA 
HETATM    9  C   UNL     1      -8.352  10.776  69.664  1.00  0.00     0.182 A  
HETATM   10  C   UNL     1      -6.257   8.877  69.967  1.00  0.00    -0.037 A  
HETATM   11  C   UNL     1      -7.023  11.176  69.480  1.00  0.00    -0.111 A  
HETATM   12  C   UNL     1      -5.137   7.907  70.201  1.00  0.00    -0.023 C  
HETATM   13  C   UNL     1      -5.996  10.232  69.660  1.00  0.00    -0.046 A  
BRANCH   8  14
HETATM   14  C   UNL     1     -11.122   9.344  70.053  1.00  0.00    -0.221 C  
BRANCH  14  15
HETATM   15  C   UNL     1     -11.313  10.530  69.122  1.00  0.00    -0.319 A  
HETATM   16  C   UNL     1     -11.549  11.831  69.565  1.00  0.00    -0.398 A  
HETATM   17  C   UNL     1     -11.056  11.455  66.852  1.00  0.00    -0.356 A  
HETATM   18  C   UNL     1     -11.096  10.360  67.742  1.00  0.00    -0.365 A  
HETATM   19  C   UNL     1     -11.550  12.913  68.660  1.00  0.00    -0.353 A  
HETATM   20  C   UNL     1     -11.272  12.772  67.283  1.00  0.00    -0.339 A  
BRANCH  20  21
HETATM   21  C   UNL     1     -11.157  13.980  66.395  1.00  0.00    -0.316 A  
HETATM   22  C   UNL     1     -10.357  16.315  66.169  1.00  0.00    -0.352 A  
HETATM   23  C   UNL     1     -10.485  15.117  66.895  1.00  0.00    -0.282 A  
HETATM   24  C   UNL     1     -11.515  15.320  64.349  1.00  0.00    -0.244 A  
HETATM   25  C   UNL     1     -11.649  14.104  65.074  1.00  0.00    -0.362 A  
HETATM   26  C   UNL     1     -10.891  16.427  64.907  1.00  0.00    -0.268 A  
HETATM   27  C   UNL     1     -12.374  13.032  64.352  1.00  0.00    -0.376 C  
HETATM   28  O   UNL     1     -11.912  12.985  63.082  1.00  0.00    -0.534 OA 
HETATM   29  O   UNL     1     -13.295  12.355  64.765  1.00  0.00    -0.718 OA 
ENDBRANCH  20  21
ENDBRANCH  14  15
ENDBRANCH   8  14
BRANCH  11  30
HETATM   30  C   UNL     1      -6.686  12.566  69.127  1.00  0.00    -0.089 A  
HETATM   31  C   UNL     1      -6.836  15.538  67.214  1.00  0.00    -0.168 A  
HETATM   32  C   UNL     1      -6.191  16.755  67.471  1.00  0.00    -0.188 A  
HETATM   33  N   UNL     1      -7.171  13.202  68.072  1.00  0.00    -0.109 NA 
HETATM   34  C   UNL     1      -5.226  13.155  71.121  1.00  0.00    -0.178 C  
HETATM   35  C   UNL     1      -6.645  14.468  68.102  1.00  0.00    -0.136 A  
HETATM   36  C   UNL     1      -5.369  16.901  68.587  1.00  0.00    -0.124 A  
HETATM   37  N   UNL     1      -5.869  13.423  69.855  1.00  0.00    -0.118 NA 
HETATM   38  C   UNL     1      -5.822  14.638  69.207  1.00  0.00    -0.101 A  
HETATM   39  C   UNL     1      -5.165  15.845  69.480  1.00  0.00    -0.109 A  
ENDBRANCH  11  30
ENDBRANCH   3   4
ENDBRANCH   2   3
TORSDOF 6
ENDMDL
MODEL       48
REMARK 921   NORMALIZED FREE ENERGY PREDICTED BY IDOCK:   -5.69 KCAL/MOL
REMARK 922        TOTAL FREE ENERGY PREDICTED BY IDOCK:   -9.69 KCAL/MOL
REMARK 923 INTER-LIGAND FREE ENERGY PREDICTED BY IDOCK:   -7.95 KCAL/MOL
REMARK 924 INTRA-LIGAND FREE ENERGY PREDICTED BY IDOCK:   -1.73 KCAL/MOL
REMARK 927      BINDING AFFINITY PREDICTED BY RF-SCORE:    0.00 PKD
ROOT
HETATM    1  C   UNL     1      -7.336  10.034  62.588  1.00  0.00    -0.133 C  
HETATM    2  C   UNL     1      -7.987   8.677  62.358  1.00  0.00    -0.149 C  
ENDROOT
BRANCH   2   3
HETATM    3  C   UNL     1      -7.089   7.490  62.734  1.00  0.00    -0.078 C  
BRANCH   3   4
HETATM    4  C   UNL     1      -7.649   6.692  63.866  1.00  0.00    -0.108 A  
HETATM    5  N   UNL     1      -8.337   5.578  63.696  1.00  0.00    -0.107 NA 
HETATM    6  C   UNL     1      -8.775   5.198  64.936  1.00  0.00    -0.140 A  
HETATM    7  C   UNL     1      -8.310   6.082  65.898  1.00  0.00    -0.138 A  
HETATM    8  N   UNL     1      -7.542   7.000  65.210  1.00  0.00    -0.092 NA 
HETATM    9  C   UNL     1      -8.655   5.969  67.246  1.00  0.00    -0.106 A  
HETATM   10  C   UNL     1      -9.608   4.123  65.304  1.00  0.00    -0.186 A  
HETATM   11  C   UNL     1      -9.411   4.865  67.655  1.00  0.00    -0.166 A  
HETATM   12  C   UNL     1     -10.185   3.184  64.287  1.00  0.00    -0.095 C  
HETATM   13  C   UNL     1      -9.899   3.975  66.681  1.00  0.00    -0.169 A  
BRANCH   8  14
HETATM   14  C   UNL     1      -6.918   8.171  65.826  1.00  0.00    -0.064 C  
BRANCH  14  15
HETATM   15  C   UNL     1      -7.810   9.383  66.038  1.00  0.00    -0.099 A  
HETATM   16  C   UNL     1      -9.182   9.386  65.789  1.00  0.00    -0.276 A  
HETATM   17  C   UNL     1      -8.091  11.606  67.065  1.00  0.00    -0.164 A  
HETATM   18  C   UNL     1      -7.276  10.529  66.656  1.00  0.00    -0.119 A  
HETATM   19  C   UNL     1      -9.982  10.486  66.163  1.00  0.00    -0.286 A  
HETATM   20  C   UNL     1      -9.476  11.617  66.841  1.00  0.00    -0.195 A  
BRANCH  20  21
HETATM   21  C   UNL     1     -10.401  12.698  67.330  1.00  0.00    -0.230 A  
HETATM   22  C   UNL     1     -11.755  13.567  69.214  1.00  0.00    -0.382 A  
HETATM   23  C   UNL     1     -10.855  12.636  68.666  1.00  0.00    -0.281 A  
HETATM   24  C   UNL     1     -11.781  14.740  67.149  1.00  0.00    -0.351 A  
HETATM   25  C   UNL     1     -10.869  13.805  66.585  1.00  0.00    -0.288 A  
HETATM   26  C   UNL     1     -12.237  14.604  68.452  1.00  0.00    -0.129 A  
HETATM   27  C   UNL     1     -10.511  14.069  65.171  1.00  0.00    -0.397 C  
HETATM   28  O   UNL     1     -10.255  15.390  65.036  1.00  0.00    -0.357 OA 
HETATM   29  O   UNL     1     -10.525  13.282  64.246  1.00  0.00    -0.424 OA 
ENDBRANCH  20  21
ENDBRANCH  14  15
ENDBRANCH   8  14
BRANCH  11  30
HETATM   30  C   UNL     1      -9.723   4.636  69.076  1.00  0.00    -0.172 A  
HETATM   31  C   UNL     1      -9.884   2.788  72.088  1.00  0.00    -0.239 A  
HETATM   32  C   UNL     1     -10.332   3.230  73.340  1.00  0.00    -0.241 A  
HETATM   33  N   UNL     1      -9.507   3.493  69.708  1.00  0.00    -0.178 NA 
HETATM   34  C   UNL     1     -10.508   6.968  69.706  1.00  0.00    -0.219 C  
HETATM   35  C   UNL     1      -9.900   3.683  71.007  1.00  0.00    -0.115 A  
HETATM   36  C   UNL     1     -10.790   4.535  73.511  1.00  0.00    -0.360 A  
HETATM   37  N   UNL     1     -10.230   5.574  69.967  1.00  0.00    -0.242 NA 
HETATM   38  C   UNL     1     -10.362   4.978  71.202  1.00  0.00    -0.184 A  
HETATM   39  C   UNL     1     -10.816   5.439  72.444  1.00  0.00    -0.297 A  
ENDBRANCH  11  30
ENDBRANCH   3   4
ENDBRANCH   2   3
TORSDOF 6
ENDMDL
MODEL       49
REMARK 921   NORMALIZED FREE ENERGY PREDICTED BY IDOCK:   -5.68 KCAL/MOL
REMARK 922        TOTAL FREE ENERGY PREDICTED BY IDOCK:   -9.67 KCAL/MOL
REMARK 923 INTER-LIGAND FREE ENERGY PREDICTED BY IDOCK:   -8.00 KCAL/MOL
REMARK 924 INTRA-LIGAND FREE ENERGY PREDICTED BY IDOCK:   -1.66 KCAL/MOL
REMARK 927      BINDING AFFINITY PREDICTED BY RF-SCORE:    0.00 PKD
ROOT
HETATM    1  C   UNL     1      -9.621  15.539  69.479  1.00  0.00    -0.278 C  
HETATM    2  C   UNL     1     -10.634  15.378  68.353  1.00  0.00    -0.247 C  
ENDROOT
BRANCH   2   3
HETATM    3  C   UNL     1     -10.525  14.038  67.612  1.00  0.00    -0.245 C  
BRANCH   3   4
HETATM    4  C   UNL     1     -10.837  12.875  68.497  1.00  0.00    -0.257 A  
HETATM    5  N   UNL     1     -11.871  12.847  69.317  1.00  0.00    -0.314 NA 
HETATM    6  C   UNL     1     -11.767  11.685  70.034  1.00  0.00    -0.321 A  
HETATM    7  C   UNL     1     -10.661  10.962  69.614  1.00  0.00    -0.129 A  
HETATM    8  N   UNL     1     -10.107  11.704  68.591  1.00  0.00    -0.213 NA 
HETATM    9  C   UNL     1     -10.280   9.761  70.215  1.00  0.00    -0.346 A  
HETATM   10  C   UNL     1     -12.569  11.204  71.088  1.00  0.00    -0.513 A  
HETATM   11  C   UNL     1     -11.104   9.217  71.208  1.00  0.00    -0.427 A  
HETATM   12  C   UNL     1     -13.736  11.987  71.616  1.00  0.00     0.372 C  
HETATM   13  C   UNL     1     -12.217   9.954  71.649  1.00  0.00    -0.482 A  
BRANCH   8  14
HETATM   14  C   UNL     1      -8.863  11.352  67.904  1.00  0.00    -0.149 C  
BRANCH  14  15
HETATM   15  C   UNL     1      -8.798   9.966  67.286  1.00  0.00    -0.138 A  
HETATM   16  C   UNL     1      -9.501   9.596  66.141  1.00  0.00    -0.274 A  
HETATM   17  C   UNL     1      -7.616   7.807  67.139  1.00  0.00    -0.100 A  
HETATM   18  C   UNL     1      -7.872   9.033  67.790  1.00  0.00    -0.101 A  
HETATM   19  C   UNL     1      -9.270   8.349  65.521  1.00  0.00    -0.057 A  
HETATM   20  C   UNL     1      -8.300   7.427  65.974  1.00  0.00    -0.143 A  
BRANCH  20  21
HETATM   21  C   UNL     1      -8.008   6.175  65.195  1.00  0.00    -0.117 A  
HETATM   22  C   UNL     1      -6.623   5.104  63.441  1.00  0.00    -0.026 A  
HETATM   23  C   UNL     1      -6.954   6.202  64.255  1.00  0.00    -0.051 A  
HETATM   24  C   UNL     1      -8.339   3.832  64.481  1.00  0.00    -0.097 A  
HETATM   25  C   UNL     1      -8.681   4.936  65.310  1.00  0.00    -0.146 A  
HETATM   26  C   UNL     1      -7.328   3.928  63.535  1.00  0.00    -0.051 A  
HETATM   27  C   UNL     1      -9.808   4.683  66.239  1.00  0.00    -0.226 C  
HETATM   28  O   UNL     1      -9.625   3.472  66.811  1.00  0.00    -0.193 OA 
HETATM   29  O   UNL     1     -10.791   5.375  66.413  1.00  0.00    -0.284 OA 
ENDBRANCH  20  21
ENDBRANCH  14  15
ENDBRANCH   8  14
BRANCH  11  30
HETATM   30  C   UNL     1     -10.809   7.905  71.810  1.00  0.00    -0.237 A  
HETATM   31  C   UNL     1      -9.932   5.671  74.408  1.00  0.00    -0.262 A  
HETATM   32  C   UNL     1      -9.845   4.273  74.342  1.00  0.00    -0.173 A  
HETATM   33  N   UNL     1     -10.462   7.731  73.076  1.00  0.00    -0.349 NA 
HETATM   34  C   UNL     1     -11.340   6.412  69.825  1.00  0.00    -0.427 C  
HETATM   35  C   UNL     1     -10.299   6.383  73.256  1.00  0.00    -0.233 A  
HETATM   36  C   UNL     1     -10.114   3.600  73.152  1.00  0.00    -0.214 A  
HETATM   37  N   UNL     1     -10.897   6.672  71.176  1.00  0.00    -0.234 NA 
HETATM   38  C   UNL     1     -10.562   5.689  72.081  1.00  0.00    -0.223 A  
HETATM   39  C   UNL     1     -10.478   4.294  71.994  1.00  0.00    -0.096 A  
ENDBRANCH  11  30
ENDBRANCH   3   4
ENDBRANCH   2   3
TORSDOF 6
ENDMDL
MODEL       50
REMARK 921   NORMALIZED FREE ENERGY PREDICTED BY IDOCK:   -5.67 KCAL/MOL
REMARK 922        TOTAL FREE ENERGY PREDICTED BY IDOCK:   -9.66 KCAL/MOL
REMARK 923 INTER-LIGAND FREE ENERGY PREDICTED BY IDOCK:   -8.17 KCAL/MOL
REMARK 924 INTRA-LIGAND FREE ENERGY PREDICTED BY IDOCK:   -1.49 KCAL/MOL
REMARK 927      BINDING AFFINITY PREDICTED BY RF-SCORE:    0.00 PKD
ROOT
HETATM    1  C   UNL     1     -12.399  16.134  72.680  1.00  0.00    -0.574 C  
HETATM    2  C   UNL     1     -13.174  14.885  73.077  1.00  0.00    -0.596 C  
ENDROOT
BRANCH   2   3
HETATM    3  C   UNL     1     -13.864  14.186  71.897  1.00  0.00    -0.539 C  
BRANCH   3   4
HETATM    4  C   UNL     1     -13.343  12.804  71.674  1.00  0.00    -0.254 A  
HETATM    5  N   UNL     1     -13.881  11.730  72.224  1.00  0.00     0.086 NA 
HETATM    6  C   UNL     1     -13.076  10.676  71.884  1.00  0.00    -0.458 A  
HETATM    7  C   UNL     1     -12.039  11.109  71.072  1.00  0.00    -0.275 A  
HETATM    8  N   UNL     1     -12.253  12.460  70.895  1.00  0.00    -0.298 NA 
HETATM    9  C   UNL     1     -11.032  10.252  70.624  1.00  0.00    -0.287 A  
HETATM   10  C   UNL     1     -13.156   9.323  72.270  1.00  0.00    -0.517 A  
HETATM   11  C   UNL     1     -11.131   8.888  70.921  1.00  0.00    -0.328 A  
HETATM   12  C   UNL     1     -14.224   8.827  73.200  1.00  0.00     0.507 C  
HETATM   13  C   UNL     1     -12.171   8.447  71.759  1.00  0.00    -0.377 A  
BRANCH   8  14
HETATM   14  C   UNL     1     -11.345  13.345  70.165  1.00  0.00     0.144 C  
BRANCH  14  15
HETATM   15  C   UNL     1     -10.994  12.935  68.745  1.00  0.00    -0.292 A  
HETATM   16  C   UNL     1      -9.754  13.176  68.154  1.00  0.00    -0.228 A  
HETATM   17  C   UNL     1     -11.552  11.556  66.779  1.00  0.00    -0.133 A  
HETATM   18  C   UNL     1     -11.898  12.139  68.018  1.00  0.00    -0.351 A  
HETATM   19  C   UNL     1      -9.434  12.624  66.895  1.00  0.00    -0.229 A  
HETATM   20  C   UNL     1     -10.303  11.771  66.180  1.00  0.00    -0.266 A  
BRANCH  20  21
HETATM   21  C   UNL     1      -9.852  11.108  64.907  1.00  0.00    -0.316 A  
HETATM   22  C   UNL     1      -9.544  11.326  62.458  1.00  0.00    -0.116 A  
HETATM   23  C   UNL     1      -9.898  11.857  63.710  1.00  0.00    -0.309 A  
HETATM   24  C   UNL     1      -9.006   9.260  63.501  1.00  0.00    -0.069 A  
HETATM   25  C   UNL     1      -9.361   9.788  64.773  1.00  0.00    -0.327 A  
HETATM   26  C   UNL     1      -9.120  10.022  62.347  1.00  0.00    -0.310 A  
HETATM   27  C   UNL     1      -9.219   8.835  65.898  1.00  0.00    -0.220 C  
HETATM   28  O   UNL     1      -8.035   8.194  65.767  1.00  0.00    -0.094 OA 
HETATM   29  O   UNL     1     -10.040   8.576  66.756  1.00  0.00    -0.251 OA 
ENDBRANCH  20  21
ENDBRANCH  14  15
ENDBRANCH   8  14
BRANCH  11  30
HETATM   30  C   UNL     1     -10.155   7.918  70.394  1.00  0.00    -0.194 A  
HETATM   31  C   UNL     1      -6.964   6.444  69.995  1.00  0.00    -0.066 A  
HETATM   32  C   UNL     1      -6.636   5.302  69.252  1.00  0.00    -0.047 A  
HETATM   33  N   UNL     1      -8.863   7.936  70.682  1.00  0.00    -0.138 NA 
HETATM   34  C   UNL     1     -11.735   6.396  69.114  1.00  0.00     0.227 C  
HETATM   35  C   UNL     1      -8.300   6.872  70.026  1.00  0.00    -0.139 A  
HETATM   36  C   UNL     1      -7.618   4.604  68.551  1.00  0.00    -0.069 A  
HETATM   37  N   UNL     1     -10.436   6.832  69.574  1.00  0.00    -0.208 NA 
HETATM   38  C   UNL     1      -9.260   6.160  69.320  1.00  0.00    -0.132 A  
HETATM   39  C   UNL     1      -8.953   5.019  68.569  1.00  0.00    -0.125 A  
ENDBRANCH  11  30
ENDBRANCH   3   4
ENDBRANCH   2   3
TORSDOF 6
ENDMDL
MODEL       51
REMARK 921   NORMALIZED FREE ENERGY PREDICTED BY IDOCK:   -5.66 KCAL/MOL
REMARK 922        TOTAL FREE ENERGY PREDICTED BY IDOCK:   -9.64 KCAL/MOL
REMARK 923 INTER-LIGAND FREE ENERGY PREDICTED BY IDOCK:   -9.03 KCAL/MOL
REMARK 924 INTRA-LIGAND FREE ENERGY PREDICTED BY IDOCK:   -0.61 KCAL/MOL
REMARK 927      BINDING AFFINITY PREDICTED BY RF-SCORE:    0.00 PKD
ROOT
HETATM    1  C   UNL     1     -11.991  15.499  68.807  1.00  0.00    -0.265 C  
HETATM    2  C   UNL     1     -12.051  15.104  70.277  1.00  0.00    -0.385 C  
ENDROOT
BRANCH   2   3
HETATM    3  C   UNL     1     -12.592  13.687  70.512  1.00  0.00    -0.337 C  
BRANCH   3   4
HETATM    4  C   UNL     1     -11.876  12.663  69.691  1.00  0.00    -0.311 A  
HETATM    5  N   UNL     1     -11.324  12.931  68.522  1.00  0.00    -0.267 NA 
HETATM    6  C   UNL     1     -10.867  11.740  68.026  1.00  0.00    -0.213 A  
HETATM    7  C   UNL     1     -11.111  10.720  68.933  1.00  0.00    -0.253 A  
HETATM    8  N   UNL     1     -11.702  11.332  70.020  1.00  0.00    -0.323 NA 
HETATM    9  C   UNL     1     -10.802   9.386  68.661  1.00  0.00    -0.149 A  
HETATM   10  C   UNL     1     -10.265  11.455  66.784  1.00  0.00    -0.258 A  
HETATM   11  C   UNL     1     -10.127   9.084  67.472  1.00  0.00    -0.285 A  
HETATM   12  C   UNL     1     -10.044  12.517  65.749  1.00  0.00    -0.278 C  
HETATM   13  C   UNL     1      -9.893  10.112  66.541  1.00  0.00    -0.268 A  
BRANCH   8  14
HETATM   14  C   UNL     1     -12.207  10.613  71.190  1.00  0.00    -0.374 C  
BRANCH  14  15
HETATM   15  C   UNL     1     -11.699   9.194  71.386  1.00  0.00    -0.413 A  
HETATM   16  C   UNL     1     -12.461   8.056  71.125  1.00  0.00    -0.206 A  
HETATM   17  C   UNL     1      -9.761   7.703  71.700  1.00  0.00    -0.191 A  
HETATM   18  C   UNL     1     -10.343   8.989  71.705  1.00  0.00    -0.420 A  
HETATM   19  C   UNL     1     -11.880   6.772  71.165  1.00  0.00    -0.410 A  
HETATM   20  C   UNL     1     -10.508   6.549  71.420  1.00  0.00    -0.246 A  
BRANCH  20  21
HETATM   21  C   UNL     1      -9.922   5.168  71.319  1.00  0.00    -0.257 A  
HETATM   22  C   UNL     1      -9.092   3.376  69.823  1.00  0.00    -0.198 A  
HETATM   23  C   UNL     1      -9.602   4.669  70.037  1.00  0.00    -0.259 A  
HETATM   24  C   UNL     1      -9.120   2.989  72.166  1.00  0.00    -0.143 A  
HETATM   25  C   UNL     1      -9.635   4.295  72.395  1.00  0.00    -0.194 A  
HETATM   26  C   UNL     1      -8.872   2.527  70.882  1.00  0.00    -0.136 A  
HETATM   27  C   UNL     1      -9.881   4.620  73.820  1.00  0.00    -0.144 C  
HETATM   28  O   UNL     1      -8.816   4.206  74.542  1.00  0.00    -0.097 OA 
HETATM   29  O   UNL     1     -10.890   5.090  74.307  1.00  0.00    -0.320 OA 
ENDBRANCH  20  21
ENDBRANCH  14  15
ENDBRANCH   8  14
BRANCH  11  30
HETATM   30  C   UNL     1      -9.685   7.711  67.173  1.00  0.00    -0.183 A  
HETATM   31  C   UNL     1     -10.035   4.391  66.002  1.00  0.00    -0.256 A  
HETATM   32  C   UNL     1      -9.048   3.399  65.935  1.00  0.00    -0.154 A  
HETATM   33  N   UNL     1     -10.467   6.777  66.654  1.00  0.00    -0.187 NA 
HETATM   34  C   UNL     1      -7.228   7.928  67.776  1.00  0.00    -0.091 C  
HETATM   35  C   UNL     1      -9.693   5.656  66.504  1.00  0.00    -0.160 A  
HETATM   36  C   UNL     1      -7.748   3.660  66.364  1.00  0.00    -0.085 A  
HETATM   37  N   UNL     1      -8.401   7.208  67.335  1.00  0.00    -0.119 NA 
HETATM   38  C   UNL     1      -8.391   5.892  66.924  1.00  0.00    -0.108 A  
HETATM   39  C   UNL     1      -7.390   4.914  66.869  1.00  0.00    -0.085 A  
ENDBRANCH  11  30
ENDBRANCH   3   4
ENDBRANCH   2   3
TORSDOF 6
ENDMDL
MODEL       52
REMARK 921   NORMALIZED FREE ENERGY PREDICTED BY IDOCK:   -5.65 KCAL/MOL
REMARK 922        TOTAL FREE ENERGY PREDICTED BY IDOCK:   -9.63 KCAL/MOL
REMARK 923 INTER-LIGAND FREE ENERGY PREDICTED BY IDOCK:   -7.91 KCAL/MOL
REMARK 924 INTRA-LIGAND FREE ENERGY PREDICTED BY IDOCK:   -1.71 KCAL/MOL
REMARK 927      BINDING AFFINITY PREDICTED BY RF-SCORE:    0.00 PKD
ROOT
HETATM    1  C   UNL     1      -6.558   8.570  62.355  1.00  0.00    -0.095 C  
HETATM    2  C   UNL     1      -7.293   7.253  62.560  1.00  0.00    -0.091 C  
ENDROOT
BRANCH   2   3
HETATM    3  C   UNL     1      -6.408   6.134  63.127  1.00  0.00    -0.025 C  
BRANCH   3   4
HETATM    4  C   UNL     1      -7.007   5.497  64.339  1.00  0.00    -0.048 A  
HETATM    5  N   UNL     1      -7.603   4.319  64.317  1.00  0.00    -0.071 NA 
HETATM    6  C   UNL     1      -8.117   4.121  65.571  1.00  0.00    -0.101 A  
HETATM    7  C   UNL     1      -7.792   5.188  66.394  1.00  0.00    -0.103 A  
HETATM    8  N   UNL     1      -7.032   6.034  65.613  1.00  0.00    -0.059 NA 
HETATM    9  C   UNL     1      -8.239   5.278  67.713  1.00  0.00    -0.099 A  
HETATM   10  C   UNL     1      -8.905   3.061  66.061  1.00  0.00    -0.142 A  
HETATM   11  C   UNL     1      -8.953   4.202  68.254  1.00  0.00    -0.154 A  
HETATM   12  C   UNL     1      -9.333   1.921  65.186  1.00  0.00    -0.032 C  
HETATM   13  C   UNL     1      -9.299   3.125  67.418  1.00  0.00    -0.232 A  
BRANCH   8  14
HETATM   14  C   UNL     1      -6.539   7.339  66.057  1.00  0.00    -0.052 C  
BRANCH  14  15
HETATM   15  C   UNL     1      -7.536   8.485  66.031  1.00  0.00    -0.085 A  
HETATM   16  C   UNL     1      -7.187   9.807  65.759  1.00  0.00    -0.104 A  
HETATM   17  C   UNL     1      -9.896   9.188  65.916  1.00  0.00    -0.305 A  
HETATM   18  C   UNL     1      -8.910   8.202  66.136  1.00  0.00    -0.194 A  
HETATM   19  C   UNL     1      -8.178  10.795  65.583  1.00  0.00    -0.127 A  
HETATM   20  C   UNL     1      -9.563  10.519  65.622  1.00  0.00    -0.278 A  
BRANCH  20  21
HETATM   21  C   UNL     1     -10.569  11.588  65.296  1.00  0.00    -0.339 A  
HETATM   22  C   UNL     1     -11.844  12.760  63.524  1.00  0.00    -0.618 A  
HETATM   23  C   UNL     1     -10.947  11.763  63.946  1.00  0.00    -0.476 A  
HETATM   24  C   UNL     1     -12.111  13.458  65.778  1.00  0.00    -0.481 A  
HETATM   25  C   UNL     1     -11.206  12.453  66.217  1.00  0.00    -0.361 A  
HETATM   26  C   UNL     1     -12.409  13.623  64.433  1.00  0.00    -0.387 A  
HETATM   27  C   UNL     1     -10.966  12.435  67.679  1.00  0.00    -0.236 C  
HETATM   28  O   UNL     1     -12.157  12.558  68.308  1.00  0.00    -0.284 OA 
HETATM   29  O   UNL     1      -9.894  12.411  68.252  1.00  0.00    -0.218 OA 
ENDBRANCH  20  21
ENDBRANCH  14  15
ENDBRANCH   8  14
BRANCH  11  30
HETATM   30  C   UNL     1      -9.365   4.193  69.669  1.00  0.00    -0.171 A  
HETATM   31  C   UNL     1      -9.364   3.071  73.023  1.00  0.00    -0.122 A  
HETATM   32  C   UNL     1     -10.081   3.602  74.104  1.00  0.00    -0.204 A  
HETATM   33  N   UNL     1      -8.905   3.339  70.570  1.00  0.00    -0.076 NA 
HETATM   34  C   UNL     1     -10.880   6.232  69.669  1.00  0.00    -0.339 C  
HETATM   35  C   UNL     1      -9.503   3.664  71.759  1.00  0.00    -0.141 A  
HETATM   36  C   UNL     1     -10.923   4.699  73.927  1.00  0.00    -0.333 A  
HETATM   37  N   UNL     1     -10.239   5.087  70.275  1.00  0.00    -0.266 NA 
HETATM   38  C   UNL     1     -10.348   4.756  71.608  1.00  0.00    -0.145 A  
HETATM   39  C   UNL     1     -11.076   5.300  72.674  1.00  0.00    -0.319 A  
ENDBRANCH  11  30
ENDBRANCH   3   4
ENDBRANCH   2   3
TORSDOF 6
ENDMDL
MODEL       53
REMARK 921   NORMALIZED FREE ENERGY PREDICTED BY IDOCK:   -5.64 KCAL/MOL
REMARK 922        TOTAL FREE ENERGY PREDICTED BY IDOCK:   -9.62 KCAL/MOL
REMARK 923 INTER-LIGAND FREE ENERGY PREDICTED BY IDOCK:   -8.50 KCAL/MOL
REMARK 924 INTRA-LIGAND FREE ENERGY PREDICTED BY IDOCK:   -1.12 KCAL/MOL
REMARK 927      BINDING AFFINITY PREDICTED BY RF-SCORE:    0.00 PKD
ROOT
HETATM    1  C   UNL     1      -8.120   2.468  62.930  1.00  0.00    -0.069 C  
HETATM    2  C   UNL     1      -8.344   2.572  64.432  1.00  0.00    -0.083 C  
ENDROOT
BRANCH   2   3
HETATM    3  C   UNL     1      -7.278   3.404  65.159  1.00  0.00    -0.067 C  
BRANCH   3   4
HETATM    4  C   UNL     1      -7.529   4.873  65.042  1.00  0.00    -0.076 A  
HETATM    5  N   UNL     1      -6.612   5.734  64.640  1.00  0.00    -0.041 NA 
HETATM    6  C   UNL     1      -7.166   6.979  64.767  1.00  0.00    -0.072 A  
HETATM    7  C   UNL     1      -8.472   6.877  65.221  1.00  0.00    -0.055 A  
HETATM    8  N   UNL     1      -8.713   5.523  65.337  1.00  0.00    -0.154 NA 
HETATM    9  C   UNL     1      -9.258   7.997  65.498  1.00  0.00     0.092 A  
HETATM   10  C   UNL     1      -6.591   8.246  64.544  1.00  0.00    -0.065 A  
HETATM   11  C   UNL     1      -8.744   9.266  65.207  1.00  0.00    -0.214 A  
HETATM   12  C   UNL     1      -5.162   8.402  64.116  1.00  0.00    -0.044 C  
HETATM   13  C   UNL     1      -7.414   9.376  64.762  1.00  0.00    -0.107 A  
BRANCH   8  14
HETATM   14  C   UNL     1      -9.953   4.954  65.867  1.00  0.00    -0.203 C  
BRANCH  14  15
HETATM   15  C   UNL     1     -10.148   5.037  67.372  1.00  0.00    -0.213 A  
HETATM   16  C   UNL     1      -9.504   4.200  68.283  1.00  0.00    -0.213 A  
HETATM   17  C   UNL     1     -10.947   6.353  69.297  1.00  0.00    -0.418 A  
HETATM   18  C   UNL     1     -10.896   6.100  67.909  1.00  0.00    -0.406 A  
HETATM   19  C   UNL     1      -9.595   4.435  69.671  1.00  0.00    -0.275 A  
HETATM   20  C   UNL     1     -10.289   5.533  70.226  1.00  0.00    -0.349 A  
BRANCH  20  21
HETATM   21  C   UNL     1     -10.240   5.804  71.705  1.00  0.00    -0.253 A  
HETATM   22  C   UNL     1     -10.685   4.938  73.983  1.00  0.00    -0.354 A  
HETATM   23  C   UNL     1     -10.648   4.779  72.587  1.00  0.00    -0.271 A  
HETATM   24  C   UNL     1      -9.848   7.148  73.742  1.00  0.00    -0.355 A  
HETATM   25  C   UNL     1      -9.805   6.998  72.328  1.00  0.00    -0.170 A  
HETATM   26  C   UNL     1     -10.308   6.127  74.561  1.00  0.00    -0.242 A  
HETATM   27  C   UNL     1      -9.326   8.193  71.595  1.00  0.00    -0.174 C  
HETATM   28  O   UNL     1      -8.234   8.674  72.231  1.00  0.00    -0.314 OA 
HETATM   29  O   UNL     1      -9.850   8.734  70.641  1.00  0.00    -0.174 OA 
ENDBRANCH  20  21
ENDBRANCH  14  15
ENDBRANCH   8  14
BRANCH  11  30
HETATM   30  C   UNL     1      -9.560  10.479  65.382  1.00  0.00    -0.237 A  
HETATM   31  C   UNL     1     -12.173  12.745  64.643  1.00  0.00    -0.510 A  
HETATM   32  C   UNL     1     -12.515  13.914  65.337  1.00  0.00    -0.528 A  
HETATM   33  N   UNL     1     -10.581  10.805  64.605  1.00  0.00    -0.283 NA 
HETATM   34  C   UNL     1      -8.498  11.387  67.504  1.00  0.00    -0.137 C  
HETATM   35  C   UNL     1     -11.092  11.977  65.099  1.00  0.00    -0.318 A  
HETATM   36  C   UNL     1     -11.791  14.310  66.460  1.00  0.00    -0.433 A  
HETATM   37  N   UNL     1      -9.423  11.422  66.393  1.00  0.00    -0.198 NA 
HETATM   38  C   UNL     1     -10.386  12.392  66.221  1.00  0.00    -0.244 A  
HETATM   39  C   UNL     1     -10.709  13.558  66.927  1.00  0.00    -0.274 A  
ENDBRANCH  11  30
ENDBRANCH   3   4
ENDBRANCH   2   3
TORSDOF 6
ENDMDL
MODEL       54
REMARK 921   NORMALIZED FREE ENERGY PREDICTED BY IDOCK:   -5.63 KCAL/MOL
REMARK 922        TOTAL FREE ENERGY PREDICTED BY IDOCK:   -9.61 KCAL/MOL
REMARK 923 INTER-LIGAND FREE ENERGY PREDICTED BY IDOCK:   -8.94 KCAL/MOL
REMARK 924 INTRA-LIGAND FREE ENERGY PREDICTED BY IDOCK:   -0.67 KCAL/MOL
REMARK 927      BINDING AFFINITY PREDICTED BY RF-SCORE:    0.00 PKD
ROOT
HETATM    1  C   UNL     1      -9.873  18.029  68.527  1.00  0.00    -0.383 C  
HETATM    2  C   UNL     1     -10.629  16.925  69.254  1.00  0.00    -0.325 C  
ENDROOT
BRANCH   2   3
HETATM    3  C   UNL     1     -11.519  16.078  68.334  1.00  0.00    -0.331 C  
BRANCH   3   4
HETATM    4  C   UNL     1     -11.634  14.664  68.804  1.00  0.00    -0.317 A  
HETATM    5  N   UNL     1     -12.373  14.302  69.837  1.00  0.00    -0.340 NA 
HETATM    6  C   UNL     1     -12.144  12.967  70.030  1.00  0.00    -0.286 A  
HETATM    7  C   UNL     1     -11.271  12.487  69.066  1.00  0.00    -0.268 A  
HETATM    8  N   UNL     1     -10.998  13.568  68.251  1.00  0.00    -0.249 NA 
HETATM    9  C   UNL     1     -10.815  11.168  69.058  1.00  0.00    -0.276 A  
HETATM   10  C   UNL     1     -12.624  12.109  71.040  1.00  0.00    -0.359 A  
HETATM   11  C   UNL     1     -11.339  10.272  69.997  1.00  0.00    -0.370 A  
HETATM   12  C   UNL     1     -13.517  12.603  72.139  1.00  0.00    -0.561 C  
HETATM   13  C   UNL     1     -12.211  10.757  70.988  1.00  0.00    -0.485 A  
BRANCH   8  14
HETATM   14  C   UNL     1     -10.047  13.535  67.139  1.00  0.00    -0.245 C  
BRANCH  14  15
HETATM   15  C   UNL     1      -9.426  12.187  66.816  1.00  0.00    -0.213 A  
HETATM   16  C   UNL     1      -8.184  11.773  67.296  1.00  0.00    -0.163 A  
HETATM   17  C   UNL     1      -9.752   9.895  65.968  1.00  0.00    -0.310 A  
HETATM   18  C   UNL     1     -10.188  11.229  66.122  1.00  0.00    -0.291 A  
HETATM   19  C   UNL     1      -7.738  10.449  67.100  1.00  0.00    -0.100 A  
HETATM   20  C   UNL     1      -8.514   9.456  66.461  1.00  0.00    -0.137 A  
BRANCH  20  21
HETATM   21  C   UNL     1      -8.039   8.031  66.400  1.00  0.00    -0.107 A  
HETATM   22  C   UNL     1      -7.986   5.921  65.102  1.00  0.00    -0.121 A  
HETATM   23  C   UNL     1      -8.342   7.273  65.247  1.00  0.00    -0.110 A  
HETATM   24  C   UNL     1      -6.936   5.982  67.232  1.00  0.00    -0.069 A  
HETATM   25  C   UNL     1      -7.290   7.350  67.388  1.00  0.00    -0.102 A  
HETATM   26  C   UNL     1      -7.305   5.267  66.101  1.00  0.00    -0.081 A  
HETATM   27  C   UNL     1      -6.855   7.958  68.668  1.00  0.00    -0.063 C  
HETATM   28  O   UNL     1      -5.577   7.585  68.904  1.00  0.00    -0.021 OA 
HETATM   29  O   UNL     1      -7.529   8.604  69.446  1.00  0.00    -0.077 OA 
ENDBRANCH  20  21
ENDBRANCH  14  15
ENDBRANCH   8  14
BRANCH  11  30
HETATM   30  C   UNL     1     -10.974   8.845  69.978  1.00  0.00    -0.206 A  
HETATM   31  C   UNL     1     -10.294   5.708  68.493  1.00  0.00    -0.265 A  
HETATM   32  C   UNL     1      -9.879   4.531  69.131  1.00  0.00    -0.222 A  
HETATM   33  N   UNL     1     -10.904   8.112  68.878  1.00  0.00    -0.047 NA 
HETATM   34  C   UNL     1     -10.453   8.520  72.443  1.00  0.00    -0.297 C  
HETATM   35  C   UNL     1     -10.514   6.857  69.267  1.00  0.00    -0.214 A  
HETATM   36  C   UNL     1      -9.691   4.499  70.512  1.00  0.00    -0.290 A  
HETATM   37  N   UNL     1     -10.605   8.077  71.076  1.00  0.00    -0.211 NA 
HETATM   38  C   UNL     1     -10.320   6.801  70.641  1.00  0.00    -0.201 A  
HETATM   39  C   UNL     1      -9.909   5.635  71.298  1.00  0.00    -0.225 A  
ENDBRANCH  11  30
ENDBRANCH   3   4
ENDBRANCH   2   3
TORSDOF 6
ENDMDL
MODEL       55
REMARK 921   NORMALIZED FREE ENERGY PREDICTED BY IDOCK:   -5.59 KCAL/MOL
REMARK 922        TOTAL FREE ENERGY PREDICTED BY IDOCK:   -9.55 KCAL/MOL
REMARK 923 INTER-LIGAND FREE ENERGY PREDICTED BY IDOCK:   -8.43 KCAL/MOL
REMARK 924 INTRA-LIGAND FREE ENERGY PREDICTED BY IDOCK:   -1.12 KCAL/MOL
REMARK 927      BINDING AFFINITY PREDICTED BY RF-SCORE:    0.00 PKD
ROOT
HETATM    1  C   UNL     1     -10.314  18.075  68.298  1.00  0.00    -0.389 C  
HETATM    2  C   UNL     1     -10.479  16.674  68.872  1.00  0.00    -0.322 C  
ENDROOT
BRANCH   2   3
HETATM    3  C   UNL     1     -11.454  15.793  68.079  1.00  0.00    -0.264 C  
BRANCH   3   4
HETATM    4  C   UNL     1     -11.553  14.411  68.638  1.00  0.00    -0.314 A  
HETATM    5  N   UNL     1     -12.290  14.107  69.691  1.00  0.00    -0.309 NA 
HETATM    6  C   UNL     1     -12.044  12.790  69.971  1.00  0.00    -0.285 A  
HETATM    7  C   UNL     1     -11.161  12.261  69.042  1.00  0.00    -0.236 A  
HETATM    8  N   UNL     1     -10.900  13.290  68.160  1.00  0.00    -0.243 NA 
HETATM    9  C   UNL     1     -10.687  10.951  69.121  1.00  0.00    -0.265 A  
HETATM   10  C   UNL     1     -12.516  11.994  71.033  1.00  0.00    -0.376 A  
HETATM   11  C   UNL     1     -11.203  10.110  70.115  1.00  0.00    -0.377 A  
HETATM   12  C   UNL     1     -13.420  12.545  72.095  1.00  0.00    -0.523 C  
HETATM   13  C   UNL     1     -12.085  10.647  71.070  1.00  0.00    -0.473 A  
BRANCH   8  14
HETATM   14  C   UNL     1      -9.945  13.199  67.055  1.00  0.00    -0.244 C  
BRANCH  14  15
HETATM   15  C   UNL     1      -9.250  11.861  66.867  1.00  0.00    -0.193 A  
HETATM   16  C   UNL     1      -8.022  11.539  67.443  1.00  0.00    -0.143 A  
HETATM   17  C   UNL     1      -9.431   9.502  66.173  1.00  0.00    -0.281 A  
HETATM   18  C   UNL     1      -9.930  10.822  66.203  1.00  0.00    -0.283 A  
HETATM   19  C   UNL     1      -7.511  10.226  67.370  1.00  0.00    -0.094 A  
HETATM   20  C   UNL     1      -8.207   9.156  66.765  1.00  0.00    -0.119 A  
BRANCH  20  21
HETATM   21  C   UNL     1      -7.670   7.753  66.835  1.00  0.00    -0.103 A  
HETATM   22  C   UNL     1      -6.906   5.900  68.291  1.00  0.00    -0.067 A  
HETATM   23  C   UNL     1      -7.447   7.185  68.108  1.00  0.00    -0.099 A  
HETATM   24  C   UNL     1      -6.821   5.614  65.935  1.00  0.00    -0.057 A  
HETATM   25  C   UNL     1      -7.368   6.912  65.738  1.00  0.00    -0.079 A  
HETATM   26  C   UNL     1      -6.571   5.123  67.208  1.00  0.00    -0.053 A  
HETATM   27  C   UNL     1      -7.537   7.302  64.319  1.00  0.00    -0.116 C  
HETATM   28  O   UNL     1      -8.081   6.259  63.652  1.00  0.00    -0.114 OA 
HETATM   29  O   UNL     1      -7.175   8.333  63.787  1.00  0.00    -0.085 OA 
ENDBRANCH  20  21
ENDBRANCH  14  15
ENDBRANCH   8  14
BRANCH  11  30
HETATM   30  C   UNL     1     -10.819   8.690  70.190  1.00  0.00    -0.233 A  
HETATM   31  C   UNL     1     -10.426   5.386  68.989  1.00  0.00    -0.252 A  
HETATM   32  C   UNL     1      -9.847   4.297  69.655  1.00  0.00    -0.244 A  
HETATM   33  N   UNL     1     -10.987   7.824  69.203  1.00  0.00    -0.038 NA 
HETATM   34  C   UNL     1      -9.737   8.676  72.487  1.00  0.00    -0.188 C  
HETATM   35  C   UNL     1     -10.488   6.626  69.644  1.00  0.00    -0.213 A  
HETATM   36  C   UNL     1      -9.346   4.439  70.948  1.00  0.00    -0.218 A  
HETATM   37  N   UNL     1     -10.190   8.065  71.259  1.00  0.00    -0.190 NA 
HETATM   38  C   UNL     1      -9.982   6.742  70.932  1.00  0.00    -0.186 A  
HETATM   39  C   UNL     1      -9.403   5.666  71.616  1.00  0.00    -0.164 A  
ENDBRANCH  11  30
ENDBRANCH   3   4
ENDBRANCH   2   3
TORSDOF 6
ENDMDL
MODEL       56
REMARK 921   NORMALIZED FREE ENERGY PREDICTED BY IDOCK:   -5.58 KCAL/MOL
REMARK 922        TOTAL FREE ENERGY PREDICTED BY IDOCK:   -9.54 KCAL/MOL
REMARK 923 INTER-LIGAND FREE ENERGY PREDICTED BY IDOCK:   -8.21 KCAL/MOL
REMARK 924 INTRA-LIGAND FREE ENERGY PREDICTED BY IDOCK:   -1.33 KCAL/MOL
REMARK 927      BINDING AFFINITY PREDICTED BY RF-SCORE:    0.00 PKD
ROOT
HETATM    1  C   UNL     1     -10.134   4.052  74.305  1.00  0.00    -0.219 C  
HETATM    2  C   UNL     1     -10.152   5.180  73.283  1.00  0.00    -0.198 C  
ENDROOT
BRANCH   2   3
HETATM    3  C   UNL     1      -9.869   6.563  73.886  1.00  0.00    -0.272 C  
BRANCH   3   4
HETATM    4  C   UNL     1     -10.354   7.673  73.010  1.00  0.00    -0.335 A  
HETATM    5  N   UNL     1     -11.600   8.113  73.023  1.00  0.00    -0.231 NA 
HETATM    6  C   UNL     1     -11.694   9.042  72.023  1.00  0.00    -0.347 A  
HETATM    7  C   UNL     1     -10.463   9.205  71.405  1.00  0.00    -0.344 A  
HETATM    8  N   UNL     1      -9.600   8.368  72.083  1.00  0.00    -0.268 NA 
HETATM    9  C   UNL     1     -10.282  10.050  70.309  1.00  0.00    -0.266 A  
HETATM   10  C   UNL     1     -12.816   9.760  71.565  1.00  0.00    -0.502 A  
HETATM   11  C   UNL     1     -11.358  10.839  69.885  1.00  0.00    -0.385 A  
HETATM   12  C   UNL     1     -14.178   9.564  72.162  1.00  0.00    -0.099 C  
HETATM   13  C   UNL     1     -12.612  10.664  70.497  1.00  0.00    -0.433 A  
BRANCH   8  14
HETATM   14  C   UNL     1      -8.200   8.158  71.711  1.00  0.00    -0.130 C  
BRANCH  14  15
HETATM   15  C   UNL     1      -7.938   7.170  70.587  1.00  0.00    -0.101 A  
HETATM   16  C   UNL     1      -6.705   6.558  70.367  1.00  0.00    -0.053 A  
HETATM   17  C   UNL     1      -8.882   5.657  68.885  1.00  0.00    -0.109 A  
HETATM   18  C   UNL     1      -9.018   6.719  69.805  1.00  0.00    -0.144 A  
HETATM   19  C   UNL     1      -6.570   5.526  69.415  1.00  0.00    -0.050 A  
HETATM   20  C   UNL     1      -7.653   5.016  68.665  1.00  0.00    -0.078 A  
BRANCH  20  21
HETATM   21  C   UNL     1      -7.471   3.828  67.763  1.00  0.00    -0.067 A  
HETATM   22  C   UNL     1      -6.646   1.501  67.545  1.00  0.00    -0.028 A  
HETATM   23  C   UNL     1      -6.903   2.654  68.307  1.00  0.00    -0.047 A  
HETATM   24  C   UNL     1      -7.561   2.575  65.634  1.00  0.00    -0.076 A  
HETATM   25  C   UNL     1      -7.826   3.746  66.396  1.00  0.00    -0.089 A  
HETATM   26  C   UNL     1      -6.952   1.467  66.205  1.00  0.00    -0.042 A  
HETATM   27  C   UNL     1      -8.444   4.854  65.629  1.00  0.00    -0.124 C  
HETATM   28  O   UNL     1      -9.431   4.341  64.859  1.00  0.00    -0.156 OA 
HETATM   29  O   UNL     1      -8.093   6.017  65.597  1.00  0.00    -0.113 OA 
ENDBRANCH  20  21
ENDBRANCH  14  15
ENDBRANCH   8  14
BRANCH  11  30
HETATM   30  C   UNL     1     -11.204  11.822  68.799  1.00  0.00    -0.251 A  
HETATM   31  C   UNL     1     -11.181  15.046  67.344  1.00  0.00    -0.337 A  
HETATM   32  C   UNL     1     -10.853  15.388  66.025  1.00  0.00    -0.315 A  
HETATM   33  N   UNL     1     -11.388  13.125  68.947  1.00  0.00    -0.272 NA 
HETATM   34  C   UNL     1     -10.402  10.274  66.952  1.00  0.00    -0.239 C  
HETATM   35  C   UNL     1     -11.129  13.698  67.729  1.00  0.00    -0.272 A  
HETATM   36  C   UNL     1     -10.486  14.405  65.108  1.00  0.00    -0.437 A  
HETATM   37  N   UNL     1     -10.801  11.552  67.497  1.00  0.00    -0.222 NA 
HETATM   38  C   UNL     1     -10.760  12.737  66.796  1.00  0.00    -0.260 A  
HETATM   39  C   UNL     1     -10.432  13.057  65.473  1.00  0.00    -0.297 A  
ENDBRANCH  11  30
ENDBRANCH   3   4
ENDBRANCH   2   3
TORSDOF 6
ENDMDL
MODEL       57
REMARK 921   NORMALIZED FREE ENERGY PREDICTED BY IDOCK:   -5.55 KCAL/MOL
REMARK 922        TOTAL FREE ENERGY PREDICTED BY IDOCK:   -9.50 KCAL/MOL
REMARK 923 INTER-LIGAND FREE ENERGY PREDICTED BY IDOCK:   -7.86 KCAL/MOL
REMARK 924 INTRA-LIGAND FREE ENERGY PREDICTED BY IDOCK:   -1.65 KCAL/MOL
REMARK 927      BINDING AFFINITY PREDICTED BY RF-SCORE:    0.00 PKD
ROOT
HETATM    1  C   UNL     1     -13.742   9.144  72.629  1.00  0.00    -0.416 C  
HETATM    2  C   UNL     1     -12.809   9.641  71.533  1.00  0.00    -0.485 C  
ENDROOT
BRANCH   2   3
HETATM    3  C   UNL     1     -13.487  10.582  70.527  1.00  0.00     0.273 C  
BRANCH   3   4
HETATM    4  C   UNL     1     -12.792  11.902  70.429  1.00  0.00     0.181 A  
HETATM    5  N   UNL     1     -13.062  12.922  71.222  1.00  0.00    -0.232 NA 
HETATM    6  C   UNL     1     -12.318  13.977  70.766  1.00  0.00    -0.373 A  
HETATM    7  C   UNL     1     -11.541  13.582  69.688  1.00  0.00    -0.275 A  
HETATM    8  N   UNL     1     -11.807  12.238  69.519  1.00  0.00    -0.319 NA 
HETATM    9  C   UNL     1     -10.727  14.472  68.986  1.00  0.00    -0.258 A  
HETATM   10  C   UNL     1     -12.289  15.314  71.208  1.00  0.00    -0.424 A  
HETATM   11  C   UNL     1     -10.613  15.787  69.454  1.00  0.00    -0.255 A  
HETATM   12  C   UNL     1     -13.163  15.797  72.327  1.00  0.00    -0.522 C  
HETATM   13  C   UNL     1     -11.412  16.197  70.536  1.00  0.00    -0.363 A  
BRANCH   8  14
HETATM   14  C   UNL     1     -11.260  11.425  68.431  1.00  0.00    -0.263 C  
BRANCH  14  15
HETATM   15  C   UNL     1     -10.480  10.186  68.837  1.00  0.00    -0.230 A  
HETATM   16  C   UNL     1     -10.693   8.923  68.287  1.00  0.00    -0.135 A  
HETATM   17  C   UNL     1      -8.494   9.253  69.960  1.00  0.00    -0.185 A  
HETATM   18  C   UNL     1      -9.380  10.322  69.705  1.00  0.00    -0.167 A  
HETATM   19  C   UNL     1      -9.826   7.850  68.582  1.00  0.00    -0.177 A  
HETATM   20  C   UNL     1      -8.681   7.982  69.399  1.00  0.00    -0.137 A  
BRANCH  20  21
HETATM   21  C   UNL     1      -7.723   6.834  69.569  1.00  0.00    -0.104 A  
HETATM   22  C   UNL     1      -7.167   4.772  70.825  1.00  0.00    -0.049 A  
HETATM   23  C   UNL     1      -8.013   5.861  70.550  1.00  0.00    -0.106 A  
HETATM   24  C   UNL     1      -5.691   5.504  69.114  1.00  0.00    -0.012 A  
HETATM   25  C   UNL     1      -6.540   6.608  68.827  1.00  0.00    -0.051 A  
HETATM   26  C   UNL     1      -5.995   4.605  70.125  1.00  0.00    -0.017 A  
HETATM   27  C   UNL     1      -6.053   7.496  67.746  1.00  0.00    -0.044 C  
HETATM   28  O   UNL     1      -5.621   6.725  66.722  1.00  0.00    -0.016 OA 
HETATM   29  O   UNL     1      -5.954   8.707  67.772  1.00  0.00    -0.045 OA 
ENDBRANCH  20  21
ENDBRANCH  14  15
ENDBRANCH   8  14
BRANCH  11  30
HETATM   30  C   UNL     1      -9.694  16.747  68.817  1.00  0.00    -0.261 A  
HETATM   31  C   UNL     1      -8.809  19.670  67.032  1.00  0.00    -0.376 A  
HETATM   32  C   UNL     1      -7.521  20.128  66.725  1.00  0.00    -0.317 A  
HETATM   33  N   UNL     1     -10.087  17.839  68.181  1.00  0.00    -0.341 NA 
HETATM   34  C   UNL     1      -7.478  15.711  69.501  1.00  0.00    -0.192 C  
HETATM   35  C   UNL     1      -8.950  18.475  67.755  1.00  0.00    -0.275 A  
HETATM   36  C   UNL     1      -6.397  19.408  67.126  1.00  0.00    -0.195 A  
HETATM   37  N   UNL     1      -8.306  16.686  68.828  1.00  0.00    -0.246 NA 
HETATM   38  C   UNL     1      -7.815  17.776  68.143  1.00  0.00    -0.264 A  
HETATM   39  C   UNL     1      -6.519  18.215  67.844  1.00  0.00    -0.187 A  
ENDBRANCH  11  30
ENDBRANCH   3   4
ENDBRANCH   2   3
TORSDOF 6
ENDMDL
MODEL       58
REMARK 921   NORMALIZED FREE ENERGY PREDICTED BY IDOCK:   -5.53 KCAL/MOL
REMARK 922        TOTAL FREE ENERGY PREDICTED BY IDOCK:   -9.47 KCAL/MOL
REMARK 923 INTER-LIGAND FREE ENERGY PREDICTED BY IDOCK:   -7.97 KCAL/MOL
REMARK 924 INTRA-LIGAND FREE ENERGY PREDICTED BY IDOCK:   -1.50 KCAL/MOL
REMARK 927      BINDING AFFINITY PREDICTED BY RF-SCORE:    0.00 PKD
ROOT
HETATM    1  C   UNL     1     -12.663  13.312  63.430  1.00  0.00     0.072 C  
HETATM    2  C   UNL     1     -11.877  12.040  63.720  1.00  0.00    -0.581 C  
ENDROOT
BRANCH   2   3
HETATM    3  C   UNL     1     -10.406  12.292  64.077  1.00  0.00    -0.423 C  
BRANCH   3   4
HETATM    4  C   UNL     1      -9.916  11.366  65.143  1.00  0.00    -0.264 A  
HETATM    5  N   UNL     1      -9.372  10.191  64.887  1.00  0.00    -0.230 NA 
HETATM    6  C   UNL     1      -9.155   9.591  66.099  1.00  0.00    -0.166 A  
HETATM    7  C   UNL     1      -9.539  10.438  67.127  1.00  0.00    -0.164 A  
HETATM    8  N   UNL     1      -9.969  11.594  66.506  1.00  0.00    -0.199 NA 
HETATM    9  C   UNL     1      -9.483  10.059  68.469  1.00  0.00    -0.150 A  
HETATM   10  C   UNL     1      -8.663   8.303  66.388  1.00  0.00    -0.162 A  
HETATM   11  C   UNL     1      -8.921   8.819  68.792  1.00  0.00    -0.138 A  
HETATM   12  C   UNL     1      -8.298   7.332  65.304  1.00  0.00    -0.110 C  
HETATM   13  C   UNL     1      -8.545   7.949  67.753  1.00  0.00    -0.128 A  
BRANCH   8  14
HETATM   14  C   UNL     1     -10.546  12.737  67.214  1.00  0.00    -0.233 C  
BRANCH  14  15
HETATM   15  C   UNL     1      -9.584  13.842  67.616  1.00  0.00    -0.215 A  
HETATM   16  C   UNL     1      -8.694  14.453  66.733  1.00  0.00    -0.187 A  
HETATM   17  C   UNL     1      -8.959  15.556  69.274  1.00  0.00    -0.267 A  
HETATM   18  C   UNL     1      -9.678  14.399  68.905  1.00  0.00    -0.145 A  
HETATM   19  C   UNL     1      -7.947  15.584  67.125  1.00  0.00    -0.255 A  
HETATM   20  C   UNL     1      -8.075  16.195  68.392  1.00  0.00    -0.171 A  
BRANCH  20  21
HETATM   21  C   UNL     1      -7.350  17.475  68.703  1.00  0.00    -0.256 A  
HETATM   22  C   UNL     1      -5.236  18.526  69.457  1.00  0.00    -0.187 A  
HETATM   23  C   UNL     1      -5.997  17.399  69.100  1.00  0.00    -0.208 A  
HETATM   24  C   UNL     1      -7.105  19.917  68.992  1.00  0.00    -0.306 A  
HETATM   25  C   UNL     1      -7.883  18.784  68.628  1.00  0.00    -0.361 A  
HETATM   26  C   UNL     1      -5.794  19.782  69.427  1.00  0.00    -0.298 A  
HETATM   27  C   UNL     1      -9.274  19.094  68.224  1.00  0.00    -0.335 C  
HETATM   28  O   UNL     1      -9.249  20.161  67.392  1.00  0.00    -0.342 OA 
HETATM   29  O   UNL     1     -10.294  18.568  68.622  1.00  0.00    -0.357 OA 
ENDBRANCH  20  21
ENDBRANCH  14  15
ENDBRANCH   8  14
BRANCH  11  30
HETATM   30  C   UNL     1      -8.742   8.404  70.195  1.00  0.00    -0.136 A  
HETATM   31  C   UNL     1      -9.249   6.379  73.051  1.00  0.00    -0.137 A  
HETATM   32  C   UNL     1      -8.646   6.508  74.309  1.00  0.00    -0.153 A  
HETATM   33  N   UNL     1      -9.351   7.364  70.744  1.00  0.00    -0.160 NA 
HETATM   34  C   UNL     1      -6.973  10.084  70.900  1.00  0.00     0.185 C  
HETATM   35  C   UNL     1      -8.912   7.292  72.040  1.00  0.00    -0.128 A  
HETATM   36  C   UNL     1      -7.730   7.528  74.556  1.00  0.00    -0.189 A  
HETATM   37  N   UNL     1      -7.891   8.990  71.123  1.00  0.00    -0.227 NA 
HETATM   38  C   UNL     1      -7.996   8.301  72.311  1.00  0.00    -0.139 A  
HETATM   39  C   UNL     1      -7.384   8.449  73.562  1.00  0.00    -0.123 A  
ENDBRANCH  11  30
ENDBRANCH   3   4
ENDBRANCH   2   3
TORSDOF 6
ENDMDL
MODEL       59
REMARK 921   NORMALIZED FREE ENERGY PREDICTED BY IDOCK:   -5.51 KCAL/MOL
REMARK 922        TOTAL FREE ENERGY PREDICTED BY IDOCK:   -9.44 KCAL/MOL
REMARK 923 INTER-LIGAND FREE ENERGY PREDICTED BY IDOCK:   -7.70 KCAL/MOL
REMARK 924 INTRA-LIGAND FREE ENERGY PREDICTED BY IDOCK:   -1.75 KCAL/MOL
REMARK 927      BINDING AFFINITY PREDICTED BY RF-SCORE:    0.00 PKD
ROOT
HETATM    1  C   UNL     1     -13.065   9.315  72.297  1.00  0.00    -0.517 C  
HETATM    2  C   UNL     1     -12.020   8.208  72.313  1.00  0.00    -0.434 C  
ENDROOT
BRANCH   2   3
HETATM    3  C   UNL     1     -10.583   8.712  72.119  1.00  0.00    -0.411 C  
BRANCH   3   4
HETATM    4  C   UNL     1      -9.781   7.812  71.236  1.00  0.00    -0.157 A  
HETATM    5  N   UNL     1      -8.730   7.133  71.659  1.00  0.00    -0.119 NA 
HETATM    6  C   UNL     1      -8.197   6.518  70.558  1.00  0.00    -0.118 A  
HETATM    7  C   UNL     1      -8.964   6.796  69.437  1.00  0.00    -0.137 A  
HETATM    8  N   UNL     1     -10.008   7.575  69.893  1.00  0.00    -0.187 NA 
HETATM    9  C   UNL     1      -8.618   6.345  68.162  1.00  0.00    -0.117 A  
HETATM   10  C   UNL     1      -7.031   5.736  70.442  1.00  0.00    -0.065 A  
HETATM   11  C   UNL     1      -7.513   5.496  68.029  1.00  0.00    -0.074 A  
HETATM   12  C   UNL     1      -6.138   5.467  71.617  1.00  0.00    -0.030 C  
HETATM   13  C   UNL     1      -6.721   5.226  69.160  1.00  0.00    -0.053 A  
BRANCH   8  14
HETATM   14  C   UNL     1     -11.027   8.170  69.026  1.00  0.00     0.122 C  
BRANCH  14  15
HETATM   15  C   UNL     1     -10.763   9.586  68.544  1.00  0.00    -0.222 A  
HETATM   16  C   UNL     1      -9.815   9.909  67.573  1.00  0.00    -0.209 A  
HETATM   17  C   UNL     1     -11.549  11.919  68.412  1.00  0.00    -0.376 A  
HETATM   18  C   UNL     1     -11.608  10.626  68.974  1.00  0.00    -0.332 A  
HETATM   19  C   UNL     1      -9.735  11.216  67.048  1.00  0.00    -0.210 A  
HETATM   20  C   UNL     1     -10.615  12.257  67.421  1.00  0.00    -0.247 A  
BRANCH  20  21
HETATM   21  C   UNL     1     -10.564  13.591  66.729  1.00  0.00    -0.272 A  
HETATM   22  C   UNL     1      -9.685  15.908  66.764  1.00  0.00    -0.252 A  
HETATM   23  C   UNL     1      -9.771  14.611  67.301  1.00  0.00    -0.231 A  
HETATM   24  C   UNL     1     -11.133  15.259  64.997  1.00  0.00    -0.436 A  
HETATM   25  C   UNL     1     -11.227  13.944  65.530  1.00  0.00    -0.307 A  
HETATM   26  C   UNL     1     -10.382  16.240  65.627  1.00  0.00    -0.385 A  
HETATM   27  C   UNL     1     -12.098  13.026  64.760  1.00  0.00    -0.415 C  
HETATM   28  O   UNL     1     -11.820  13.176  63.445  1.00  0.00    -0.510 OA 
HETATM   29  O   UNL     1     -12.987  12.317  65.189  1.00  0.00    -0.464 OA 
ENDBRANCH  20  21
ENDBRANCH  14  15
ENDBRANCH   8  14
BRANCH  11  30
HETATM   30  C   UNL     1      -7.155   4.907  66.727  1.00  0.00    -0.068 A  
HETATM   31  C   UNL     1      -5.215   4.487  63.799  1.00  0.00    -0.009 A  
HETATM   32  C   UNL     1      -5.411   3.558  62.768  1.00  0.00    -0.008 A  
HETATM   33  N   UNL     1      -6.113   5.286  66.003  1.00  0.00    -0.029 NA 
HETATM   34  C   UNL     1      -8.925   3.090  66.596  1.00  0.00    -0.157 C  
HETATM   35  C   UNL     1      -6.104   4.494  64.884  1.00  0.00    -0.026 A  
HETATM   36  C   UNL     1      -6.474   2.657  62.817  1.00  0.00    -0.018 A  
HETATM   37  N   UNL     1      -7.806   3.855  66.094  1.00  0.00    -0.089 NA 
HETATM   38  C   UNL     1      -7.155   3.587  64.910  1.00  0.00    -0.065 A  
HETATM   39  C   UNL     1      -7.371   2.652  63.889  1.00  0.00    -0.064 A  
ENDBRANCH  11  30
ENDBRANCH   3   4
ENDBRANCH   2   3
TORSDOF 6
ENDMDL
MODEL       60
REMARK 921   NORMALIZED FREE ENERGY PREDICTED BY IDOCK:   -5.49 KCAL/MOL
REMARK 922        TOTAL FREE ENERGY PREDICTED BY IDOCK:   -9.42 KCAL/MOL
REMARK 923 INTER-LIGAND FREE ENERGY PREDICTED BY IDOCK:   -7.90 KCAL/MOL
REMARK 924 INTRA-LIGAND FREE ENERGY PREDICTED BY IDOCK:   -1.52 KCAL/MOL
REMARK 927      BINDING AFFINITY PREDICTED BY RF-SCORE:    0.00 PKD
ROOT
HETATM    1  C   UNL     1      -7.227   8.420  74.564  1.00  0.00    -0.244 C  
HETATM    2  C   UNL     1      -8.459   7.557  74.326  1.00  0.00    -0.267 C  
ENDROOT
BRANCH   2   3
HETATM    3  C   UNL     1      -9.325   8.031  73.150  1.00  0.00    -0.346 C  
BRANCH   3   4
HETATM    4  C   UNL     1      -9.262   7.094  71.987  1.00  0.00    -0.134 A  
HETATM    5  N   UNL     1      -9.620   5.825  72.061  1.00  0.00    -0.150 NA 
HETATM    6  C   UNL     1      -9.323   5.266  70.847  1.00  0.00    -0.153 A  
HETATM    7  C   UNL     1      -8.804   6.228  69.993  1.00  0.00    -0.142 A  
HETATM    8  N   UNL     1      -8.826   7.405  70.713  1.00  0.00    -0.148 NA 
HETATM    9  C   UNL     1      -8.358   5.923  68.706  1.00  0.00    -0.105 A  
HETATM   10  C   UNL     1      -9.437   3.928  70.421  1.00  0.00    -0.252 A  
HETATM   11  C   UNL     1      -8.537   4.620  68.225  1.00  0.00    -0.105 A  
HETATM   12  C   UNL     1      -9.931   2.846  71.335  1.00  0.00    -0.068 C  
HETATM   13  C   UNL     1      -9.046   3.638  69.093  1.00  0.00    -0.200 A  
BRANCH   8  14
HETATM   14  C   UNL     1      -8.288   8.675  70.223  1.00  0.00    -0.129 C  
BRANCH  14  15
HETATM   15  C   UNL     1      -8.944   9.255  68.981  1.00  0.00    -0.140 A  
HETATM   16  C   UNL     1     -10.319   9.229  68.748  1.00  0.00    -0.231 A  
HETATM   17  C   UNL     1      -8.740  10.729  67.016  1.00  0.00    -0.136 A  
HETATM   18  C   UNL     1      -8.162   9.995  68.075  1.00  0.00    -0.116 A  
HETATM   19  C   UNL     1     -10.881   9.931  67.662  1.00  0.00    -0.318 A  
HETATM   20  C   UNL     1     -10.122  10.730  66.779  1.00  0.00    -0.267 A  
BRANCH  20  21
HETATM   21  C   UNL     1     -10.796  11.559  65.720  1.00  0.00    -0.319 A  
HETATM   22  C   UNL     1     -12.533  13.252  65.212  1.00  0.00    -0.543 A  
HETATM   23  C   UNL     1     -11.807  12.461  66.120  1.00  0.00    -0.442 A  
HETATM   24  C   UNL     1     -11.257  12.347  63.424  1.00  0.00    -0.492 A  
HETATM   25  C   UNL     1     -10.515  11.544  64.334  1.00  0.00    -0.380 A  
HETATM   26  C   UNL     1     -12.276  13.179  63.863  1.00  0.00    -0.503 A  
HETATM   27  C   UNL     1      -9.489  10.683  63.702  1.00  0.00    -0.299 C  
HETATM   28  O   UNL     1      -8.817  11.420  62.788  1.00  0.00    -0.242 OA 
HETATM   29  O   UNL     1      -9.313   9.493  63.877  1.00  0.00    -0.155 OA 
ENDBRANCH  20  21
ENDBRANCH  14  15
ENDBRANCH   8  14
BRANCH  11  30
HETATM   30  C   UNL     1      -8.179   4.261  66.842  1.00  0.00    -0.101 A  
HETATM   31  C   UNL     1      -6.061   3.112  64.252  1.00  0.00    -0.022 A  
HETATM   32  C   UNL     1      -6.386   2.923  62.902  1.00  0.00    -0.014 A  
HETATM   33  N   UNL     1      -6.982   3.828  66.475  1.00  0.00    -0.058 NA 
HETATM   34  C   UNL     1     -10.442   4.577  65.734  1.00  0.00    -0.233 C  
HETATM   35  C   UNL     1      -7.052   3.580  65.129  1.00  0.00    -0.065 A  
HETATM   36  C   UNL     1      -7.669   3.200  62.434  1.00  0.00    -0.058 A  
HETATM   37  N   UNL     1      -9.030   4.269  65.745  1.00  0.00    -0.124 NA 
HETATM   38  C   UNL     1      -8.323   3.850  64.639  1.00  0.00    -0.097 A  
HETATM   39  C   UNL     1      -8.667   3.671  63.293  1.00  0.00    -0.095 A  
ENDBRANCH  11  30
ENDBRANCH   3   4
ENDBRANCH   2   3
TORSDOF 6
ENDMDL
MODEL       61
REMARK 921   NORMALIZED FREE ENERGY PREDICTED BY IDOCK:   -5.48 KCAL/MOL
REMARK 922        TOTAL FREE ENERGY PREDICTED BY IDOCK:   -9.40 KCAL/MOL
REMARK 923 INTER-LIGAND FREE ENERGY PREDICTED BY IDOCK:   -8.58 KCAL/MOL
REMARK 924 INTRA-LIGAND FREE ENERGY PREDICTED BY IDOCK:   -0.82 KCAL/MOL
REMARK 927      BINDING AFFINITY PREDICTED BY RF-SCORE:    0.00 PKD
ROOT
HETATM    1  C   UNL     1      -9.701  14.746  66.646  1.00  0.00    -0.281 C  
HETATM    2  C   UNL     1     -11.101  14.593  67.227  1.00  0.00    -0.331 C  
ENDROOT
BRANCH   2   3
HETATM    3  C   UNL     1     -11.944  13.519  66.527  1.00  0.00    -0.460 C  
BRANCH   3   4
HETATM    4  C   UNL     1     -11.222  12.216  66.414  1.00  0.00    -0.331 A  
HETATM    5  N   UNL     1     -10.470  11.892  65.377  1.00  0.00    -0.259 NA 
HETATM    6  C   UNL     1     -10.071  10.598  65.576  1.00  0.00    -0.280 A  
HETATM    7  C   UNL     1     -10.558  10.128  66.786  1.00  0.00    -0.169 A  
HETATM    8  N   UNL     1     -11.242  11.190  67.341  1.00  0.00    -0.358 NA 
HETATM    9  C   UNL     1     -10.352   8.817  67.217  1.00  0.00    -0.360 A  
HETATM   10  C   UNL     1      -9.318   9.751  64.739  1.00  0.00    -0.327 A  
HETATM   11  C   UNL     1      -9.538   7.978  66.447  1.00  0.00    -0.267 A  
HETATM   12  C   UNL     1      -8.829  10.200  63.393  1.00  0.00    -0.240 C  
HETATM   13  C   UNL     1      -9.056   8.444  65.211  1.00  0.00     0.015 A  
BRANCH   8  14
HETATM   14  C   UNL     1     -11.995  11.115  68.594  1.00  0.00    -0.219 C  
BRANCH  14  15
HETATM   15  C   UNL     1     -11.312  10.410  69.754  1.00  0.00    -0.353 A  
HETATM   16  C   UNL     1     -11.999   9.735  70.762  1.00  0.00    -0.382 A  
HETATM   17  C   UNL     1      -9.229   9.477  70.686  1.00  0.00    -0.243 A  
HETATM   18  C   UNL     1      -9.910  10.289  69.754  1.00  0.00    -0.201 A  
HETATM   19  C   UNL     1     -11.306   8.960  71.716  1.00  0.00    -0.431 A  
HETATM   20  C   UNL     1      -9.906   8.775  71.695  1.00  0.00    -0.378 A  
BRANCH  20  21
HETATM   21  C   UNL     1      -9.241   7.832  72.659  1.00  0.00    -0.237 A  
HETATM   22  C   UNL     1      -7.620   7.571  74.515  1.00  0.00    -0.177 A  
HETATM   23  C   UNL     1      -8.331   8.365  73.598  1.00  0.00    -0.175 A  
HETATM   24  C   UNL     1      -8.717   5.640  73.672  1.00  0.00    -0.122 A  
HETATM   25  C   UNL     1      -9.442   6.433  72.742  1.00  0.00    -0.147 A  
HETATM   26  C   UNL     1      -7.794   6.208  74.539  1.00  0.00    -0.098 A  
HETATM   27  C   UNL     1     -10.358   5.671  71.862  1.00  0.00    -0.215 C  
HETATM   28  O   UNL     1     -11.034   4.779  72.622  1.00  0.00    -0.204 OA 
HETATM   29  O   UNL     1     -10.448   5.738  70.652  1.00  0.00    -0.230 OA 
ENDBRANCH  20  21
ENDBRANCH  14  15
ENDBRANCH   8  14
BRANCH  11  30
HETATM   30  C   UNL     1      -9.202   6.616  66.897  1.00  0.00    -0.142 A  
HETATM   31  C   UNL     1      -9.498   3.093  67.021  1.00  0.00    -0.128 A  
HETATM   32  C   UNL     1      -8.709   2.193  67.750  1.00  0.00    -0.130 A  
HETATM   33  N   UNL     1      -9.829   5.524  66.489  1.00  0.00    -0.161 NA 
HETATM   34  C   UNL     1      -7.184   7.146  68.346  1.00  0.00    -0.091 C  
HETATM   35  C   UNL     1      -9.217   4.465  67.107  1.00  0.00    -0.142 A  
HETATM   36  C   UNL     1      -7.665   2.652  68.552  1.00  0.00    -0.054 A  
HETATM   37  N   UNL     1      -8.169   6.267  67.758  1.00  0.00    -0.117 NA 
HETATM   38  C   UNL     1      -8.172   4.898  67.913  1.00  0.00    -0.100 A  
HETATM   39  C   UNL     1      -7.373   4.016  68.652  1.00  0.00    -0.055 A  
ENDBRANCH  11  30
ENDBRANCH   3   4
ENDBRANCH   2   3
TORSDOF 6
ENDMDL
MODEL       62
REMARK 921   NORMALIZED FREE ENERGY PREDICTED BY IDOCK:   -5.46 KCAL/MOL
REMARK 922        TOTAL FREE ENERGY PREDICTED BY IDOCK:   -9.37 KCAL/MOL
REMARK 923 INTER-LIGAND FREE ENERGY PREDICTED BY IDOCK:   -7.89 KCAL/MOL
REMARK 924 INTRA-LIGAND FREE ENERGY PREDICTED BY IDOCK:   -1.48 KCAL/MOL
REMARK 927      BINDING AFFINITY PREDICTED BY RF-SCORE:    0.00 PKD
ROOT
HETATM    1  C   UNL     1     -10.313   6.246  73.630  1.00  0.00    -0.286 C  
HETATM    2  C   UNL     1     -10.350   5.078  72.654  1.00  0.00    -0.249 C  
ENDROOT
BRANCH   2   3
HETATM    3  C   UNL     1     -10.446   5.506  71.183  1.00  0.00    -0.304 C  
BRANCH   3   4
HETATM    4  C   UNL     1      -9.463   6.579  70.840  1.00  0.00    -0.172 A  
HETATM    5  N   UNL     1      -8.166   6.360  70.718  1.00  0.00    -0.123 NA 
HETATM    6  C   UNL     1      -7.584   7.581  70.512  1.00  0.00    -0.085 A  
HETATM    7  C   UNL     1      -8.554   8.571  70.468  1.00  0.00    -0.147 A  
HETATM    8  N   UNL     1      -9.756   7.912  70.619  1.00  0.00    -0.173 NA 
HETATM    9  C   UNL     1      -8.237   9.924  70.329  1.00  0.00    -0.102 A  
HETATM   10  C   UNL     1      -6.221   7.919  70.392  1.00  0.00    -0.036 A  
HETATM   11  C   UNL     1      -6.899  10.281  70.123  1.00  0.00    -0.152 A  
HETATM   12  C   UNL     1      -5.138   6.887  70.500  1.00  0.00    -0.019 C  
HETATM   13  C   UNL     1      -5.910   9.283  70.184  1.00  0.00    -0.032 A  
BRANCH   8  14
HETATM   14  C   UNL     1     -11.053   8.583  70.715  1.00  0.00    -0.254 C  
BRANCH  14  15
HETATM   15  C   UNL     1     -11.352   9.634  69.660  1.00  0.00    -0.113 A  
HETATM   16  C   UNL     1     -11.929  10.872  69.941  1.00  0.00    -0.430 A  
HETATM   17  C   UNL     1     -10.962  10.449  67.366  1.00  0.00    -0.335 A  
HETATM   18  C   UNL     1     -10.898   9.432  68.343  1.00  0.00    -0.156 A  
HETATM   19  C   UNL     1     -12.027  11.867  68.946  1.00  0.00    -0.313 A  
HETATM   20  C   UNL     1     -11.520  11.707  67.638  1.00  0.00    -0.373 A  
BRANCH  20  21
HETATM   21  C   UNL     1     -11.536  12.852  66.662  1.00  0.00    -0.428 A  
HETATM   22  C   UNL     1     -12.358  13.704  64.485  1.00  0.00    -0.402 A  
HETATM   23  C   UNL     1     -12.305  12.717  65.485  1.00  0.00    -0.495 A  
HETATM   24  C   UNL     1     -10.920  15.078  65.785  1.00  0.00    -0.351 A  
HETATM   25  C   UNL     1     -10.861  14.087  66.803  1.00  0.00    -0.294 A  
HETATM   26  C   UNL     1     -11.649  14.874  64.622  1.00  0.00    -0.395 A  
HETATM   27  C   UNL     1     -10.010  14.443  67.962  1.00  0.00    -0.225 C  
HETATM   28  O   UNL     1     -10.281  15.721  68.314  1.00  0.00    -0.220 OA 
HETATM   29  O   UNL     1      -9.141  13.767  68.476  1.00  0.00    -0.192 OA 
ENDBRANCH  20  21
ENDBRANCH  14  15
ENDBRANCH   8  14
BRANCH  11  30
HETATM   30  C   UNL     1      -6.512  11.680  69.871  1.00  0.00    -0.085 A  
HETATM   31  C   UNL     1      -5.481  14.950  70.740  1.00  0.00    -0.142 A  
HETATM   32  C   UNL     1      -5.188  16.013  69.875  1.00  0.00    -0.131 A  
HETATM   33  N   UNL     1      -6.201  12.547  70.822  1.00  0.00    -0.046 NA 
HETATM   34  C   UNL     1      -6.511  11.655  67.331  1.00  0.00    -0.103 C  
HETATM   35  C   UNL     1      -5.878  13.720  70.193  1.00  0.00    -0.142 A  
HETATM   36  C   UNL     1      -5.292  15.855  68.494  1.00  0.00    -0.102 A  
HETATM   37  N   UNL     1      -6.367  12.280  68.626  1.00  0.00    -0.067 NA 
HETATM   38  C   UNL     1      -5.975  13.588  68.814  1.00  0.00    -0.084 A  
HETATM   39  C   UNL     1      -5.688  14.638  67.932  1.00  0.00    -0.129 A  
ENDBRANCH  11  30
ENDBRANCH   3   4
ENDBRANCH   2   3
TORSDOF 6
ENDMDL
MODEL       63
REMARK 921   NORMALIZED FREE ENERGY PREDICTED BY IDOCK:   -5.45 KCAL/MOL
REMARK 922        TOTAL FREE ENERGY PREDICTED BY IDOCK:   -9.36 KCAL/MOL
REMARK 923 INTER-LIGAND FREE ENERGY PREDICTED BY IDOCK:   -7.84 KCAL/MOL
REMARK 924 INTRA-LIGAND FREE ENERGY PREDICTED BY IDOCK:   -1.52 KCAL/MOL
REMARK 927      BINDING AFFINITY PREDICTED BY RF-SCORE:    0.00 PKD
ROOT
HETATM    1  C   UNL     1      -6.084   8.949  74.365  1.00  0.00    -0.124 C  
HETATM    2  C   UNL     1      -7.116   7.967  73.825  1.00  0.00    -0.151 C  
ENDROOT
BRANCH   2   3
HETATM    3  C   UNL     1      -8.049   8.572  72.767  1.00  0.00    -0.103 C  
BRANCH   3   4
HETATM    4  C   UNL     1      -8.457   7.572  71.734  1.00  0.00    -0.107 A  
HETATM    5  N   UNL     1      -9.000   6.405  72.030  1.00  0.00    -0.138 NA 
HETATM    6  C   UNL     1      -9.131   5.727  70.849  1.00  0.00    -0.145 A  
HETATM    7  C   UNL     1      -8.692   6.514  69.795  1.00  0.00    -0.143 A  
HETATM    8  N   UNL     1      -8.319   7.713  70.365  1.00  0.00    -0.122 NA 
HETATM    9  C   UNL     1      -8.657   6.049  68.479  1.00  0.00    -0.111 A  
HETATM   10  C   UNL     1      -9.585   4.414  70.612  1.00  0.00    -0.262 A  
HETATM   11  C   UNL     1      -9.180   4.781  68.201  1.00  0.00    -0.155 A  
HETATM   12  C   UNL     1     -10.005   3.508  71.731  1.00  0.00    -0.202 C  
HETATM   13  C   UNL     1      -9.610   3.973  69.268  1.00  0.00    -0.247 A  
BRANCH   8  14
HETATM   14  C   UNL     1      -7.714   8.820  69.623  1.00  0.00    -0.088 C  
BRANCH  14  15
HETATM   15  C   UNL     1      -8.560   9.445  68.527  1.00  0.00    -0.123 A  
HETATM   16  C   UNL     1      -9.935   9.648  68.632  1.00  0.00    -0.179 A  
HETATM   17  C   UNL     1      -8.624  10.763  66.444  1.00  0.00    -0.159 A  
HETATM   18  C   UNL     1      -7.923   9.992  67.397  1.00  0.00    -0.106 A  
HETATM   19  C   UNL     1     -10.634  10.383  67.651  1.00  0.00    -0.304 A  
HETATM   20  C   UNL     1     -10.004  10.993  66.544  1.00  0.00    -0.253 A  
BRANCH  20  21
HETATM   21  C   UNL     1     -10.782  11.874  65.607  1.00  0.00    -0.325 A  
HETATM   22  C   UNL     1     -11.803  12.116  63.361  1.00  0.00    -0.553 A  
HETATM   23  C   UNL     1     -11.117  11.365  64.332  1.00  0.00    -0.329 A  
HETATM   24  C   UNL     1     -11.933  13.937  64.880  1.00  0.00    -0.412 A  
HETATM   25  C   UNL     1     -11.241  13.186  65.870  1.00  0.00    -0.311 A  
HETATM   26  C   UNL     1     -12.191  13.408  63.624  1.00  0.00    -0.480 A  
HETATM   27  C   UNL     1     -11.012  13.908  67.144  1.00  0.00    -0.291 C  
HETATM   28  O   UNL     1     -12.157  14.539  67.489  1.00  0.00    -0.366 OA 
HETATM   29  O   UNL     1      -9.966  14.017  67.753  1.00  0.00    -0.228 OA 
ENDBRANCH  20  21
ENDBRANCH  14  15
ENDBRANCH   8  14
BRANCH  11  30
HETATM   30  C   UNL     1      -9.263   4.275  66.820  1.00  0.00    -0.146 A  
HETATM   31  C   UNL     1     -10.778   3.719  63.672  1.00  0.00    -0.231 A  
HETATM   32  C   UNL     1     -10.217   3.091  62.551  1.00  0.00    -0.113 A  
HETATM   33  N   UNL     1     -10.323   4.419  66.039  1.00  0.00    -0.231 NA 
HETATM   34  C   UNL     1      -6.904   3.368  66.571  1.00  0.00    -0.053 C  
HETATM   35  C   UNL     1     -10.006   3.841  64.838  1.00  0.00    -0.171 A  
HETATM   36  C   UNL     1      -8.917   2.590  62.594  1.00  0.00    -0.087 A  
HETATM   37  N   UNL     1      -8.251   3.630  66.119  1.00  0.00    -0.100 NA 
HETATM   38  C   UNL     1      -8.714   3.334  64.855  1.00  0.00    -0.110 A  
HETATM   39  C   UNL     1      -8.136   2.700  63.748  1.00  0.00    -0.082 A  
ENDBRANCH  11  30
ENDBRANCH   3   4
ENDBRANCH   2   3
TORSDOF 6
ENDMDL
MODEL       64
REMARK 921   NORMALIZED FREE ENERGY PREDICTED BY IDOCK:   -5.43 KCAL/MOL
REMARK 922        TOTAL FREE ENERGY PREDICTED BY IDOCK:   -9.33 KCAL/MOL
REMARK 923 INTER-LIGAND FREE ENERGY PREDICTED BY IDOCK:   -7.65 KCAL/MOL
REMARK 924 INTRA-LIGAND FREE ENERGY PREDICTED BY IDOCK:   -1.68 KCAL/MOL
REMARK 927      BINDING AFFINITY PREDICTED BY RF-SCORE:    0.00 PKD
ROOT
HETATM    1  C   UNL     1      -5.387  20.479  65.932  1.00  0.00    -0.210 C  
HETATM    2  C   UNL     1      -5.787  19.180  65.246  1.00  0.00    -0.258 C  
ENDROOT
BRANCH   2   3
HETATM    3  C   UNL     1      -5.476  17.924  66.073  1.00  0.00    -0.238 C  
BRANCH   3   4
HETATM    4  C   UNL     1      -6.712  17.168  66.440  1.00  0.00    -0.236 A  
HETATM    5  N   UNL     1      -7.889  17.391  65.883  1.00  0.00    -0.530 NA 
HETATM    6  C   UNL     1      -8.787  16.597  66.544  1.00  0.00    -0.279 A  
HETATM    7  C   UNL     1      -8.138  15.839  67.506  1.00  0.00    -0.159 A  
HETATM    8  N   UNL     1      -6.803  16.168  67.390  1.00  0.00    -0.165 NA 
HETATM    9  C   UNL     1      -8.822  14.983  68.370  1.00  0.00    -0.178 A  
HETATM   10  C   UNL     1     -10.185  16.506  66.394  1.00  0.00    -0.324 A  
HETATM   11  C   UNL     1     -10.199  14.807  68.190  1.00  0.00    -0.228 A  
HETATM   12  C   UNL     1     -10.934  17.357  65.411  1.00  0.00     0.137 C  
HETATM   13  C   UNL     1     -10.864  15.587  67.228  1.00  0.00    -0.313 A  
BRANCH   8  14
HETATM   14  C   UNL     1      -5.754  15.659  68.275  1.00  0.00    -0.116 C  
BRANCH  14  15
HETATM   15  C   UNL     1      -5.729  14.157  68.504  1.00  0.00    -0.095 A  
HETATM   16  C   UNL     1      -5.940  13.561  69.746  1.00  0.00    -0.123 A  
HETATM   17  C   UNL     1      -5.814  11.900  67.516  1.00  0.00    -0.099 A  
HETATM   18  C   UNL     1      -5.638  13.296  67.395  1.00  0.00     0.095 A  
HETATM   19  C   UNL     1      -6.072  12.161  69.863  1.00  0.00    -0.146 A  
HETATM   20  C   UNL     1      -6.047  11.285  68.754  1.00  0.00    -0.044 A  
BRANCH  20  21
HETATM   21  C   UNL     1      -6.325   9.817  68.929  1.00  0.00    -0.041 A  
HETATM   22  C   UNL     1      -5.525   7.653  69.834  1.00  0.00    -0.023 A  
HETATM   23  C   UNL     1      -5.389   9.040  69.648  1.00  0.00    -0.034 A  
HETATM   24  C   UNL     1      -7.581   7.709  68.646  1.00  0.00    -0.109 A  
HETATM   25  C   UNL     1      -7.455   9.112  68.453  1.00  0.00    -0.082 A  
HETATM   26  C   UNL     1      -6.607   6.982  69.314  1.00  0.00    -0.045 A  
HETATM   27  C   UNL     1      -8.561   9.732  67.686  1.00  0.00    -0.125 C  
HETATM   28  O   UNL     1      -9.731   9.243  68.155  1.00  0.00    -0.145 OA 
HETATM   29  O   UNL     1      -8.471  10.480  66.733  1.00  0.00    -0.124 OA 
ENDBRANCH  20  21
ENDBRANCH  14  15
ENDBRANCH   8  14
BRANCH  11  30
HETATM   30  C   UNL     1     -10.959  13.844  69.005  1.00  0.00    -0.250 A  
HETATM   31  C   UNL     1     -12.222  10.663  69.899  1.00  0.00    -0.346 A  
HETATM   32  C   UNL     1     -12.997  10.334  71.020  1.00  0.00    -0.488 A  
HETATM   33  N   UNL     1     -11.057  12.553  68.728  1.00  0.00    -0.257 NA 
HETATM   34  C   UNL     1     -11.685  15.381  70.892  1.00  0.00    -0.354 C  
HETATM   35  C   UNL     1     -11.818  11.995  69.722  1.00  0.00    -0.331 A  
HETATM   36  C   UNL     1     -13.365  11.313  71.941  1.00  0.00    -0.413 A  
HETATM   37  N   UNL     1     -11.632  14.120  70.189  1.00  0.00    -0.252 NA 
HETATM   38  C   UNL     1     -12.197  12.952  70.653  1.00  0.00    -0.302 A  
HETATM   39  C   UNL     1     -12.973  12.645  71.778  1.00  0.00    -0.417 A  
ENDBRANCH  11  30
ENDBRANCH   3   4
ENDBRANCH   2   3
TORSDOF 6
ENDMDL
MODEL       65
REMARK 921   NORMALIZED FREE ENERGY PREDICTED BY IDOCK:   -5.42 KCAL/MOL
REMARK 922        TOTAL FREE ENERGY PREDICTED BY IDOCK:   -9.33 KCAL/MOL
REMARK 923 INTER-LIGAND FREE ENERGY PREDICTED BY IDOCK:   -8.06 KCAL/MOL
REMARK 924 INTRA-LIGAND FREE ENERGY PREDICTED BY IDOCK:   -1.27 KCAL/MOL
REMARK 927      BINDING AFFINITY PREDICTED BY RF-SCORE:    0.00 PKD
ROOT
HETATM    1  C   UNL     1     -12.281  14.966  64.199  1.00  0.00    -0.280 C  
HETATM    2  C   UNL     1     -11.088  15.886  64.418  1.00  0.00    -0.165 C  
ENDROOT
BRANCH   2   3
HETATM    3  C   UNL     1     -10.906  16.322  65.879  1.00  0.00    -0.141 C  
BRANCH   3   4
HETATM    4  C   UNL     1      -9.910  15.475  66.603  1.00  0.00    -0.254 A  
HETATM    5  N   UNL     1      -8.651  15.832  66.781  1.00  0.00    -0.244 NA 
HETATM    6  C   UNL     1      -8.027  14.770  67.377  1.00  0.00    -0.197 A  
HETATM    7  C   UNL     1      -8.936  13.749  67.607  1.00  0.00    -0.194 A  
HETATM    8  N   UNL     1     -10.149  14.234  67.162  1.00  0.00    -0.252 NA 
HETATM    9  C   UNL     1      -8.560  12.520  68.152  1.00  0.00    -0.189 A  
HETATM   10  C   UNL     1      -6.670  14.599  67.717  1.00  0.00    -0.194 A  
HETATM   11  C   UNL     1      -7.237  12.352  68.577  1.00  0.00    -0.103 A  
HETATM   12  C   UNL     1      -5.642  15.652  67.425  1.00  0.00     0.019 C  
HETATM   13  C   UNL     1      -6.307  13.377  68.330  1.00  0.00    -0.088 A  
BRANCH   8  14
HETATM   14  C   UNL     1     -11.385  13.450  67.137  1.00  0.00    -0.315 C  
BRANCH  14  15
HETATM   15  C   UNL     1     -11.463  12.275  68.096  1.00  0.00    -0.371 A  
HETATM   16  C   UNL     1     -11.068  10.979  67.766  1.00  0.00    -0.356 A  
HETATM   17  C   UNL     1     -11.703  11.503  70.425  1.00  0.00    -0.328 A  
HETATM   18  C   UNL     1     -11.809  12.509  69.441  1.00  0.00    -0.368 A  
HETATM   19  C   UNL     1     -11.007   9.970  68.750  1.00  0.00    -0.242 A  
HETATM   20  C   UNL     1     -11.288  10.199  70.115  1.00  0.00    -0.372 A  
BRANCH  20  21
HETATM   21  C   UNL     1     -11.077   9.115  71.135  1.00  0.00    -0.393 A  
HETATM   22  C   UNL     1      -9.453   7.622  72.263  1.00  0.00    -0.209 A  
HETATM   23  C   UNL     1      -9.760   8.659  71.366  1.00  0.00    -0.314 A  
HETATM   24  C   UNL     1     -11.754   7.443  72.825  1.00  0.00    -0.184 A  
HETATM   25  C   UNL     1     -12.076   8.493  71.921  1.00  0.00    -0.411 A  
HETATM   26  C   UNL     1     -10.449   6.997  72.976  1.00  0.00    -0.307 A  
HETATM   27  C   UNL     1     -13.518   8.824  71.849  1.00  0.00    -0.404 C  
HETATM   28  O   UNL     1     -14.007   8.878  73.109  1.00  0.00    -0.293 OA 
HETATM   29  O   UNL     1     -14.200   8.941  70.851  1.00  0.00    -0.064 OA 
ENDBRANCH  20  21
ENDBRANCH  14  15
ENDBRANCH   8  14
BRANCH  11  30
HETATM   30  C   UNL     1      -6.802  11.115  69.250  1.00  0.00    -0.110 A  
HETATM   31  C   UNL     1      -5.763   9.122  71.981  1.00  0.00    -0.069 A  
HETATM   32  C   UNL     1      -5.492   7.747  71.983  1.00  0.00    -0.036 A  
HETATM   33  N   UNL     1      -6.495  11.039  70.535  1.00  0.00    -0.307 NA 
HETATM   34  C   UNL     1      -7.039   9.487  67.315  1.00  0.00    -0.086 C  
HETATM   35  C   UNL     1      -6.166   9.733  70.783  1.00  0.00    -0.096 A  
HETATM   36  C   UNL     1      -5.615   6.997  70.814  1.00  0.00    -0.027 A  
HETATM   37  N   UNL     1      -6.698   9.857  68.669  1.00  0.00    -0.050 NA 
HETATM   38  C   UNL     1      -6.280   8.964  69.632  1.00  0.00    -0.039 A  
HETATM   39  C   UNL     1      -6.011   7.590  69.611  1.00  0.00    -0.024 A  
ENDBRANCH  11  30
ENDBRANCH   3   4
ENDBRANCH   2   3
TORSDOF 6
ENDMDL
MODEL       66
REMARK 921   NORMALIZED FREE ENERGY PREDICTED BY IDOCK:   -5.42 KCAL/MOL
REMARK 922        TOTAL FREE ENERGY PREDICTED BY IDOCK:   -9.33 KCAL/MOL
REMARK 923 INTER-LIGAND FREE ENERGY PREDICTED BY IDOCK:   -7.78 KCAL/MOL
REMARK 924 INTRA-LIGAND FREE ENERGY PREDICTED BY IDOCK:   -1.54 KCAL/MOL
REMARK 927      BINDING AFFINITY PREDICTED BY RF-SCORE:    0.00 PKD
ROOT
HETATM    1  C   UNL     1     -11.429   9.752  70.211  1.00  0.00    -0.317 C  
HETATM    2  C   UNL     1     -12.000  10.764  69.226  1.00  0.00    -0.334 C  
ENDROOT
BRANCH   2   3
HETATM    3  C   UNL     1     -11.238  10.825  67.894  1.00  0.00    -0.386 C  
BRANCH   3   4
HETATM    4  C   UNL     1     -10.873  12.223  67.515  1.00  0.00    -0.234 A  
HETATM    5  N   UNL     1     -11.556  12.937  66.638  1.00  0.00    -0.352 NA 
HETATM    6  C   UNL     1     -10.866  14.107  66.469  1.00  0.00    -0.298 A  
HETATM    7  C   UNL     1      -9.751  14.128  67.292  1.00  0.00    -0.236 A  
HETATM    8  N   UNL     1      -9.798  12.944  68.000  1.00  0.00    -0.218 NA 
HETATM    9  C   UNL     1      -8.833  15.179  67.281  1.00  0.00    -0.216 A  
HETATM   10  C   UNL     1     -11.121  15.182  65.594  1.00  0.00    -0.334 A  
HETATM   11  C   UNL     1      -9.104  16.298  66.485  1.00  0.00    -0.302 A  
HETATM   12  C   UNL     1     -12.279  15.169  64.641  1.00  0.00    -0.217 C  
HETATM   13  C   UNL     1     -10.224  16.275  65.636  1.00  0.00    -0.368 A  
BRANCH   8  14
HETATM   14  C   UNL     1      -8.760  12.508  68.936  1.00  0.00     0.320 C  
BRANCH  14  15
HETATM   15  C   UNL     1      -8.124  11.156  68.661  1.00  0.00    -0.150 A  
HETATM   16  C   UNL     1      -7.970  10.163  69.627  1.00  0.00    -0.181 A  
HETATM   17  C   UNL     1      -7.400   9.500  66.984  1.00  0.00    -0.087 A  
HETATM   18  C   UNL     1      -7.801  10.807  67.336  1.00  0.00    -0.111 A  
HETATM   19  C   UNL     1      -7.527   8.871  69.272  1.00  0.00    -0.075 A  
HETATM   20  C   UNL     1      -7.258   8.483  67.940  1.00  0.00    -0.088 A  
BRANCH  20  21
HETATM   21  C   UNL     1      -6.917   7.056  67.610  1.00  0.00    -0.083 A  
HETATM   22  C   UNL     1      -5.133   5.435  67.035  1.00  0.00    -0.005 A  
HETATM   23  C   UNL     1      -5.561   6.725  67.392  1.00  0.00    -0.013 A  
HETATM   24  C   UNL     1      -7.381   4.674  67.142  1.00  0.00    -0.077 A  
HETATM   25  C   UNL     1      -7.825   5.976  67.505  1.00  0.00    -0.098 A  
HETATM   26  C   UNL     1      -6.043   4.414  66.887  1.00  0.00    -0.031 A  
HETATM   27  C   UNL     1      -9.288   6.096  67.704  1.00  0.00    -0.112 C  
HETATM   28  O   UNL     1      -9.707   5.039  68.436  1.00  0.00    -0.137 OA 
HETATM   29  O   UNL     1     -10.032   6.931  67.230  1.00  0.00    -0.148 OA 
ENDBRANCH  20  21
ENDBRANCH  14  15
ENDBRANCH   8  14
BRANCH  11  30
HETATM   30  C   UNL     1      -8.225  17.481  66.506  1.00  0.00    -0.276 A  
HETATM   31  C   UNL     1      -5.885  19.786  65.193  1.00  0.00    -0.238 A  
HETATM   32  C   UNL     1      -5.381  20.939  65.810  1.00  0.00    -0.245 A  
HETATM   33  N   UNL     1      -7.451  17.847  65.497  1.00  0.00    -0.448 NA 
HETATM   34  C   UNL     1      -8.860  18.427  68.776  1.00  0.00    -0.215 C  
HETATM   35  C   UNL     1      -6.814  18.996  65.888  1.00  0.00    -0.264 A  
HETATM   36  C   UNL     1      -5.789  21.294  67.094  1.00  0.00    -0.403 A  
HETATM   37  N   UNL     1      -8.112  18.403  67.540  1.00  0.00    -0.245 NA 
HETATM   38  C   UNL     1      -7.205  19.370  67.166  1.00  0.00    -0.211 A  
HETATM   39  C   UNL     1      -6.711  20.516  67.802  1.00  0.00    -0.351 A  
ENDBRANCH  11  30
ENDBRANCH   3   4
ENDBRANCH   2   3
TORSDOF 6
ENDMDL
MODEL       67
REMARK 921   NORMALIZED FREE ENERGY PREDICTED BY IDOCK:   -5.42 KCAL/MOL
REMARK 922        TOTAL FREE ENERGY PREDICTED BY IDOCK:   -9.32 KCAL/MOL
REMARK 923 INTER-LIGAND FREE ENERGY PREDICTED BY IDOCK:   -7.22 KCAL/MOL
REMARK 924 INTRA-LIGAND FREE ENERGY PREDICTED BY IDOCK:   -2.10 KCAL/MOL
REMARK 927      BINDING AFFINITY PREDICTED BY RF-SCORE:    0.00 PKD
ROOT
HETATM    1  C   UNL     1      -9.519   6.458  66.866  1.00  0.00    -0.166 C  
HETATM    2  C   UNL     1      -8.038   6.761  66.682  1.00  0.00    -0.110 C  
ENDROOT
BRANCH   2   3
HETATM    3  C   UNL     1      -7.760   8.170  66.142  1.00  0.00    -0.090 C  
BRANCH   3   4
HETATM    4  C   UNL     1      -8.708   9.185  66.692  1.00  0.00    -0.127 A  
HETATM    5  N   UNL     1      -9.670   9.740  65.977  1.00  0.00    -0.235 NA 
HETATM    6  C   UNL     1     -10.250  10.688  66.776  1.00  0.00    -0.233 A  
HETATM    7  C   UNL     1      -9.653  10.688  68.028  1.00  0.00    -0.157 A  
HETATM    8  N   UNL     1      -8.709   9.683  67.982  1.00  0.00    -0.119 NA 
HETATM    9  C   UNL     1     -10.009  11.597  69.026  1.00  0.00    -0.002 A  
HETATM   10  C   UNL     1     -11.271  11.612  66.478  1.00  0.00    -0.356 A  
HETATM   11  C   UNL     1     -11.077  12.470  68.788  1.00  0.00    -0.314 A  
HETATM   12  C   UNL     1     -11.896  11.689  65.116  1.00  0.00     0.065 C  
HETATM   13  C   UNL     1     -11.673  12.486  67.515  1.00  0.00    -0.439 A  
BRANCH   8  14
HETATM   14  C   UNL     1      -7.779   9.382  69.072  1.00  0.00    -0.075 C  
BRANCH  14  15
HETATM   15  C   UNL     1      -8.038   8.104  69.851  1.00  0.00    -0.115 A  
HETATM   16  C   UNL     1      -9.312   7.630  70.159  1.00  0.00    -0.157 A  
HETATM   17  C   UNL     1      -7.146   5.967  70.698  1.00  0.00    -0.075 A  
HETATM   18  C   UNL     1      -6.956   7.258  70.160  1.00  0.00    -0.060 A  
HETATM   19  C   UNL     1      -9.489   6.355  70.736  1.00  0.00    -0.179 A  
HETATM   20  C   UNL     1      -8.422   5.466  70.995  1.00  0.00    -0.124 A  
BRANCH  20  21
HETATM   21  C   UNL     1      -8.687   4.071  71.489  1.00  0.00    -0.137 A  
HETATM   22  C   UNL     1      -8.980   2.591  73.455  1.00  0.00    -0.080 A  
HETATM   23  C   UNL     1      -8.779   3.859  72.882  1.00  0.00    -0.102 A  
HETATM   24  C   UNL     1      -9.075   1.639  71.281  1.00  0.00    -0.135 A  
HETATM   25  C   UNL     1      -8.874   2.917  70.691  1.00  0.00    -0.148 A  
HETATM   26  C   UNL     1      -9.104   1.477  72.658  1.00  0.00    -0.083 A  
HETATM   27  C   UNL     1      -8.829   2.913  69.210  1.00  0.00    -0.096 C  
HETATM   28  O   UNL     1      -9.840   2.139  68.755  1.00  0.00     0.005 OA 
HETATM   29  O   UNL     1      -7.990   3.425  68.495  1.00  0.00    -0.062 OA 
ENDBRANCH  20  21
ENDBRANCH  14  15
ENDBRANCH   8  14
BRANCH  11  30
HETATM   30  C   UNL     1     -11.564  13.384  69.836  1.00  0.00    -0.200 A  
HETATM   31  C   UNL     1     -13.507  14.345  72.632  1.00  0.00    -0.605 A  
HETATM   32  C   UNL     1     -13.476  15.567  73.316  1.00  0.00    -0.512 A  
HETATM   33  N   UNL     1     -12.489  13.064  70.728  1.00  0.00    -0.339 NA 
HETATM   34  C   UNL     1     -10.033  15.363  69.403  1.00  0.00    -0.272 C  
HETATM   35  C   UNL     1     -12.650  14.158  71.536  1.00  0.00    -0.354 A  
HETATM   36  C   UNL     1     -12.612  16.584  72.915  1.00  0.00    -0.111 A  
HETATM   37  N   UNL     1     -11.106  14.673  70.081  1.00  0.00    -0.184 NA 
HETATM   38  C   UNL     1     -11.798  15.187  71.156  1.00  0.00    -0.343 A  
HETATM   39  C   UNL     1     -11.753  16.417  71.824  1.00  0.00    -0.395 A  
ENDBRANCH  11  30
ENDBRANCH   3   4
ENDBRANCH   2   3
TORSDOF 6
ENDMDL
MODEL       68
REMARK 921   NORMALIZED FREE ENERGY PREDICTED BY IDOCK:   -5.35 KCAL/MOL
REMARK 922        TOTAL FREE ENERGY PREDICTED BY IDOCK:   -9.22 KCAL/MOL
REMARK 923 INTER-LIGAND FREE ENERGY PREDICTED BY IDOCK:   -8.67 KCAL/MOL
REMARK 924 INTRA-LIGAND FREE ENERGY PREDICTED BY IDOCK:   -0.55 KCAL/MOL
REMARK 927      BINDING AFFINITY PREDICTED BY RF-SCORE:    0.00 PKD
ROOT
HETATM    1  C   UNL     1      -9.448   3.778  67.580  1.00  0.00    -0.234 C  
HETATM    2  C   UNL     1      -9.033   4.816  66.546  1.00  0.00    -0.112 C  
ENDROOT
BRANCH   2   3
HETATM    3  C   UNL     1     -10.005   6.000  66.437  1.00  0.00    -0.145 C  
BRANCH   3   4
HETATM    4  C   UNL     1      -9.303   7.317  66.512  1.00  0.00    -0.170 A  
HETATM    5  N   UNL     1      -8.550   7.792  65.537  1.00  0.00    -0.135 NA 
HETATM    6  C   UNL     1      -7.992   8.951  66.007  1.00  0.00    -0.106 A  
HETATM    7  C   UNL     1      -8.446   9.213  67.290  1.00  0.00    -0.121 A  
HETATM    8  N   UNL     1      -9.329   8.194  67.581  1.00  0.00    -0.139 NA 
HETATM    9  C   UNL     1      -7.992  10.303  68.036  1.00  0.00    -0.101 A  
HETATM   10  C   UNL     1      -7.057   9.810  65.396  1.00  0.00    -0.113 A  
HETATM   11  C   UNL     1      -7.128  11.220  67.426  1.00  0.00    -0.109 A  
HETATM   12  C   UNL     1      -6.491   9.526  64.036  1.00  0.00    -0.100 C  
HETATM   13  C   UNL     1      -6.652  10.949  66.131  1.00  0.00    -0.108 A  
BRANCH   8  14
HETATM   14  C   UNL     1      -9.989   8.026  68.876  1.00  0.00    -0.195 C  
BRANCH  14  15
HETATM   15  C   UNL     1     -10.782   9.214  69.393  1.00  0.00    -0.210 A  
HETATM   16  C   UNL     1     -10.973   9.487  70.747  1.00  0.00    -0.389 A  
HETATM   17  C   UNL     1     -11.791  11.411  68.909  1.00  0.00    -0.413 A  
HETATM   18  C   UNL     1     -11.231  10.188  68.481  1.00  0.00    -0.226 A  
HETATM   19  C   UNL     1     -11.574  10.694  71.163  1.00  0.00    -0.127 A  
HETATM   20  C   UNL     1     -11.973  11.711  70.267  1.00  0.00    -0.445 A  
BRANCH  20  21
HETATM   21  C   UNL     1     -12.485  13.028  70.779  1.00  0.00    -0.384 A  
HETATM   22  C   UNL     1     -14.073  14.186  72.289  1.00  0.00    -0.630 A  
HETATM   23  C   UNL     1     -13.491  13.015  71.771  1.00  0.00    -0.401 A  
HETATM   24  C   UNL     1     -12.648  15.491  70.908  1.00  0.00    -0.512 A  
HETATM   25  C   UNL     1     -12.051  14.314  70.378  1.00  0.00    -0.409 A  
HETATM   26  C   UNL     1     -13.671  15.422  71.843  1.00  0.00    -0.603 A  
HETATM   27  C   UNL     1     -11.002  14.558  69.361  1.00  0.00    -0.249 C  
HETATM   28  O   UNL     1     -10.198  15.550  69.808  1.00  0.00    -0.269 OA 
HETATM   29  O   UNL     1     -10.902  14.045  68.264  1.00  0.00    -0.243 OA 
ENDBRANCH  20  21
ENDBRANCH  14  15
ENDBRANCH   8  14
BRANCH  11  30
HETATM   30  C   UNL     1      -6.693  12.441  68.125  1.00  0.00    -0.075 A  
HETATM   31  C   UNL     1      -6.342  15.927  68.617  1.00  0.00    -0.112 A  
HETATM   32  C   UNL     1      -5.752  16.582  69.706  1.00  0.00    -0.191 A  
HETATM   33  N   UNL     1      -6.909  13.668  67.678  1.00  0.00    -0.170 NA 
HETATM   34  C   UNL     1      -5.724  11.391  70.226  1.00  0.00    -0.143 C  
HETATM   35  C   UNL     1      -6.382  14.524  68.610  1.00  0.00    -0.086 A  
HETATM   36  C   UNL     1      -5.208  15.855  70.763  1.00  0.00    -0.164 A  
HETATM   37  N   UNL     1      -6.051  12.499  69.356  1.00  0.00    -0.099 NA 
HETATM   38  C   UNL     1      -5.833  13.821  69.675  1.00  0.00    -0.106 A  
HETATM   39  C   UNL     1      -5.236  14.457  70.771  1.00  0.00    -0.125 A  
ENDBRANCH  11  30
ENDBRANCH   3   4
ENDBRANCH   2   3
TORSDOF 6
ENDMDL
MODEL       69
REMARK 921   NORMALIZED FREE ENERGY PREDICTED BY IDOCK:   -5.27 KCAL/MOL
REMARK 922        TOTAL FREE ENERGY PREDICTED BY IDOCK:   -9.12 KCAL/MOL
REMARK 923 INTER-LIGAND FREE ENERGY PREDICTED BY IDOCK:   -7.03 KCAL/MOL
REMARK 924 INTRA-LIGAND FREE ENERGY PREDICTED BY IDOCK:   -2.09 KCAL/MOL
REMARK 927      BINDING AFFINITY PREDICTED BY RF-SCORE:    0.00 PKD
ROOT
HETATM    1  C   UNL     1     -10.217   6.219  74.552  1.00  0.00    -0.320 C  
HETATM    2  C   UNL     1     -10.672   5.010  73.746  1.00  0.00    -0.358 C  
ENDROOT
BRANCH   2   3
HETATM    3  C   UNL     1      -9.515   4.150  73.218  1.00  0.00    -0.130 C  
BRANCH   3   4
HETATM    4  C   UNL     1      -9.315   4.314  71.746  1.00  0.00    -0.137 A  
HETATM    5  N   UNL     1      -9.523   3.343  70.875  1.00  0.00    -0.154 NA 
HETATM    6  C   UNL     1      -9.132   3.826  69.655  1.00  0.00    -0.126 A  
HETATM    7  C   UNL     1      -8.709   5.141  69.775  1.00  0.00    -0.099 A  
HETATM    8  N   UNL     1      -8.886   5.462  71.105  1.00  0.00    -0.135 NA 
HETATM    9  C   UNL     1      -8.199   5.864  68.695  1.00  0.00    -0.109 A  
HETATM   10  C   UNL     1      -9.079   3.175  68.406  1.00  0.00    -0.211 A  
HETATM   11  C   UNL     1      -8.212   5.272  67.426  1.00  0.00    -0.103 A  
HETATM   12  C   UNL     1      -9.464   1.734  68.247  1.00  0.00    -0.234 C  
HETATM   13  C   UNL     1      -8.623   3.933  67.303  1.00  0.00    -0.108 A  
BRANCH   8  14
HETATM   14  C   UNL     1      -8.489   6.739  71.700  1.00  0.00    -0.115 C  
BRANCH  14  15
HETATM   15  C   UNL     1      -9.086   7.991  71.079  1.00  0.00    -0.166 A  
HETATM   16  C   UNL     1      -8.324   9.015  70.519  1.00  0.00    -0.205 A  
HETATM   17  C   UNL     1     -11.084   9.112  70.169  1.00  0.00    -0.248 A  
HETATM   18  C   UNL     1     -10.481   8.077  70.916  1.00  0.00    -0.223 A  
HETATM   19  C   UNL     1      -8.940  10.069  69.811  1.00  0.00    -0.209 A  
HETATM   20  C   UNL     1     -10.332  10.140  69.581  1.00  0.00    -0.278 A  
BRANCH  20  21
HETATM   21  C   UNL     1     -10.912  11.217  68.707  1.00  0.00    -0.270 A  
HETATM   22  C   UNL     1     -12.025  13.429  68.611  1.00  0.00    -0.362 A  
HETATM   23  C   UNL     1     -11.421  12.380  69.327  1.00  0.00    -0.349 A  
HETATM   24  C   UNL     1     -11.609  12.267  66.582  1.00  0.00    -0.438 A  
HETATM   25  C   UNL     1     -10.995  11.201  67.295  1.00  0.00    -0.354 A  
HETATM   26  C   UNL     1     -12.142  13.364  67.243  1.00  0.00    -0.352 A  
HETATM   27  C   UNL     1     -10.513  10.087  66.445  1.00  0.00    -0.129 C  
HETATM   28  O   UNL     1      -9.868  10.613  65.379  1.00  0.00    -0.230 OA 
HETATM   29  O   UNL     1     -10.721   8.900  66.595  1.00  0.00    -0.161 OA 
ENDBRANCH  20  21
ENDBRANCH  14  15
ENDBRANCH   8  14
BRANCH  11  30
HETATM   30  C   UNL     1      -7.779   6.019  66.231  1.00  0.00    -0.102 A  
HETATM   31  C   UNL     1      -8.180   8.159  63.444  1.00  0.00    -0.062 A  
HETATM   32  C   UNL     1      -7.191   8.598  62.553  1.00  0.00    -0.097 A  
HETATM   33  N   UNL     1      -8.587   6.759  65.487  1.00  0.00    -0.125 NA 
HETATM   34  C   UNL     1      -5.289   5.528  66.317  1.00  0.00    -0.012 C  
HETATM   35  C   UNL     1      -7.815   7.304  64.495  1.00  0.00    -0.121 A  
HETATM   36  C   UNL     1      -5.867   8.188  62.703  1.00  0.00    -0.074 A  
HETATM   37  N   UNL     1      -6.483   6.103  65.740  1.00  0.00    -0.042 NA 
HETATM   38  C   UNL     1      -6.489   6.910  64.623  1.00  0.00    -0.042 A  
HETATM   39  C   UNL     1      -5.486   7.334  63.742  1.00  0.00    -0.037 A  
ENDBRANCH  11  30
ENDBRANCH   3   4
ENDBRANCH   2   3
TORSDOF 6
ENDMDL
MODEL       70
REMARK 921   NORMALIZED FREE ENERGY PREDICTED BY IDOCK:   -5.24 KCAL/MOL
REMARK 922        TOTAL FREE ENERGY PREDICTED BY IDOCK:   -9.07 KCAL/MOL
REMARK 923 INTER-LIGAND FREE ENERGY PREDICTED BY IDOCK:   -7.28 KCAL/MOL
REMARK 924 INTRA-LIGAND FREE ENERGY PREDICTED BY IDOCK:   -1.80 KCAL/MOL
REMARK 927      BINDING AFFINITY PREDICTED BY RF-SCORE:    0.00 PKD
ROOT
HETATM    1  C   UNL     1     -11.774  14.403  69.438  1.00  0.00    -0.362 C  
HETATM    2  C   UNL     1     -11.901  14.365  67.921  1.00  0.00    -0.384 C  
ENDROOT
BRANCH   2   3
HETATM    3  C   UNL     1     -11.984  12.945  67.344  1.00  0.00    -0.360 C  
BRANCH   3   4
HETATM    4  C   UNL     1     -11.558  11.907  68.332  1.00  0.00    -0.317 A  
HETATM    5  N   UNL     1     -12.358  11.427  69.266  1.00  0.00    -0.306 NA 
HETATM    6  C   UNL     1     -11.595  10.592  70.039  1.00  0.00    -0.325 A  
HETATM    7  C   UNL     1     -10.303  10.529  69.540  1.00  0.00    -0.221 A  
HETATM    8  N   UNL     1     -10.306  11.326  68.414  1.00  0.00    -0.185 NA 
HETATM    9  C   UNL     1      -9.294   9.796  70.168  1.00  0.00    -0.261 A  
HETATM   10  C   UNL     1     -11.940   9.884  71.207  1.00  0.00    -0.489 A  
HETATM   11  C   UNL     1      -9.626   9.016  71.282  1.00  0.00    -0.361 A  
HETATM   12  C   UNL     1     -13.308   9.978  71.816  1.00  0.00    -0.492 C  
HETATM   13  C   UNL     1     -10.931   9.091  71.801  1.00  0.00    -0.443 A  
BRANCH   8  14
HETATM   14  C   UNL     1      -9.117  11.616  67.612  1.00  0.00    -0.174 C  
BRANCH  14  15
HETATM   15  C   UNL     1      -8.587  10.483  66.751  1.00  0.00    -0.126 A  
HETATM   16  C   UNL     1      -7.353   9.867  66.956  1.00  0.00    -0.091 A  
HETATM   17  C   UNL     1      -9.076   8.726  65.091  1.00  0.00    -0.104 A  
HETATM   18  C   UNL     1      -9.429   9.906  65.781  1.00  0.00    -0.280 A  
HETATM   19  C   UNL     1      -6.992   8.712  66.230  1.00  0.00    -0.077 A  
HETATM   20  C   UNL     1      -7.848   8.082  65.300  1.00  0.00    -0.113 A  
BRANCH  20  21
HETATM   21  C   UNL     1      -7.458   6.780  64.656  1.00  0.00    -0.097 A  
HETATM   22  C   UNL     1      -6.373   5.669  62.725  1.00  0.00    -0.021 A  
HETATM   23  C   UNL     1      -6.749   6.823  63.435  1.00  0.00    -0.043 A  
HETATM   24  C   UNL     1      -7.333   4.322  64.430  1.00  0.00    -0.070 A  
HETATM   25  C   UNL     1      -7.716   5.482  65.158  1.00  0.00    -0.091 A  
HETATM   26  C   UNL     1      -6.684   4.420  63.208  1.00  0.00    -0.038 A  
HETATM   27  C   UNL     1      -8.434   5.207  66.424  1.00  0.00    -0.112 C  
HETATM   28  O   UNL     1      -7.785   4.216  67.076  1.00  0.00    -0.090 OA 
HETATM   29  O   UNL     1      -9.480   5.697  66.802  1.00  0.00    -0.131 OA 
ENDBRANCH  20  21
ENDBRANCH  14  15
ENDBRANCH   8  14
BRANCH  11  30
HETATM   30  C   UNL     1      -8.630   8.144  71.928  1.00  0.00    -0.152 A  
HETATM   31  C   UNL     1      -6.258   7.224  74.386  1.00  0.00    -0.082 A  
HETATM   32  C   UNL     1      -5.549   6.018  74.483  1.00  0.00    -0.050 A  
HETATM   33  N   UNL     1      -7.968   8.464  73.030  1.00  0.00    -0.337 NA 
HETATM   34  C   UNL     1      -8.835   6.103  70.432  1.00  0.00    -0.149 C  
HETATM   35  C   UNL     1      -7.161   7.397  73.326  1.00  0.00    -0.074 A  
HETATM   36  C   UNL     1      -5.734   5.008  73.540  1.00  0.00    -0.022 A  
HETATM   37  N   UNL     1      -8.274   6.863  71.525  1.00  0.00    -0.109 NA 
HETATM   38  C   UNL     1      -7.327   6.376  72.399  1.00  0.00    -0.088 A  
HETATM   39  C   UNL     1      -6.627   5.165  72.476  1.00  0.00    -0.053 A  
ENDBRANCH  11  30
ENDBRANCH   3   4
ENDBRANCH   2   3
TORSDOF 6
ENDMDL
MODEL       71
REMARK 921   NORMALIZED FREE ENERGY PREDICTED BY IDOCK:   -5.11 KCAL/MOL
REMARK 922        TOTAL FREE ENERGY PREDICTED BY IDOCK:   -8.90 KCAL/MOL
REMARK 923 INTER-LIGAND FREE ENERGY PREDICTED BY IDOCK:   -7.01 KCAL/MOL
REMARK 924 INTRA-LIGAND FREE ENERGY PREDICTED BY IDOCK:   -1.90 KCAL/MOL
REMARK 927      BINDING AFFINITY PREDICTED BY RF-SCORE:    0.00 PKD
ROOT
HETATM    1  C   UNL     1      -5.899   7.373  74.248  1.00  0.00    -0.072 C  
HETATM    2  C   UNL     1      -7.273   7.385  73.591  1.00  0.00    -0.105 C  
ENDROOT
BRANCH   2   3
HETATM    3  C   UNL     1      -7.271   6.855  72.150  1.00  0.00    -0.082 C  
BRANCH   3   4
HETATM    4  C   UNL     1      -7.540   7.933  71.150  1.00  0.00    -0.080 A  
HETATM    5  N   UNL     1      -6.769   8.995  71.007  1.00  0.00    -0.079 NA 
HETATM    6  C   UNL     1      -7.385   9.802  70.089  1.00  0.00    -0.155 A  
HETATM    7  C   UNL     1      -8.546   9.199  69.627  1.00  0.00    -0.143 A  
HETATM    8  N   UNL     1      -8.604   7.979  70.268  1.00  0.00    -0.131 NA 
HETATM    9  C   UNL     1      -9.406   9.827  68.724  1.00  0.00    -0.150 A  
HETATM   10  C   UNL     1      -7.022  11.084  69.631  1.00  0.00    -0.110 A  
HETATM   11  C   UNL     1      -9.030  11.064  68.188  1.00  0.00    -0.152 A  
HETATM   12  C   UNL     1      -5.811  11.797  70.154  1.00  0.00    -0.156 C  
HETATM   13  C   UNL     1      -7.863  11.686  68.666  1.00  0.00    -0.132 A  
BRANCH   8  14
HETATM   14  C   UNL     1      -9.717   7.038  70.140  1.00  0.00    -0.175 C  
BRANCH  14  15
HETATM   15  C   UNL     1      -9.772   6.223  68.858  1.00  0.00    -0.144 A  
HETATM   16  C   UNL     1     -10.720   6.421  67.856  1.00  0.00    -0.372 A  
HETATM   17  C   UNL     1      -8.614   4.681  67.322  1.00  0.00    -0.104 A  
HETATM   18  C   UNL     1      -8.733   5.315  68.577  1.00  0.00    -0.099 A  
HETATM   19  C   UNL     1     -10.617   5.748  66.620  1.00  0.00    -0.347 A  
HETATM   20  C   UNL     1      -9.548   4.883  66.295  1.00  0.00    -0.180 A  
BRANCH  20  21
HETATM   21  C   UNL     1      -9.424   4.300  64.915  1.00  0.00    -0.169 A  
HETATM   22  C   UNL     1     -10.052   2.456  63.383  1.00  0.00    -0.134 A  
HETATM   23  C   UNL     1     -10.130   3.111  64.624  1.00  0.00     0.011 A  
HETATM   24  C   UNL     1      -8.597   4.159  62.590  1.00  0.00    -0.090 A  
HETATM   25  C   UNL     1      -8.670   4.831  63.841  1.00  0.00    -0.132 A  
HETATM   26  C   UNL     1      -9.269   2.964  62.373  1.00  0.00    -0.083 A  
HETATM   27  C   UNL     1      -7.865   6.072  63.923  1.00  0.00    -0.116 C  
HETATM   28  O   UNL     1      -8.063   6.783  62.790  1.00  0.00    -0.106 OA 
HETATM   29  O   UNL     1      -7.079   6.386  64.795  1.00  0.00    -0.053 OA 
ENDBRANCH  20  21
ENDBRANCH  14  15
ENDBRANCH   8  14
BRANCH  11  30
HETATM   30  C   UNL     1      -9.845  11.729  67.158  1.00  0.00    -0.193 A  
HETATM   31  C   UNL     1     -11.992  14.219  65.851  1.00  0.00    -0.400 A  
HETATM   32  C   UNL     1     -12.467  14.337  64.538  1.00  0.00    -0.357 A  
HETATM   33  N   UNL     1     -10.547  12.833  67.366  1.00  0.00    -0.228 NA 
HETATM   34  C   UNL     1      -9.278  10.256  65.168  1.00  0.00    -0.206 C  
HETATM   35  C   UNL     1     -11.143  13.149  66.173  1.00  0.00    -0.282 A  
HETATM   36  C   UNL     1     -12.106  13.405  63.566  1.00  0.00    -0.497 A  
HETATM   37  N   UNL     1      -9.963  11.345  65.828  1.00  0.00    -0.220 NA 
HETATM   38  C   UNL     1     -10.798  12.234  65.187  1.00  0.00    -0.301 A  
HETATM   39  C   UNL     1     -11.264  12.331  63.870  1.00  0.00    -0.488 A  
ENDBRANCH  11  30
ENDBRANCH   3   4
ENDBRANCH   2   3
TORSDOF 6
ENDMDL
MODEL       72
REMARK 921   NORMALIZED FREE ENERGY PREDICTED BY IDOCK:   -5.09 KCAL/MOL
REMARK 922        TOTAL FREE ENERGY PREDICTED BY IDOCK:   -8.87 KCAL/MOL
REMARK 923 INTER-LIGAND FREE ENERGY PREDICTED BY IDOCK:   -7.33 KCAL/MOL
REMARK 924 INTRA-LIGAND FREE ENERGY PREDICTED BY IDOCK:   -1.54 KCAL/MOL
REMARK 927      BINDING AFFINITY PREDICTED BY RF-SCORE:    0.00 PKD
ROOT
HETATM    1  C   UNL     1      -9.937   4.449  62.331  1.00  0.00    -0.072 C  
HETATM    2  C   UNL     1      -8.700   5.333  62.409  1.00  0.00    -0.087 C  
ENDROOT
BRANCH   2   3
HETATM    3  C   UNL     1      -7.504   4.663  63.099  1.00  0.00    -0.053 C  
BRANCH   3   4
HETATM    4  C   UNL     1      -7.663   4.613  64.585  1.00  0.00    -0.078 A  
HETATM    5  N   UNL     1      -8.134   3.559  65.227  1.00  0.00    -0.096 NA 
HETATM    6  C   UNL     1      -8.238   3.922  66.543  1.00  0.00    -0.100 A  
HETATM    7  C   UNL     1      -7.782   5.219  66.719  1.00  0.00    -0.096 A  
HETATM    8  N   UNL     1      -7.361   5.630  65.471  1.00  0.00    -0.071 NA 
HETATM    9  C   UNL     1      -7.828   5.867  67.954  1.00  0.00    -0.104 A  
HETATM   10  C   UNL     1      -8.752   3.197  67.637  1.00  0.00    -0.141 A  
HETATM   11  C   UNL     1      -8.254   5.145  69.075  1.00  0.00    -0.088 A  
HETATM   12  C   UNL     1      -9.316   1.816  67.477  1.00  0.00    -0.110 C  
HETATM   13  C   UNL     1      -8.735   3.835  68.899  1.00  0.00    -0.132 A  
BRANCH   8  14
HETATM   14  C   UNL     1      -6.875   6.978  65.173  1.00  0.00    -0.051 C  
BRANCH  14  15
HETATM   15  C   UNL     1      -7.933   8.051  64.973  1.00  0.00    -0.126 A  
HETATM   16  C   UNL     1      -8.933   8.335  65.902  1.00  0.00    -0.208 A  
HETATM   17  C   UNL     1      -8.654  10.056  63.733  1.00  0.00    -0.202 A  
HETATM   18  C   UNL     1      -7.830   8.918  63.869  1.00  0.00    -0.137 A  
HETATM   19  C   UNL     1      -9.779   9.451  65.736  1.00  0.00    -0.354 A  
HETATM   20  C   UNL     1      -9.651  10.368  64.669  1.00  0.00    -0.360 A  
BRANCH  20  21
HETATM   21  C   UNL     1     -10.498  11.610  64.618  1.00  0.00    -0.354 A  
HETATM   22  C   UNL     1     -12.208  12.900  63.373  1.00  0.00    -0.574 A  
HETATM   23  C   UNL     1     -11.402  11.761  63.544  1.00  0.00    -0.496 A  
HETATM   24  C   UNL     1     -11.319  13.814  65.377  1.00  0.00    -0.314 A  
HETATM   25  C   UNL     1     -10.500  12.666  65.560  1.00  0.00    -0.304 A  
HETATM   26  C   UNL     1     -12.152  13.936  64.274  1.00  0.00    -0.477 A  
HETATM   27  C   UNL     1      -9.640  12.707  66.766  1.00  0.00    -0.241 C  
HETATM   28  O   UNL     1     -10.385  13.148  67.805  1.00  0.00    -0.222 OA 
HETATM   29  O   UNL     1      -8.447  12.485  66.831  1.00  0.00    -0.186 OA 
ENDBRANCH  20  21
ENDBRANCH  14  15
ENDBRANCH   8  14
BRANCH  11  30
HETATM   30  C   UNL     1      -8.232   5.742  70.422  1.00  0.00    -0.107 A  
HETATM   31  C   UNL     1      -6.800   6.642  73.529  1.00  0.00    -0.076 A  
HETATM   32  C   UNL     1      -7.394   7.376  74.564  1.00  0.00    -0.144 A  
HETATM   33  N   UNL     1      -7.181   5.714  71.227  1.00  0.00    -0.071 NA 
HETATM   34  C   UNL     1     -10.541   6.799  70.444  1.00  0.00    -0.227 C  
HETATM   35  C   UNL     1      -7.542   6.387  72.365  1.00  0.00    -0.097 A  
HETATM   36  C   UNL     1      -8.702   7.842  74.445  1.00  0.00    -0.169 A  
HETATM   37  N   UNL     1      -9.263   6.453  71.023  1.00  0.00    -0.154 NA 
HETATM   38  C   UNL     1      -8.844   6.861  72.270  1.00  0.00    -0.134 A  
HETATM   39  C   UNL     1      -9.457   7.594  73.294  1.00  0.00    -0.317 A  
ENDBRANCH  11  30
ENDBRANCH   3   4
ENDBRANCH   2   3
TORSDOF 6
ENDMDL
MODEL       73
REMARK 921   NORMALIZED FREE ENERGY PREDICTED BY IDOCK:   -5.06 KCAL/MOL
REMARK 922        TOTAL FREE ENERGY PREDICTED BY IDOCK:   -8.83 KCAL/MOL
REMARK 923 INTER-LIGAND FREE ENERGY PREDICTED BY IDOCK:   -8.22 KCAL/MOL
REMARK 924 INTRA-LIGAND FREE ENERGY PREDICTED BY IDOCK:   -0.61 KCAL/MOL
REMARK 927      BINDING AFFINITY PREDICTED BY RF-SCORE:    0.00 PKD
ROOT
HETATM    1  C   UNL     1     -10.303   7.224  73.741  1.00  0.00    -0.360 C  
HETATM    2  C   UNL     1     -10.562   5.822  74.274  1.00  0.00    -0.137 C  
ENDROOT
BRANCH   2   3
HETATM    3  C   UNL     1     -10.940   4.808  73.185  1.00  0.00    -0.374 C  
BRANCH   3   4
HETATM    4  C   UNL     1     -10.117   4.972  71.949  1.00  0.00    -0.197 A  
HETATM    5  N   UNL     1      -8.887   4.505  71.831  1.00  0.00    -0.116 NA 
HETATM    6  C   UNL     1      -8.421   4.940  70.619  1.00  0.00    -0.105 A  
HETATM    7  C   UNL     1      -9.405   5.661  69.960  1.00  0.00    -0.149 A  
HETATM    8  N   UNL     1     -10.504   5.624  70.793  1.00  0.00    -0.251 NA 
HETATM    9  C   UNL     1      -9.182   6.274  68.726  1.00  0.00    -0.125 A  
HETATM   10  C   UNL     1      -7.147   4.784  70.038  1.00  0.00    -0.050 A  
HETATM   11  C   UNL     1      -7.955   6.066  68.085  1.00  0.00    -0.110 A  
HETATM   12  C   UNL     1      -6.035   4.068  70.747  1.00  0.00    -0.014 C  
HETATM   13  C   UNL     1      -6.949   5.350  68.757  1.00  0.00    -0.060 A  
BRANCH   8  14
HETATM   14  C   UNL     1     -11.757   6.333  70.528  1.00  0.00    -0.219 C  
BRANCH  14  15
HETATM   15  C   UNL     1     -11.713   7.849  70.627  1.00  0.00    -0.169 A  
HETATM   16  C   UNL     1     -10.746   8.637  70.004  1.00  0.00    -0.233 A  
HETATM   17  C   UNL     1     -12.900   9.932  71.201  1.00  0.00    -0.461 A  
HETATM   18  C   UNL     1     -12.776   8.526  71.252  1.00  0.00    -0.221 A  
HETATM   19  C   UNL     1     -10.856  10.044  69.996  1.00  0.00    -0.352 A  
HETATM   20  C   UNL     1     -11.948  10.739  70.561  1.00  0.00    -0.456 A  
BRANCH  20  21
HETATM   21  C   UNL     1     -12.074  12.229  70.404  1.00  0.00    -0.385 A  
HETATM   22  C   UNL     1     -12.748  14.371  71.452  1.00  0.00    -0.413 A  
HETATM   23  C   UNL     1     -12.550  12.980  71.502  1.00  0.00    -0.279 A  
HETATM   24  C   UNL     1     -11.953  14.392  69.214  1.00  0.00    -0.362 A  
HETATM   25  C   UNL     1     -11.747  12.985  69.254  1.00  0.00    -0.375 A  
HETATM   26  C   UNL     1     -12.473  15.075  70.303  1.00  0.00    -0.385 A  
HETATM   27  C   UNL     1     -11.222  12.402  67.997  1.00  0.00    -0.268 C  
HETATM   28  O   UNL     1     -10.223  13.194  67.545  1.00  0.00    -0.222 OA 
HETATM   29  O   UNL     1     -11.650  11.438  67.394  1.00  0.00    -0.509 OA 
ENDBRANCH  20  21
ENDBRANCH  14  15
ENDBRANCH   8  14
BRANCH  11  30
HETATM   30  C   UNL     1      -7.697   6.603  66.738  1.00  0.00    -0.106 A  
HETATM   31  C   UNL     1      -6.902   6.436  63.295  1.00  0.00    -0.045 A  
HETATM   32  C   UNL     1      -6.843   7.494  62.378  1.00  0.00    -0.075 A  
HETATM   33  N   UNL     1      -7.371   5.858  65.693  1.00  0.00    -0.074 NA 
HETATM   34  C   UNL     1      -8.231   9.050  67.160  1.00  0.00    -0.110 C  
HETATM   35  C   UNL     1      -7.238   6.712  64.629  1.00  0.00    -0.071 A  
HETATM   36  C   UNL     1      -7.110   8.801  62.783  1.00  0.00    -0.093 A  
HETATM   37  N   UNL     1      -7.801   7.933  66.350  1.00  0.00    -0.095 NA 
HETATM   38  C   UNL     1      -7.499   8.022  65.008  1.00  0.00    -0.087 A  
HETATM   39  C   UNL     1      -7.443   9.094  64.109  1.00  0.00    -0.109 A  
ENDBRANCH  11  30
ENDBRANCH   3   4
ENDBRANCH   2   3
TORSDOF 6
ENDMDL
MODEL       74
REMARK 921   NORMALIZED FREE ENERGY PREDICTED BY IDOCK:   -5.04 KCAL/MOL
REMARK 922        TOTAL FREE ENERGY PREDICTED BY IDOCK:   -8.80 KCAL/MOL
REMARK 923 INTER-LIGAND FREE ENERGY PREDICTED BY IDOCK:   -8.41 KCAL/MOL
REMARK 924 INTRA-LIGAND FREE ENERGY PREDICTED BY IDOCK:   -0.39 KCAL/MOL
REMARK 927      BINDING AFFINITY PREDICTED BY RF-SCORE:    0.00 PKD
ROOT
HETATM    1  C   UNL     1      -9.954  20.195  65.958  1.00  0.00    -0.487 C  
HETATM    2  C   UNL     1     -10.574  18.805  65.990  1.00  0.00    -0.442 C  
ENDROOT
BRANCH   2   3
HETATM    3  C   UNL     1     -10.719  18.227  67.405  1.00  0.00    -0.377 C  
BRANCH   3   4
HETATM    4  C   UNL     1      -9.789  17.082  67.646  1.00  0.00    -0.257 A  
HETATM    5  N   UNL     1      -8.474  17.200  67.620  1.00  0.00    -0.199 NA 
HETATM    6  C   UNL     1      -7.968  15.937  67.771  1.00  0.00    -0.141 A  
HETATM    7  C   UNL     1      -9.000  15.025  67.934  1.00  0.00    -0.175 A  
HETATM    8  N   UNL     1     -10.158  15.776  67.912  1.00  0.00    -0.228 NA 
HETATM    9  C   UNL     1      -8.774  13.652  68.050  1.00  0.00    -0.176 A  
HETATM   10  C   UNL     1      -6.631  15.495  67.741  1.00  0.00    -0.181 A  
HETATM   11  C   UNL     1      -7.453  13.193  68.109  1.00  0.00    -0.131 A  
HETATM   12  C   UNL     1      -5.490  16.439  67.501  1.00  0.00    -0.171 C  
HETATM   13  C   UNL     1      -6.404  14.111  67.927  1.00  0.00    -0.173 A  
BRANCH   8  14
HETATM   14  C   UNL     1     -11.505  15.207  67.969  1.00  0.00    -0.342 C  
BRANCH  14  15
HETATM   15  C   UNL     1     -11.598  13.705  68.176  1.00  0.00    -0.367 A  
HETATM   16  C   UNL     1     -11.577  12.777  67.135  1.00  0.00    -0.426 A  
HETATM   17  C   UNL     1     -11.432  11.805  69.739  1.00  0.00    -0.320 A  
HETATM   18  C   UNL     1     -11.555  13.188  69.485  1.00  0.00    -0.347 A  
HETATM   19  C   UNL     1     -11.497  11.394  67.401  1.00  0.00    -0.328 A  
HETATM   20  C   UNL     1     -11.389  10.860  68.704  1.00  0.00    -0.360 A  
BRANCH  20  21
HETATM   21  C   UNL     1     -11.175   9.386  68.915  1.00  0.00     0.096 A  
HETATM   22  C   UNL     1     -10.413   7.244  67.930  1.00  0.00    -0.267 A  
HETATM   23  C   UNL     1     -10.616   8.633  67.858  1.00  0.00    -0.223 A  
HETATM   24  C   UNL     1     -11.259   7.247  70.150  1.00  0.00    -0.264 A  
HETATM   25  C   UNL     1     -11.466   8.653  70.089  1.00  0.00    -0.009 A  
HETATM   26  C   UNL     1     -10.755   6.546  69.064  1.00  0.00    -0.324 A  
HETATM   27  C   UNL     1     -12.047   9.245  71.317  1.00  0.00    -0.337 C  
HETATM   28  O   UNL     1     -11.398   8.728  72.386  1.00  0.00    -0.338 OA 
HETATM   29  O   UNL     1     -13.001   9.992  71.398  1.00  0.00    -0.358 OA 
ENDBRANCH  20  21
ENDBRANCH  14  15
ENDBRANCH   8  14
BRANCH  11  30
HETATM   30  C   UNL     1      -7.150  11.768  68.330  1.00  0.00    -0.085 A  
HETATM   31  C   UNL     1      -6.088   8.945  70.178  1.00  0.00    -0.037 A  
HETATM   32  C   UNL     1      -6.066   7.607  69.761  1.00  0.00    -0.027 A  
HETATM   33  N   UNL     1      -6.674  11.279  69.465  1.00  0.00    -0.124 NA 
HETATM   34  C   UNL     1      -7.954  10.825  66.114  1.00  0.00    -0.157 C  
HETATM   35  C   UNL     1      -6.548   9.926  69.287  1.00  0.00    -0.049 A  
HETATM   36  C   UNL     1      -6.491   7.256  68.480  1.00  0.00    -0.040 A  
HETATM   37  N   UNL     1      -7.356  10.734  67.426  1.00  0.00    -0.092 NA 
HETATM   38  C   UNL     1      -6.965   9.552  68.017  1.00  0.00    -0.079 A  
HETATM   39  C   UNL     1      -6.949   8.222  67.579  1.00  0.00    -0.075 A  
ENDBRANCH  11  30
ENDBRANCH   3   4
ENDBRANCH   2   3
TORSDOF 6
ENDMDL
MODEL       75
REMARK 921   NORMALIZED FREE ENERGY PREDICTED BY IDOCK:   -5.00 KCAL/MOL
REMARK 922        TOTAL FREE ENERGY PREDICTED BY IDOCK:   -8.75 KCAL/MOL
REMARK 923 INTER-LIGAND FREE ENERGY PREDICTED BY IDOCK:   -7.01 KCAL/MOL
REMARK 924 INTRA-LIGAND FREE ENERGY PREDICTED BY IDOCK:   -1.74 KCAL/MOL
REMARK 927      BINDING AFFINITY PREDICTED BY RF-SCORE:    0.00 PKD
ROOT
HETATM    1  C   UNL     1      -5.546  15.504  70.864  1.00  0.00    -0.002 C  
HETATM    2  C   UNL     1      -6.112  14.103  71.046  1.00  0.00    -0.123 C  
ENDROOT
BRANCH   2   3
HETATM    3  C   UNL     1      -5.127  12.986  70.676  1.00  0.00    -0.116 C  
BRANCH   3   4
HETATM    4  C   UNL     1      -5.821  11.706  70.341  1.00  0.00    -0.156 A  
HETATM    5  N   UNL     1      -6.114  10.785  71.242  1.00  0.00    -0.317 NA 
HETATM    6  C   UNL     1      -6.637   9.722  70.555  1.00  0.00    -0.117 A  
HETATM    7  C   UNL     1      -6.703  10.015  69.201  1.00  0.00    -0.055 A  
HETATM    8  N   UNL     1      -6.234  11.307  69.084  1.00  0.00    -0.052 NA 
HETATM    9  C   UNL     1      -7.142   9.086  68.256  1.00  0.00    -0.077 A  
HETATM   10  C   UNL     1      -7.042   8.459  71.028  1.00  0.00    -0.061 A  
HETATM   11  C   UNL     1      -7.630   7.853  68.704  1.00  0.00    -0.101 A  
HETATM   12  C   UNL     1      -6.925   8.079  72.474  1.00  0.00    -0.093 C  
HETATM   13  C   UNL     1      -7.549   7.545  70.074  1.00  0.00    -0.088 A  
BRANCH   8  14
HETATM   14  C   UNL     1      -6.051  11.999  67.807  1.00  0.00    -0.081 C  
BRANCH  14  15
HETATM   15  C   UNL     1      -6.876  13.257  67.593  1.00  0.00    -0.168 A  
HETATM   16  C   UNL     1      -8.244  13.339  67.850  1.00  0.00    -0.163 A  
HETATM   17  C   UNL     1      -6.896  15.698  67.246  1.00  0.00    -0.197 A  
HETATM   18  C   UNL     1      -6.222  14.458  67.260  1.00  0.00     0.418 A  
HETATM   19  C   UNL     1      -8.918  14.577  67.792  1.00  0.00    -0.190 A  
HETATM   20  C   UNL     1      -8.268  15.801  67.522  1.00  0.00    -0.181 A  
BRANCH  20  21
HETATM   21  C   UNL     1      -9.017  17.103  67.604  1.00  0.00    -0.226 A  
HETATM   22  C   UNL     1      -9.232  19.300  68.731  1.00  0.00    -0.421 A  
HETATM   23  C   UNL     1      -8.580  18.068  68.538  1.00  0.00    -0.306 A  
HETATM   24  C   UNL     1     -10.783  18.731  67.024  1.00  0.00    -0.435 A  
HETATM   25  C   UNL     1     -10.131  17.484  66.820  1.00  0.00    -0.320 A  
HETATM   26  C   UNL     1     -10.345  19.623  67.992  1.00  0.00    -0.579 A  
HETATM   27  C   UNL     1     -10.744  16.630  65.776  1.00  0.00    -0.204 C  
HETATM   28  O   UNL     1     -11.020  17.403  64.701  1.00  0.00    -0.959 OA 
HETATM   29  O   UNL     1     -11.051  15.458  65.865  1.00  0.00    -0.321 OA 
ENDBRANCH  20  21
ENDBRANCH  14  15
ENDBRANCH   8  14
BRANCH  11  30
HETATM   30  C   UNL     1      -8.199   6.870  67.765  1.00  0.00    -0.117 A  
HETATM   31  C   UNL     1      -8.111   4.259  65.381  1.00  0.00    -0.101 A  
HETATM   32  C   UNL     1      -9.199   3.607  64.785  1.00  0.00    -0.145 A  
HETATM   33  N   UNL     1      -7.474   6.044  67.027  1.00  0.00    -0.083 NA 
HETATM   34  C   UNL     1     -10.668   7.238  68.231  1.00  0.00    -0.123 C  
HETATM   35  C   UNL     1      -8.358   5.280  66.311  1.00  0.00    -0.114 A  
HETATM   36  C   UNL     1     -10.506   3.968  65.107  1.00  0.00    -0.116 A  
HETATM   37  N   UNL     1      -9.549   6.626  67.551  1.00  0.00    -0.124 NA 
HETATM   38  C   UNL     1      -9.669   5.621  66.615  1.00  0.00    -0.158 A  
HETATM   39  C   UNL     1     -10.771   4.985  66.029  1.00  0.00    -0.241 A  
ENDBRANCH  11  30
ENDBRANCH   3   4
ENDBRANCH   2   3
TORSDOF 6
ENDMDL
MODEL       76
REMARK 921   NORMALIZED FREE ENERGY PREDICTED BY IDOCK:   -4.99 KCAL/MOL
REMARK 922        TOTAL FREE ENERGY PREDICTED BY IDOCK:   -8.74 KCAL/MOL
REMARK 923 INTER-LIGAND FREE ENERGY PREDICTED BY IDOCK:   -7.02 KCAL/MOL
REMARK 924 INTRA-LIGAND FREE ENERGY PREDICTED BY IDOCK:   -1.72 KCAL/MOL
REMARK 927      BINDING AFFINITY PREDICTED BY RF-SCORE:    0.00 PKD
ROOT
HETATM    1  C   UNL     1     -11.277  15.949  69.064  1.00  0.00    -0.327 C  
HETATM    2  C   UNL     1     -11.172  14.576  68.414  1.00  0.00    -0.290 C  
ENDROOT
BRANCH   2   3
HETATM    3  C   UNL     1      -9.787  13.930  68.556  1.00  0.00    -0.214 C  
BRANCH   3   4
HETATM    4  C   UNL     1      -9.543  12.880  67.521  1.00  0.00    -0.200 A  
HETATM    5  N   UNL     1     -10.155  12.862  66.351  1.00  0.00    -0.263 NA 
HETATM    6  C   UNL     1      -9.766  11.707  65.727  1.00  0.00    -0.236 A  
HETATM    7  C   UNL     1      -8.861  11.018  66.520  1.00  0.00    -0.169 A  
HETATM    8  N   UNL     1      -8.680  11.806  67.638  1.00  0.00    -0.153 NA 
HETATM    9  C   UNL     1      -8.343   9.774  66.155  1.00  0.00    -0.122 A  
HETATM   10  C   UNL     1     -10.179  11.170  64.492  1.00  0.00    -0.383 A  
HETATM   11  C   UNL     1      -8.670   9.254  64.897  1.00  0.00    -0.224 A  
HETATM   12  C   UNL     1     -11.205  11.851  63.636  1.00  0.00    -0.522 C  
HETATM   13  C   UNL     1      -9.601   9.941  64.097  1.00  0.00    -0.177 A  
BRANCH   8  14
HETATM   14  C   UNL     1      -7.861  11.421  68.788  1.00  0.00    -0.128 C  
BRANCH  14  15
HETATM   15  C   UNL     1      -8.409  10.313  69.671  1.00  0.00    -0.139 A  
HETATM   16  C   UNL     1      -9.747   9.921  69.679  1.00  0.00    -0.252 A  
HETATM   17  C   UNL     1      -7.930   8.359  71.096  1.00  0.00    -0.127 A  
HETATM   18  C   UNL     1      -7.514   9.526  70.419  1.00  0.00    -0.158 A  
HETATM   19  C   UNL     1     -10.160   8.777  70.394  1.00  0.00    -0.223 A  
HETATM   20  C   UNL     1      -9.268   7.939  71.099  1.00  0.00    -0.165 A  
BRANCH  20  21
HETATM   21  C   UNL     1      -9.750   6.662  71.731  1.00  0.00    -0.168 A  
HETATM   22  C   UNL     1     -10.859   5.608  73.680  1.00  0.00    -0.261 A  
HETATM   23  C   UNL     1     -10.407   6.740  72.979  1.00  0.00    -0.252 A  
HETATM   24  C   UNL     1     -10.089   4.221  71.913  1.00  0.00    -0.237 A  
HETATM   25  C   UNL     1      -9.629   5.359  71.194  1.00  0.00    -0.214 A  
HETATM   26  C   UNL     1     -10.681   4.348  73.161  1.00  0.00    -0.296 A  
HETATM   27  C   UNL     1      -8.987   5.050  69.895  1.00  0.00    -0.106 C  
HETATM   28  O   UNL     1      -9.747   4.137  69.250  1.00  0.00    -0.189 OA 
HETATM   29  O   UNL     1      -7.916   5.453  69.486  1.00  0.00    -0.086 OA 
ENDBRANCH  20  21
ENDBRANCH  14  15
ENDBRANCH   8  14
BRANCH  11  30
HETATM   30  C   UNL     1      -8.078   7.994  64.414  1.00  0.00    -0.123 A  
HETATM   31  C   UNL     1      -6.052   5.968  62.340  1.00  0.00    -0.026 A  
HETATM   32  C   UNL     1      -5.845   4.585  62.433  1.00  0.00    -0.013 A  
HETATM   33  N   UNL     1      -7.246   7.912  63.387  1.00  0.00    -0.086 NA 
HETATM   34  C   UNL     1      -9.000   6.405  66.168  1.00  0.00    -0.150 C  
HETATM   35  C   UNL     1      -6.902   6.591  63.267  1.00  0.00    -0.046 A  
HETATM   36  C   UNL     1      -6.476   3.838  63.427  1.00  0.00    -0.030 A  
HETATM   37  N   UNL     1      -8.253   6.736  64.975  1.00  0.00    -0.123 NA 
HETATM   38  C   UNL     1      -7.519   5.825  64.247  1.00  0.00    -0.072 A  
HETATM   39  C   UNL     1      -7.328   4.442  64.356  1.00  0.00    -0.070 A  
ENDBRANCH  11  30
ENDBRANCH   3   4
ENDBRANCH   2   3
TORSDOF 6
ENDMDL
MODEL       77
REMARK 921   NORMALIZED FREE ENERGY PREDICTED BY IDOCK:   -4.98 KCAL/MOL
REMARK 922        TOTAL FREE ENERGY PREDICTED BY IDOCK:   -8.72 KCAL/MOL
REMARK 923 INTER-LIGAND FREE ENERGY PREDICTED BY IDOCK:   -7.23 KCAL/MOL
REMARK 924 INTRA-LIGAND FREE ENERGY PREDICTED BY IDOCK:   -1.50 KCAL/MOL
REMARK 927      BINDING AFFINITY PREDICTED BY RF-SCORE:    0.00 PKD
ROOT
HETATM    1  C   UNL     1      -6.039   9.154  74.551  1.00  0.00    -0.065 C  
HETATM    2  C   UNL     1      -7.192   8.457  73.841  1.00  0.00    -0.156 C  
ENDROOT
BRANCH   2   3
HETATM    3  C   UNL     1      -6.812   7.877  72.471  1.00  0.00    -0.079 C  
BRANCH   3   4
HETATM    4  C   UNL     1      -7.122   8.818  71.353  1.00  0.00    -0.090 A  
HETATM    5  N   UNL     1      -6.351   9.842  71.034  1.00  0.00    -0.265 NA 
HETATM    6  C   UNL     1      -7.006  10.530  70.048  1.00  0.00    -0.146 A  
HETATM    7  C   UNL     1      -8.192   9.888  69.726  1.00  0.00    -0.180 A  
HETATM    8  N   UNL     1      -8.227   8.763  70.524  1.00  0.00    -0.116 NA 
HETATM    9  C   UNL     1      -9.091  10.404  68.791  1.00  0.00    -0.165 A  
HETATM   10  C   UNL     1      -6.657  11.736  69.409  1.00  0.00    -0.113 A  
HETATM   11  C   UNL     1      -8.733  11.555  68.079  1.00  0.00    -0.151 A  
HETATM   12  C   UNL     1      -5.416  12.495  69.775  1.00  0.00    -0.092 C  
HETATM   13  C   UNL     1      -7.539  12.218  68.415  1.00  0.00    -0.128 A  
BRANCH   8  14
HETATM   14  C   UNL     1      -9.352   7.828  70.573  1.00  0.00    -0.163 C  
BRANCH  14  15
HETATM   15  C   UNL     1      -9.351   6.711  69.544  1.00  0.00    -0.145 A  
HETATM   16  C   UNL     1     -10.447   5.883  69.300  1.00  0.00    -0.342 A  
HETATM   17  C   UNL     1      -8.273   5.700  67.571  1.00  0.00    -0.101 A  
HETATM   18  C   UNL     1      -8.252   6.579  68.675  1.00  0.00    -0.118 A  
HETATM   19  C   UNL     1     -10.441   4.977  68.218  1.00  0.00    -0.015 A  
HETATM   20  C   UNL     1      -9.374   4.875  67.298  1.00  0.00    -0.142 A  
BRANCH  20  21
HETATM   21  C   UNL     1      -9.483   3.985  66.091  1.00  0.00    -0.192 A  
HETATM   22  C   UNL     1     -10.601   3.571  63.919  1.00  0.00    -0.269 A  
HETATM   23  C   UNL     1     -10.386   4.351  65.068  1.00  0.00    -0.165 A  
HETATM   24  C   UNL     1      -8.980   2.014  64.687  1.00  0.00    -0.121 A  
HETATM   25  C   UNL     1      -8.753   2.796  65.853  1.00  0.00    -0.130 A  
HETATM   26  C   UNL     1      -9.917   2.392  63.737  1.00  0.00    -0.142 A  
HETATM   27  C   UNL     1      -7.749   2.235  66.787  1.00  0.00    -0.070 C  
HETATM   28  O   UNL     1      -6.683   1.819  66.066  1.00  0.00    -0.029 OA 
HETATM   29  O   UNL     1      -7.863   2.073  67.985  1.00  0.00    -0.057 OA 
ENDBRANCH  20  21
ENDBRANCH  14  15
ENDBRANCH   8  14
BRANCH  11  30
HETATM   30  C   UNL     1      -9.593  12.091  67.010  1.00  0.00    -0.195 A  
HETATM   31  C   UNL     1     -11.274  12.054  63.898  1.00  0.00    -0.490 A  
HETATM   32  C   UNL     1     -12.132  13.032  63.377  1.00  0.00    -0.591 A  
HETATM   33  N   UNL     1      -9.853  11.454  65.879  1.00  0.00    -0.217 NA 
HETATM   34  C   UNL     1     -10.359  14.236  68.134  1.00  0.00    -0.233 C  
HETATM   35  C   UNL     1     -10.701  12.258  65.162  1.00  0.00    -0.293 A  
HETATM   36  C   UNL     1     -12.410  14.192  64.100  1.00  0.00    -0.372 A  
HETATM   37  N   UNL     1     -10.289  13.293  67.041  1.00  0.00    -0.245 NA 
HETATM   38  C   UNL     1     -10.992  13.422  65.863  1.00  0.00    -0.274 A  
HETATM   39  C   UNL     1     -11.844  14.413  65.360  1.00  0.00    -0.366 A  
ENDBRANCH  11  30
ENDBRANCH   3   4
ENDBRANCH   2   3
TORSDOF 6
ENDMDL
MODEL       78
REMARK 921   NORMALIZED FREE ENERGY PREDICTED BY IDOCK:   -4.96 KCAL/MOL
REMARK 922        TOTAL FREE ENERGY PREDICTED BY IDOCK:   -8.70 KCAL/MOL
REMARK 923 INTER-LIGAND FREE ENERGY PREDICTED BY IDOCK:   -8.50 KCAL/MOL
REMARK 924 INTRA-LIGAND FREE ENERGY PREDICTED BY IDOCK:   -0.20 KCAL/MOL
REMARK 927      BINDING AFFINITY PREDICTED BY RF-SCORE:    0.00 PKD
ROOT
HETATM    1  C   UNL     1     -11.750   3.905  73.230  1.00  0.00     0.024 C  
HETATM    2  C   UNL     1     -10.591   4.873  73.030  1.00  0.00    -0.280 C  
ENDROOT
BRANCH   2   3
HETATM    3  C   UNL     1      -9.970   4.810  71.628  1.00  0.00    -0.257 C  
BRANCH   3   4
HETATM    4  C   UNL     1      -9.118   6.002  71.332  1.00  0.00    -0.143 A  
HETATM    5  N   UNL     1      -7.894   6.152  71.805  1.00  0.00    -0.101 NA 
HETATM    6  C   UNL     1      -7.479   7.398  71.419  1.00  0.00    -0.080 A  
HETATM    7  C   UNL     1      -8.459   8.013  70.656  1.00  0.00    -0.125 A  
HETATM    8  N   UNL     1      -9.479   7.089  70.557  1.00  0.00    -0.166 NA 
HETATM    9  C   UNL     1      -8.326   9.318  70.178  1.00  0.00    -0.189 A  
HETATM   10  C   UNL     1      -6.284   8.080  71.722  1.00  0.00    -0.042 A  
HETATM   11  C   UNL     1      -7.117   9.990  70.391  1.00  0.00    -0.131 A  
HETATM   12  C   UNL     1      -5.227   7.476  72.598  1.00  0.00    -0.037 C  
HETATM   13  C   UNL     1      -6.126   9.377  71.179  1.00  0.00    -0.078 A  
BRANCH   8  14
HETATM   14  C   UNL     1     -10.760   7.350  69.900  1.00  0.00    -0.243 C  
BRANCH  14  15
HETATM   15  C   UNL     1     -11.400   8.700  70.175  1.00  0.00    -0.083 A  
HETATM   16  C   UNL     1     -11.846   9.104  71.433  1.00  0.00    -0.415 A  
HETATM   17  C   UNL     1     -11.812  11.003  69.399  1.00  0.00    -0.407 A  
HETATM   18  C   UNL     1     -11.421   9.669  69.155  1.00  0.00     0.124 A  
HETATM   19  C   UNL     1     -12.276  10.429  71.657  1.00  0.00    -0.340 A  
HETATM   20  C   UNL     1     -12.244  11.432  70.663  1.00  0.00    -0.484 A  
BRANCH  20  21
HETATM   21  C   UNL     1     -12.591  12.856  70.998  1.00  0.00    -0.376 A  
HETATM   22  C   UNL     1     -13.895  14.382  72.451  1.00  0.00    -0.595 A  
HETATM   23  C   UNL     1     -13.469  13.095  72.078  1.00  0.00    -0.598 A  
HETATM   24  C   UNL     1     -12.550  15.313  70.729  1.00  0.00    -0.474 A  
HETATM   25  C   UNL     1     -12.111  14.016  70.344  1.00  0.00    -0.426 A  
HETATM   26  C   UNL     1     -13.456  15.489  71.765  1.00  0.00    -0.576 A  
HETATM   27  C   UNL     1     -11.174  13.996  69.196  1.00  0.00    -0.269 C  
HETATM   28  O   UNL     1     -10.251  14.966  69.384  1.00  0.00    -0.216 OA 
HETATM   29  O   UNL     1     -11.245  13.310  68.197  1.00  0.00    -0.245 OA 
ENDBRANCH  20  21
ENDBRANCH  14  15
ENDBRANCH   8  14
BRANCH  11  30
HETATM   30  C   UNL     1      -6.878  11.330  69.827  1.00  0.00    -0.058 A  
HETATM   31  C   UNL     1      -5.382  14.529  69.631  1.00  0.00    -0.092 A  
HETATM   32  C   UNL     1      -5.585  15.510  68.651  1.00  0.00    -0.092 A  
HETATM   33  N   UNL     1      -6.038  12.213  70.343  1.00  0.00    -0.203 NA 
HETATM   34  C   UNL     1      -8.330  11.167  67.749  1.00  0.00    -0.123 C  
HETATM   35  C   UNL     1      -6.078  13.315  69.529  1.00  0.00    -0.112 A  
HETATM   36  C   UNL     1      -6.467  15.288  67.595  1.00  0.00    -0.188 A  
HETATM   37  N   UNL     1      -7.442  11.845  68.666  1.00  0.00    -0.117 NA 
HETATM   38  C   UNL     1      -6.951  13.117  68.468  1.00  0.00    -0.103 A  
HETATM   39  C   UNL     1      -7.171  14.085  67.480  1.00  0.00    -0.183 A  
ENDBRANCH  11  30
ENDBRANCH   3   4
ENDBRANCH   2   3
TORSDOF 6
ENDMDL
MODEL       79
REMARK 921   NORMALIZED FREE ENERGY PREDICTED BY IDOCK:   -4.90 KCAL/MOL
REMARK 922        TOTAL FREE ENERGY PREDICTED BY IDOCK:   -8.62 KCAL/MOL
REMARK 923 INTER-LIGAND FREE ENERGY PREDICTED BY IDOCK:   -7.82 KCAL/MOL
REMARK 924 INTRA-LIGAND FREE ENERGY PREDICTED BY IDOCK:   -0.80 KCAL/MOL
REMARK 927      BINDING AFFINITY PREDICTED BY RF-SCORE:    0.00 PKD
ROOT
HETATM    1  C   UNL     1      -5.433   3.558  70.990  1.00  0.00    -0.008 C  
HETATM    2  C   UNL     1      -6.800   2.987  71.345  1.00  0.00    -0.031 C  
ENDROOT
BRANCH   2   3
HETATM    3  C   UNL     1      -7.884   3.289  70.301  1.00  0.00    -0.046 C  
BRANCH   3   4
HETATM    4  C   UNL     1      -8.737   4.453  70.690  1.00  0.00    -0.090 A  
HETATM    5  N   UNL     1      -9.784   4.347  71.487  1.00  0.00    -0.165 NA 
HETATM    6  C   UNL     1     -10.371   5.584  71.522  1.00  0.00    -0.222 A  
HETATM    7  C   UNL     1      -9.642   6.481  70.757  1.00  0.00    -0.179 A  
HETATM    8  N   UNL     1      -8.566   5.761  70.278  1.00  0.00    -0.130 NA 
HETATM    9  C   UNL     1     -10.045   7.803  70.567  1.00  0.00    -0.192 A  
HETATM   10  C   UNL     1     -11.556   5.998  72.162  1.00  0.00    -0.348 A  
HETATM   11  C   UNL     1     -11.172   8.266  71.257  1.00  0.00    -0.302 A  
HETATM   12  C   UNL     1     -12.409   5.043  72.944  1.00  0.00     0.331 C  
HETATM   13  C   UNL     1     -11.925   7.356  72.020  1.00  0.00    -0.333 A  
BRANCH   8  14
HETATM   14  C   UNL     1      -7.569   6.298  69.350  1.00  0.00    -0.098 C  
BRANCH  14  15
HETATM   15  C   UNL     1      -8.094   7.170  68.222  1.00  0.00    -0.124 A  
HETATM   16  C   UNL     1      -9.228   6.865  67.471  1.00  0.00    -0.124 A  
HETATM   17  C   UNL     1      -8.073   9.371  67.112  1.00  0.00    -0.102 A  
HETATM   18  C   UNL     1      -7.509   8.431  68.001  1.00  0.00    -0.097 A  
HETATM   19  C   UNL     1      -9.760   7.795  66.553  1.00  0.00    -0.265 A  
HETATM   20  C   UNL     1      -9.225   9.089  66.364  1.00  0.00    -0.239 A  
BRANCH  20  21
HETATM   21  C   UNL     1      -9.915  10.080  65.468  1.00  0.00    -0.367 A  
HETATM   22  C   UNL     1     -11.617  11.872  65.287  1.00  0.00    -0.278 A  
HETATM   23  C   UNL     1     -10.881  10.939  66.038  1.00  0.00    -0.155 A  
HETATM   24  C   UNL     1     -10.439  11.210  63.333  1.00  0.00    -0.382 A  
HETATM   25  C   UNL     1      -9.687  10.264  64.083  1.00  0.00    -0.357 A  
HETATM   26  C   UNL     1     -11.415  11.993  63.933  1.00  0.00    -0.518 A  
HETATM   27  C   UNL     1      -8.713   9.481  63.289  1.00  0.00    -0.227 C  
HETATM   28  O   UNL     1      -8.055  10.328  62.466  1.00  0.00    -0.136 OA 
HETATM   29  O   UNL     1      -8.566   8.275  63.280  1.00  0.00    -0.026 OA 
ENDBRANCH  20  21
ENDBRANCH  14  15
ENDBRANCH   8  14
BRANCH  11  30
HETATM   30  C   UNL     1     -11.591   9.677  71.176  1.00  0.00    -0.381 A  
HETATM   31  C   UNL     1     -11.474  13.016  70.016  1.00  0.00    -0.086 A  
HETATM   32  C   UNL     1     -12.333  14.071  70.355  1.00  0.00    -0.429 A  
HETATM   33  N   UNL     1     -11.004  10.582  70.408  1.00  0.00    -0.252 NA 
HETATM   34  C   UNL     1     -13.630   9.588  72.688  1.00  0.00    -0.189 C  
HETATM   35  C   UNL     1     -11.689  11.754  70.591  1.00  0.00     0.089 A  
HETATM   36  C   UNL     1     -13.380  13.873  71.253  1.00  0.00    -0.314 A  
HETATM   37  N   UNL     1     -12.670  10.252  71.836  1.00  0.00    -0.414 NA 
HETATM   38  C   UNL     1     -12.740  11.582  71.483  1.00  0.00    -0.334 A  
HETATM   39  C   UNL     1     -13.607  12.623  71.838  1.00  0.00    -0.304 A  
ENDBRANCH  11  30
ENDBRANCH   3   4
ENDBRANCH   2   3
TORSDOF 6
ENDMDL
MODEL       80
REMARK 921   NORMALIZED FREE ENERGY PREDICTED BY IDOCK:   -4.88 KCAL/MOL
REMARK 922        TOTAL FREE ENERGY PREDICTED BY IDOCK:   -8.59 KCAL/MOL
REMARK 923 INTER-LIGAND FREE ENERGY PREDICTED BY IDOCK:   -7.14 KCAL/MOL
REMARK 924 INTRA-LIGAND FREE ENERGY PREDICTED BY IDOCK:   -1.44 KCAL/MOL
REMARK 927      BINDING AFFINITY PREDICTED BY RF-SCORE:    0.00 PKD
ROOT
HETATM    1  C   UNL     1      -9.075   7.290  66.031  1.00  0.00    -0.117 C  
HETATM    2  C   UNL     1      -7.622   7.658  65.759  1.00  0.00    -0.088 C  
ENDROOT
BRANCH   2   3
HETATM    3  C   UNL     1      -7.420   9.130  65.374  1.00  0.00    -0.093 C  
BRANCH   3   4
HETATM    4  C   UNL     1      -8.392  10.033  66.061  1.00  0.00    -0.125 A  
HETATM    5  N   UNL     1      -9.451  10.546  65.461  1.00  0.00    -0.200 NA 
HETATM    6  C   UNL     1     -10.031  11.400  66.361  1.00  0.00    -0.214 A  
HETATM    7  C   UNL     1      -9.331  11.380  67.558  1.00  0.00    -0.164 A  
HETATM    8  N   UNL     1      -8.321  10.458  67.375  1.00  0.00    -0.121 NA 
HETATM    9  C   UNL     1      -9.668  12.201  68.636  1.00  0.00    -0.090 A  
HETATM   10  C   UNL     1     -11.141  12.253  66.204  1.00  0.00    -0.349 A  
HETATM   11  C   UNL     1     -10.816  12.997  68.539  1.00  0.00    -0.282 A  
HETATM   12  C   UNL     1     -11.884  12.353  64.905  1.00  0.00    -0.442 C  
HETATM   13  C   UNL     1     -11.518  13.034  67.321  1.00  0.00    -0.380 A  
BRANCH   8  14
HETATM   14  C   UNL     1      -7.281  10.175  68.365  1.00  0.00    -0.076 C  
BRANCH  14  15
HETATM   15  C   UNL     1      -7.587   9.084  69.377  1.00  0.00    -0.078 A  
HETATM   16  C   UNL     1      -7.719   9.313  70.746  1.00  0.00    -0.164 A  
HETATM   17  C   UNL     1      -8.396   6.791  69.784  1.00  0.00    -0.132 A  
HETATM   18  C   UNL     1      -7.906   7.792  68.918  1.00  0.00    -0.122 A  
HETATM   19  C   UNL     1      -8.168   8.293  71.610  1.00  0.00    -0.174 A  
HETATM   20  C   UNL     1      -8.554   7.010  71.161  1.00  0.00    -0.133 A  
BRANCH  20  21
HETATM   21  C   UNL     1      -9.149   6.010  72.112  1.00  0.00    -0.142 A  
HETATM   22  C   UNL     1      -8.718   4.215  73.765  1.00  0.00    -0.094 A  
HETATM   23  C   UNL     1      -8.272   5.211  72.879  1.00  0.00    -0.109 A  
HETATM   24  C   UNL     1     -10.967   4.772  73.240  1.00  0.00    -0.390 A  
HETATM   25  C   UNL     1     -10.527   5.783  72.342  1.00  0.00    -0.252 A  
HETATM   26  C   UNL     1     -10.062   3.978  73.930  1.00  0.00    -0.192 A  
HETATM   27  C   UNL     1     -11.617   6.515  71.655  1.00  0.00    -0.308 C  
HETATM   28  O   UNL     1     -12.564   6.824  72.569  1.00  0.00     0.060 OA 
HETATM   29  O   UNL     1     -11.724   6.735  70.465  1.00  0.00    -0.351 OA 
ENDBRANCH  20  21
ENDBRANCH  14  15
ENDBRANCH   8  14
BRANCH  11  30
HETATM   30  C   UNL     1     -11.280  13.809  69.677  1.00  0.00    -0.115 A  
HETATM   31  C   UNL     1     -11.713  16.769  71.564  1.00  0.00     0.347 A  
HETATM   32  C   UNL     1     -12.416  16.922  72.767  1.00  0.00     0.755 A  
HETATM   33  N   UNL     1     -11.052  15.107  69.803  1.00  0.00    -0.264 NA 
HETATM   34  C   UNL     1     -12.603  12.042  70.933  1.00  0.00    -0.253 C  
HETATM   35  C   UNL     1     -11.657  15.500  70.968  1.00  0.00    -0.382 A  
HETATM   36  C   UNL     1     -13.045  15.832  73.366  1.00  0.00    -0.690 A  
HETATM   37  N   UNL     1     -12.052  13.365  70.742  1.00  0.00    -0.316 NA 
HETATM   38  C   UNL     1     -12.292  14.430  71.584  1.00  0.00    -0.341 A  
HETATM   39  C   UNL     1     -12.997  14.560  72.787  1.00  0.00    -0.563 A  
ENDBRANCH  11  30
ENDBRANCH   3   4
ENDBRANCH   2   3
TORSDOF 6
ENDMDL
MODEL       81
REMARK 921   NORMALIZED FREE ENERGY PREDICTED BY IDOCK:   -4.87 KCAL/MOL
REMARK 922        TOTAL FREE ENERGY PREDICTED BY IDOCK:   -8.58 KCAL/MOL
REMARK 923 INTER-LIGAND FREE ENERGY PREDICTED BY IDOCK:   -7.55 KCAL/MOL
REMARK 924 INTRA-LIGAND FREE ENERGY PREDICTED BY IDOCK:   -1.03 KCAL/MOL
REMARK 927      BINDING AFFINITY PREDICTED BY RF-SCORE:    0.00 PKD
ROOT
HETATM    1  C   UNL     1     -11.542   5.991  72.703  1.00  0.00    -0.266 C  
HETATM    2  C   UNL     1     -10.388   5.618  71.780  1.00  0.00    -0.268 C  
ENDROOT
BRANCH   2   3
HETATM    3  C   UNL     1     -10.560   6.126  70.342  1.00  0.00    -0.317 C  
BRANCH   3   4
HETATM    4  C   UNL     1      -9.582   7.205  70.002  1.00  0.00    -0.164 A  
HETATM    5  N   UNL     1      -8.294   6.981  69.816  1.00  0.00    -0.131 NA 
HETATM    6  C   UNL     1      -7.709   8.205  69.637  1.00  0.00    -0.101 A  
HETATM    7  C   UNL     1      -8.671   9.204  69.675  1.00  0.00    -0.145 A  
HETATM    8  N   UNL     1      -9.872   8.548  69.849  1.00  0.00    -0.183 NA 
HETATM    9  C   UNL     1      -8.347  10.558  69.578  1.00  0.00    -0.075 A  
HETATM   10  C   UNL     1      -6.350   8.537  69.473  1.00  0.00    -0.040 A  
HETATM   11  C   UNL     1      -7.015  10.913  69.331  1.00  0.00    -0.125 A  
HETATM   12  C   UNL     1      -5.273   7.493  69.492  1.00  0.00    -0.015 C  
HETATM   13  C   UNL     1      -6.035   9.906  69.309  1.00  0.00    -0.037 A  
BRANCH   8  14
HETATM   14  C   UNL     1     -11.157   9.225  70.028  1.00  0.00    -0.205 C  
BRANCH  14  15
HETATM   15  C   UNL     1     -11.433  10.408  69.116  1.00  0.00    -0.261 A  
HETATM   16  C   UNL     1     -11.785  11.676  69.577  1.00  0.00    -0.410 A  
HETATM   17  C   UNL     1     -11.221  11.395  66.866  1.00  0.00    -0.331 A  
HETATM   18  C   UNL     1     -11.182  10.284  67.736  1.00  0.00    -0.262 A  
HETATM   19  C   UNL     1     -11.863  12.772  68.692  1.00  0.00    -0.341 A  
HETATM   20  C   UNL     1     -11.553  12.681  67.317  1.00  0.00    -0.428 A  
BRANCH  20  21
HETATM   21  C   UNL     1     -11.528  13.911  66.452  1.00  0.00    -0.354 A  
HETATM   22  C   UNL     1     -11.983  14.880  64.218  1.00  0.00    -0.355 A  
HETATM   23  C   UNL     1     -12.002  13.807  65.126  1.00  0.00    -0.393 A  
HETATM   24  C   UNL     1     -11.067  16.277  65.907  1.00  0.00     0.094 A  
HETATM   25  C   UNL     1     -11.083  15.199  66.834  1.00  0.00    -0.314 A  
HETATM   26  C   UNL     1     -11.495  16.108  64.598  1.00  0.00    -0.225 A  
HETATM   27  C   UNL     1     -10.557  15.533  68.178  1.00  0.00    -0.266 C  
HETATM   28  O   UNL     1     -11.078  16.723  68.556  1.00  0.00    -0.342 OA 
HETATM   29  O   UNL     1      -9.729  14.920  68.822  1.00  0.00    -0.213 OA 
ENDBRANCH  20  21
ENDBRANCH  14  15
ENDBRANCH   8  14
BRANCH  11  30
HETATM   30  C   UNL     1      -6.626  12.319  69.120  1.00  0.00    -0.105 A  
HETATM   31  C   UNL     1      -6.487  15.405  67.397  1.00  0.00    -0.115 A  
HETATM   32  C   UNL     1      -5.882  16.596  67.822  1.00  0.00    -0.152 A  
HETATM   33  N   UNL     1      -6.951  13.025  68.048  1.00  0.00    -0.096 NA 
HETATM   34  C   UNL     1      -5.470  12.764  71.337  1.00  0.00    -0.038 C  
HETATM   35  C   UNL     1      -6.431  14.280  68.233  1.00  0.00    -0.116 A  
HETATM   36  C   UNL     1      -5.231  16.662  69.052  1.00  0.00    -0.120 A  
HETATM   37  N   UNL     1      -5.921  13.118  70.011  1.00  0.00    -0.136 NA 
HETATM   38  C   UNL     1      -5.776  14.371  69.455  1.00  0.00    -0.092 A  
HETATM   39  C   UNL     1      -5.163  15.550  69.897  1.00  0.00    -0.104 A  
ENDBRANCH  11  30
ENDBRANCH   3   4
ENDBRANCH   2   3
TORSDOF 6
ENDMDL
MODEL       82
REMARK 921   NORMALIZED FREE ENERGY PREDICTED BY IDOCK:   -4.83 KCAL/MOL
REMARK 922        TOTAL FREE ENERGY PREDICTED BY IDOCK:   -8.52 KCAL/MOL
REMARK 923 INTER-LIGAND FREE ENERGY PREDICTED BY IDOCK:   -7.27 KCAL/MOL
REMARK 924 INTRA-LIGAND FREE ENERGY PREDICTED BY IDOCK:   -1.25 KCAL/MOL
REMARK 927      BINDING AFFINITY PREDICTED BY RF-SCORE:    0.00 PKD
ROOT
HETATM    1  C   UNL     1      -8.604   4.921  62.633  1.00  0.00    -0.119 C  
HETATM    2  C   UNL     1      -9.192   4.426  63.948  1.00  0.00    -0.128 C  
ENDROOT
BRANCH   2   3
HETATM    3  C   UNL     1      -8.396   4.868  65.185  1.00  0.00    -0.133 C  
BRANCH   3   4
HETATM    4  C   UNL     1      -8.306   6.355  65.298  1.00  0.00    -0.131 A  
HETATM    5  N   UNL     1      -7.278   7.054  64.853  1.00  0.00    -0.074 NA 
HETATM    6  C   UNL     1      -7.497   8.351  65.230  1.00  0.00    -0.086 A  
HETATM    7  C   UNL     1      -8.711   8.458  65.891  1.00  0.00    -0.169 A  
HETATM    8  N   UNL     1      -9.248   7.186  65.876  1.00  0.00    -0.024 NA 
HETATM    9  C   UNL     1      -9.162   9.660  66.439  1.00  0.00    -0.205 A  
HETATM   10  C   UNL     1      -6.675   9.485  65.070  1.00  0.00    -0.089 A  
HETATM   11  C   UNL     1      -8.408  10.819  66.223  1.00  0.00    -0.160 A  
HETATM   12  C   UNL     1      -5.326   9.399  64.421  1.00  0.00    -0.059 C  
HETATM   13  C   UNL     1      -7.167  10.713  65.569  1.00  0.00    -0.052 A  
BRANCH   8  14
HETATM   14  C   UNL     1     -10.498   6.817  66.540  1.00  0.00    -0.031 C  
BRANCH  14  15
HETATM   15  C   UNL     1     -10.404   6.462  68.015  1.00  0.00    -0.234 A  
HETATM   16  C   UNL     1     -11.509   6.365  68.859  1.00  0.00    -0.148 A  
HETATM   17  C   UNL     1      -9.046   5.525  69.846  1.00  0.00    -0.159 A  
HETATM   18  C   UNL     1      -9.164   6.060  68.545  1.00  0.00    -0.114 A  
HETATM   19  C   UNL     1     -11.373   5.869  70.173  1.00  0.00    -0.231 A  
HETATM   20  C   UNL     1     -10.150   5.401  70.702  1.00  0.00    -0.300 A  
BRANCH  20  21
HETATM   21  C   UNL     1     -10.096   4.762  72.063  1.00  0.00    -0.258 A  
HETATM   22  C   UNL     1      -9.941   2.652  73.353  1.00  0.00    -0.169 A  
HETATM   23  C   UNL     1      -9.958   3.358  72.138  1.00  0.00    -0.230 A  
HETATM   24  C   UNL     1     -10.138   4.705  74.533  1.00  0.00    -0.266 A  
HETATM   25  C   UNL     1     -10.155   5.429  73.309  1.00  0.00    -0.198 A  
HETATM   26  C   UNL     1     -10.055   3.320  74.550  1.00  0.00    -0.205 A  
HETATM   27  C   UNL     1     -10.288   6.897  73.462  1.00  0.00    -0.338 C  
HETATM   28  O   UNL     1      -9.451   7.300  74.445  1.00  0.00    -0.198 OA 
HETATM   29  O   UNL     1     -11.068   7.632  72.891  1.00  0.00    -0.352 OA 
ENDBRANCH  20  21
ENDBRANCH  14  15
ENDBRANCH   8  14
BRANCH  11  30
HETATM   30  C   UNL     1      -8.879  12.135  66.690  1.00  0.00    -0.182 A  
HETATM   31  C   UNL     1      -8.855  15.044  68.702  1.00  0.00    -0.185 A  
HETATM   32  C   UNL     1      -9.698  16.159  68.605  1.00  0.00    -0.227 A  
HETATM   33  N   UNL     1      -8.330  12.807  67.690  1.00  0.00    -0.162 NA 
HETATM   34  C   UNL     1     -10.701  12.554  64.970  1.00  0.00    -0.294 C  
HETATM   35  C   UNL     1      -9.028  13.982  67.802  1.00  0.00    -0.186 A  
HETATM   36  C   UNL     1     -10.697  16.212  67.634  1.00  0.00    -0.318 A  
HETATM   37  N   UNL     1      -9.913  12.880  66.137  1.00  0.00    -0.269 NA 
HETATM   38  C   UNL     1     -10.030  14.058  66.844  1.00  0.00    -0.263 A  
HETATM   39  C   UNL     1     -10.885  15.161  66.731  1.00  0.00    -0.322 A  
ENDBRANCH  11  30
ENDBRANCH   3   4
ENDBRANCH   2   3
TORSDOF 6
ENDMDL
MODEL       83
REMARK 921   NORMALIZED FREE ENERGY PREDICTED BY IDOCK:   -4.80 KCAL/MOL
REMARK 922        TOTAL FREE ENERGY PREDICTED BY IDOCK:   -8.48 KCAL/MOL
REMARK 923 INTER-LIGAND FREE ENERGY PREDICTED BY IDOCK:   -7.89 KCAL/MOL
REMARK 924 INTRA-LIGAND FREE ENERGY PREDICTED BY IDOCK:   -0.59 KCAL/MOL
REMARK 927      BINDING AFFINITY PREDICTED BY RF-SCORE:    0.00 PKD
ROOT
HETATM    1  C   UNL     1     -10.426   4.984  74.394  1.00  0.00    -0.313 C  
HETATM    2  C   UNL     1     -10.783   4.282  73.091  1.00  0.00    -0.285 C  
ENDROOT
BRANCH   2   3
HETATM    3  C   UNL     1      -9.561   3.821  72.284  1.00  0.00    -0.205 C  
BRANCH   3   4
HETATM    4  C   UNL     1      -9.556   4.377  70.897  1.00  0.00    -0.185 A  
HETATM    5  N   UNL     1      -9.678   3.626  69.817  1.00  0.00    -0.153 NA 
HETATM    6  C   UNL     1      -9.518   4.461  68.744  1.00  0.00    -0.162 A  
HETATM    7  C   UNL     1      -9.332   5.765  69.177  1.00  0.00    -0.123 A  
HETATM    8  N   UNL     1      -9.418   5.709  70.553  1.00  0.00    -0.160 NA 
HETATM    9  C   UNL     1      -9.084   6.818  68.295  1.00  0.00    -0.124 A  
HETATM   10  C   UNL     1      -9.484   4.160  67.368  1.00  0.00    -0.223 A  
HETATM   11  C   UNL     1      -9.128   6.565  66.919  1.00  0.00    -0.144 A  
HETATM   12  C   UNL     1      -9.615   2.754  66.862  1.00  0.00     0.119 C  
HETATM   13  C   UNL     1      -9.299   5.242  66.475  1.00  0.00    -0.146 A  
BRANCH   8  14
HETATM   14  C   UNL     1      -9.198   6.855  71.435  1.00  0.00    -0.156 C  
BRANCH  14  15
HETATM   15  C   UNL     1     -10.087   8.066  71.209  1.00  0.00    -0.222 A  
HETATM   16  C   UNL     1     -11.365   8.200  71.749  1.00  0.00    -0.333 A  
HETATM   17  C   UNL     1     -10.257  10.416  70.481  1.00  0.00     0.323 A  
HETATM   18  C   UNL     1      -9.560   9.190  70.545  1.00  0.00    -0.293 A  
HETATM   19  C   UNL     1     -12.073   9.416  71.641  1.00  0.00    -0.462 A  
HETATM   20  C   UNL     1     -11.536  10.574  71.036  1.00  0.00    -0.207 A  
BRANCH  20  21
HETATM   21  C   UNL     1     -12.286  11.876  71.070  1.00  0.00    -0.362 A  
HETATM   22  C   UNL     1     -13.951  13.275  72.257  1.00  0.00    -0.559 A  
HETATM   23  C   UNL     1     -13.167  12.113  72.148  1.00  0.00    -0.438 A  
HETATM   24  C   UNL     1     -12.995  14.095  70.243  1.00  0.00    -0.057 A  
HETATM   25  C   UNL     1     -12.196  12.924  70.124  1.00  0.00    -0.336 A  
HETATM   26  C   UNL     1     -13.885  14.255  71.296  1.00  0.00    -0.295 A  
HETATM   27  C   UNL     1     -11.328  12.890  68.924  1.00  0.00    -0.288 C  
HETATM   28  O   UNL     1     -10.735  14.098  68.792  1.00  0.00    -0.245 OA 
HETATM   29  O   UNL     1     -11.214  11.986  68.119  1.00  0.00    -0.223 OA 
ENDBRANCH  20  21
ENDBRANCH  14  15
ENDBRANCH   8  14
BRANCH  11  30
HETATM   30  C   UNL     1      -8.973   7.652  65.937  1.00  0.00    -0.103 A  
HETATM   31  C   UNL     1      -7.659   9.242  63.063  1.00  0.00    -0.107 A  
HETATM   32  C   UNL     1      -8.014  10.492  62.538  1.00  0.00    -0.193 A  
HETATM   33  N   UNL     1      -8.139   7.610  64.909  1.00  0.00    -0.138 NA 
HETATM   34  C   UNL     1     -10.771   9.233  66.785  1.00  0.00    -0.050 C  
HETATM   35  C   UNL     1      -8.302   8.785  64.223  1.00  0.00    -0.151 A  
HETATM   36  C   UNL     1      -8.988  11.272  63.160  1.00  0.00    -0.143 A  
HETATM   37  N   UNL     1      -9.694   8.840  65.905  1.00  0.00    -0.206 NA 
HETATM   38  C   UNL     1      -9.269   9.581  64.824  1.00  0.00    -0.205 A  
HETATM   39  C   UNL     1      -9.637  10.834  64.318  1.00  0.00    -0.333 A  
ENDBRANCH  11  30
ENDBRANCH   3   4
ENDBRANCH   2   3
TORSDOF 6
ENDMDL
MODEL       84
REMARK 921   NORMALIZED FREE ENERGY PREDICTED BY IDOCK:   -4.76 KCAL/MOL
REMARK 922        TOTAL FREE ENERGY PREDICTED BY IDOCK:   -8.43 KCAL/MOL
REMARK 923 INTER-LIGAND FREE ENERGY PREDICTED BY IDOCK:   -8.34 KCAL/MOL
REMARK 924 INTRA-LIGAND FREE ENERGY PREDICTED BY IDOCK:   -0.09 KCAL/MOL
REMARK 927      BINDING AFFINITY PREDICTED BY RF-SCORE:    0.00 PKD
ROOT
HETATM    1  C   UNL     1     -12.770  12.115  63.246  1.00  0.00    -0.417 C  
HETATM    2  C   UNL     1     -12.095  11.358  64.382  1.00  0.00     0.280 C  
ENDROOT
BRANCH   2   3
HETATM    3  C   UNL     1     -10.580  11.594  64.466  1.00  0.00    -0.373 C  
BRANCH   3   4
HETATM    4  C   UNL     1     -10.245  12.881  65.149  1.00  0.00    -0.271 A  
HETATM    5  N   UNL     1     -10.791  14.038  64.822  1.00  0.00    -0.404 NA 
HETATM    6  C   UNL     1     -10.164  14.991  65.578  1.00  0.00    -0.378 A  
HETATM    7  C   UNL     1      -9.235  14.398  66.420  1.00  0.00    -0.213 A  
HETATM    8  N   UNL     1      -9.338  13.043  66.180  1.00  0.00    -0.147 NA 
HETATM    9  C   UNL     1      -8.407  15.142  67.262  1.00  0.00    -0.225 A  
HETATM   10  C   UNL     1     -10.317  16.392  65.566  1.00  0.00    -0.336 A  
HETATM   11  C   UNL     1      -8.594  16.527  67.334  1.00  0.00    -0.193 A  
HETATM   12  C   UNL     1     -11.262  17.077  64.624  1.00  0.00     0.428 C  
HETATM   13  C   UNL     1      -9.522  17.135  66.469  1.00  0.00    -0.290 A  
BRANCH   8  14
HETATM   14  C   UNL     1      -8.476  12.034  66.798  1.00  0.00    -0.155 C  
BRANCH  14  15
HETATM   15  C   UNL     1      -9.126  11.126  67.829  1.00  0.00    -0.149 A  
HETATM   16  C   UNL     1     -10.355  10.496  67.640  1.00  0.00    -0.257 A  
HETATM   17  C   UNL     1      -8.859   9.775  69.874  1.00  0.00    -0.248 A  
HETATM   18  C   UNL     1      -8.401  10.769  68.981  1.00  0.00    -0.138 A  
HETATM   19  C   UNL     1     -10.824   9.536  68.560  1.00  0.00    -0.175 A  
HETATM   20  C   UNL     1     -10.084   9.117  69.688  1.00  0.00    -0.206 A  
BRANCH  20  21
HETATM   21  C   UNL     1     -10.579   7.995  70.558  1.00  0.00    -0.222 A  
HETATM   22  C   UNL     1     -10.198   5.688  71.378  1.00  0.00    -0.270 A  
HETATM   23  C   UNL     1      -9.808   6.814  70.632  1.00  0.00    -0.191 A  
HETATM   24  C   UNL     1     -12.141   6.851  72.094  1.00  0.00    -0.278 A  
HETATM   25  C   UNL     1     -11.756   7.996  71.344  1.00  0.00    -0.320 A  
HETATM   26  C   UNL     1     -11.374   5.695  72.090  1.00  0.00    -0.277 A  
HETATM   27  C   UNL     1     -12.703   9.133  71.423  1.00  0.00    -0.318 C  
HETATM   28  O   UNL     1     -13.068   9.294  72.715  1.00  0.00    -0.331 OA 
HETATM   29  O   UNL     1     -13.169   9.772  70.501  1.00  0.00    -0.098 OA 
ENDBRANCH  20  21
ENDBRANCH  14  15
ENDBRANCH   8  14
BRANCH  11  30
HETATM   30  C   UNL     1      -7.820  17.355  68.276  1.00  0.00    -0.247 A  
HETATM   31  C   UNL     1      -5.656  17.969  71.005  1.00  0.00     0.058 A  
HETATM   32  C   UNL     1      -5.177  19.206  71.457  1.00  0.00    -0.347 A  
HETATM   33  N   UNL     1      -7.094  16.865  69.269  1.00  0.00    -0.225 NA 
HETATM   34  C   UNL     1      -8.240  19.643  67.256  1.00  0.00    -0.296 C  
HETATM   35  C   UNL     1      -6.514  17.937  69.896  1.00  0.00     0.051 A  
HETATM   36  C   UNL     1      -5.550  20.388  70.818  1.00  0.00    -0.311 A  
HETATM   37  N   UNL     1      -7.692  18.738  68.241  1.00  0.00    -0.288 NA 
HETATM   38  C   UNL     1      -6.871  19.128  69.277  1.00  0.00    -0.301 A  
HETATM   39  C   UNL     1      -6.407  20.375  69.713  1.00  0.00    -0.256 A  
ENDBRANCH  11  30
ENDBRANCH   3   4
ENDBRANCH   2   3
TORSDOF 6
ENDMDL
MODEL       85
REMARK 921   NORMALIZED FREE ENERGY PREDICTED BY IDOCK:   -4.75 KCAL/MOL
REMARK 922        TOTAL FREE ENERGY PREDICTED BY IDOCK:   -8.42 KCAL/MOL
REMARK 923 INTER-LIGAND FREE ENERGY PREDICTED BY IDOCK:   -8.56 KCAL/MOL
REMARK 924 INTRA-LIGAND FREE ENERGY PREDICTED BY IDOCK:    0.14 KCAL/MOL
REMARK 927      BINDING AFFINITY PREDICTED BY RF-SCORE:    0.00 PKD
ROOT
HETATM    1  C   UNL     1      -5.276   4.612  69.052  1.00  0.00    -0.004 C  
HETATM    2  C   UNL     1      -5.983   5.927  69.353  1.00  0.00    -0.027 C  
ENDROOT
BRANCH   2   3
HETATM    3  C   UNL     1      -7.081   6.282  68.341  1.00  0.00    -0.083 C  
BRANCH   3   4
HETATM    4  C   UNL     1      -8.168   7.107  68.951  1.00  0.00    -0.125 A  
HETATM    5  N   UNL     1      -9.270   6.589  69.461  1.00  0.00    -0.142 NA 
HETATM    6  C   UNL     1     -10.066   7.644  69.818  1.00  0.00    -0.196 A  
HETATM    7  C   UNL     1      -9.418   8.841  69.556  1.00  0.00    -0.165 A  
HETATM    8  N   UNL     1      -8.181   8.486  69.058  1.00  0.00    -0.115 NA 
HETATM    9  C   UNL     1     -10.023  10.081  69.768  1.00  0.00    -0.276 A  
HETATM   10  C   UNL     1     -11.375   7.646  70.339  1.00  0.00    -0.235 A  
HETATM   11  C   UNL     1     -11.290  10.116  70.364  1.00  0.00    -0.401 A  
HETATM   12  C   UNL     1     -12.136   6.374  70.574  1.00  0.00    -0.094 C  
HETATM   13  C   UNL     1     -11.958   8.905  70.615  1.00  0.00    -0.105 A  
BRANCH   8  14
HETATM   14  C   UNL     1      -7.189   9.444  68.568  1.00  0.00    -0.072 C  
BRANCH  14  15
HETATM   15  C   UNL     1      -7.722  10.626  67.775  1.00  0.00    -0.100 A  
HETATM   16  C   UNL     1      -8.209  10.528  66.473  1.00  0.00    -0.133 A  
HETATM   17  C   UNL     1      -8.554  12.946  67.806  1.00  0.00    -0.185 A  
HETATM   18  C   UNL     1      -7.880  11.868  68.419  1.00  0.00    -0.141 A  
HETATM   19  C   UNL     1      -8.843  11.625  65.853  1.00  0.00    -0.057 A  
HETATM   20  C   UNL     1      -9.068  12.859  66.504  1.00  0.00    -0.138 A  
BRANCH  20  21
HETATM   21  C   UNL     1      -9.866  13.945  65.837  1.00  0.00    -0.287 A  
HETATM   22  C   UNL     1     -10.133  16.378  65.453  1.00  0.00    -0.133 A  
HETATM   23  C   UNL     1      -9.439  15.282  65.995  1.00  0.00    -0.372 A  
HETATM   24  C   UNL     1     -11.714  14.887  64.494  1.00  0.00    -0.388 A  
HETATM   25  C   UNL     1     -11.019  13.771  65.036  1.00  0.00    -0.359 A  
HETATM   26  C   UNL     1     -11.282  16.185  64.723  1.00  0.00    -0.313 A  
HETATM   27  C   UNL     1     -11.630  12.456  64.732  1.00  0.00    -0.341 C  
HETATM   28  O   UNL     1     -11.971  12.437  63.423  1.00  0.00    -0.490 OA 
HETATM   29  O   UNL     1     -11.886  11.561  65.513  1.00  0.00    -0.159 OA 
ENDBRANCH  20  21
ENDBRANCH  14  15
ENDBRANCH   8  14
BRANCH  11  30
HETATM   30  C   UNL     1     -11.938  11.395  70.704  1.00  0.00    -0.314 A  
HETATM   31  C   UNL     1     -13.548  13.735  72.812  1.00  0.00    -0.460 A  
HETATM   32  C   UNL     1     -13.955  15.037  72.492  1.00  0.00    -0.551 A  
HETATM   33  N   UNL     1     -12.429  11.681  71.900  1.00  0.00     0.041 NA 
HETATM   34  C   UNL     1     -11.599  12.627  68.510  1.00  0.00    -0.323 C  
HETATM   35  C   UNL     1     -12.921  12.958  71.826  1.00  0.00    -0.315 A  
HETATM   36  C   UNL     1     -13.747  15.552  71.213  1.00  0.00    -0.482 A  
HETATM   37  N   UNL     1     -12.087  12.490  69.863  1.00  0.00    -0.287 NA 
HETATM   38  C   UNL     1     -12.725  13.493  70.560  1.00  0.00    -0.157 A  
HETATM   39  C   UNL     1     -13.127  14.791  70.218  1.00  0.00    -0.077 A  
ENDBRANCH  11  30
ENDBRANCH   3   4
ENDBRANCH   2   3
TORSDOF 6
ENDMDL
MODEL       86
REMARK 921   NORMALIZED FREE ENERGY PREDICTED BY IDOCK:   -4.69 KCAL/MOL
REMARK 922        TOTAL FREE ENERGY PREDICTED BY IDOCK:   -8.34 KCAL/MOL
REMARK 923 INTER-LIGAND FREE ENERGY PREDICTED BY IDOCK:   -6.75 KCAL/MOL
REMARK 924 INTRA-LIGAND FREE ENERGY PREDICTED BY IDOCK:   -1.59 KCAL/MOL
REMARK 927      BINDING AFFINITY PREDICTED BY RF-SCORE:    0.00 PKD
ROOT
HETATM    1  C   UNL     1     -12.911   9.279  72.082  1.00  0.00    -0.485 C  
HETATM    2  C   UNL     1     -11.615   8.481  72.145  1.00  0.00    -0.447 C  
ENDROOT
BRANCH   2   3
HETATM    3  C   UNL     1     -10.468   9.103  71.335  1.00  0.00    -0.414 C  
BRANCH   3   4
HETATM    4  C   UNL     1      -9.688   8.077  70.579  1.00  0.00    -0.178 A  
HETATM    5  N   UNL     1      -8.681   7.402  71.103  1.00  0.00    -0.136 NA 
HETATM    6  C   UNL     1      -8.150   6.648  70.091  1.00  0.00    -0.124 A  
HETATM    7  C   UNL     1      -8.876   6.836  68.925  1.00  0.00    -0.128 A  
HETATM    8  N   UNL     1      -9.893   7.705  69.263  1.00  0.00    -0.165 NA 
HETATM    9  C   UNL     1      -8.520   6.233  67.717  1.00  0.00    -0.116 A  
HETATM   10  C   UNL     1      -7.020   5.807  70.095  1.00  0.00    -0.065 A  
HETATM   11  C   UNL     1      -7.453   5.327  67.709  1.00  0.00    -0.076 A  
HETATM   12  C   UNL     1      -6.170   5.629  71.318  1.00  0.00    -0.035 C  
HETATM   13  C   UNL     1      -6.703   5.147  68.885  1.00  0.00    -0.050 A  
BRANCH   8  14
HETATM   14  C   UNL     1     -10.860   8.247  68.307  1.00  0.00     0.085 C  
BRANCH  14  15
HETATM   15  C   UNL     1     -10.684   9.704  67.916  1.00  0.00    -0.302 A  
HETATM   16  C   UNL     1      -9.695  10.157  67.044  1.00  0.00    -0.224 A  
HETATM   17  C   UNL     1     -11.657  11.967  67.830  1.00  0.00    -0.405 A  
HETATM   18  C   UNL     1     -11.648  10.645  68.324  1.00  0.00    -0.245 A  
HETATM   19  C   UNL     1      -9.688  11.493  66.589  1.00  0.00    -0.221 A  
HETATM   20  C   UNL     1     -10.682  12.435  66.937  1.00  0.00    -0.269 A  
BRANCH  20  21
HETATM   21  C   UNL     1     -10.692  13.804  66.316  1.00  0.00    -0.285 A  
HETATM   22  C   UNL     1     -11.645  15.275  64.564  1.00  0.00    -0.312 A  
HETATM   23  C   UNL     1     -11.583  14.048  65.247  1.00  0.00    -0.339 A  
HETATM   24  C   UNL     1      -9.969  16.147  66.004  1.00  0.00    -0.373 A  
HETATM   25  C   UNL     1      -9.898  14.910  66.702  1.00  0.00    -0.272 A  
HETATM   26  C   UNL     1     -10.824  16.317  64.925  1.00  0.00    -0.315 A  
HETATM   27  C   UNL     1      -8.908  14.879  67.804  1.00  0.00    -0.173 C  
HETATM   28  O   UNL     1      -9.027  16.022  68.517  1.00  0.00    -0.185 OA 
HETATM   29  O   UNL     1      -8.056  14.037  68.009  1.00  0.00    -0.128 OA 
ENDBRANCH  20  21
ENDBRANCH  14  15
ENDBRANCH   8  14
BRANCH  11  30
HETATM   30  C   UNL     1      -7.091   4.584  66.489  1.00  0.00    -0.074 A  
HETATM   31  C   UNL     1      -7.092   1.831  64.268  1.00  0.00    -0.047 A  
HETATM   32  C   UNL     1      -6.472   1.743  63.014  1.00  0.00    -0.013 A  
HETATM   33  N   UNL     1      -7.490   3.349  66.227  1.00  0.00    -0.076 NA 
HETATM   34  C   UNL     1      -5.798   6.399  65.269  1.00  0.00    -0.022 C  
HETATM   35  C   UNL     1      -6.971   3.021  65.002  1.00  0.00    -0.053 A  
HETATM   36  C   UNL     1      -5.743   2.817  62.505  1.00  0.00    -0.009 A  
HETATM   37  N   UNL     1      -6.337   5.067  65.427  1.00  0.00    -0.034 NA 
HETATM   38  C   UNL     1      -6.240   4.077  64.473  1.00  0.00    -0.026 A  
HETATM   39  C   UNL     1      -5.610   4.008  63.224  1.00  0.00    -0.013 A  
ENDBRANCH  11  30
ENDBRANCH   3   4
ENDBRANCH   2   3
TORSDOF 6
ENDMDL
MODEL       87
REMARK 921   NORMALIZED FREE ENERGY PREDICTED BY IDOCK:   -4.69 KCAL/MOL
REMARK 922        TOTAL FREE ENERGY PREDICTED BY IDOCK:   -8.33 KCAL/MOL
REMARK 923 INTER-LIGAND FREE ENERGY PREDICTED BY IDOCK:   -7.70 KCAL/MOL
REMARK 924 INTRA-LIGAND FREE ENERGY PREDICTED BY IDOCK:   -0.63 KCAL/MOL
REMARK 927      BINDING AFFINITY PREDICTED BY RF-SCORE:    0.00 PKD
ROOT
HETATM    1  C   UNL     1     -10.505   7.378  67.744  1.00  0.00    -0.298 C  
HETATM    2  C   UNL     1      -9.391   7.221  66.718  1.00  0.00    -0.203 C  
ENDROOT
BRANCH   2   3
HETATM    3  C   UNL     1      -8.301   8.296  66.823  1.00  0.00    -0.107 C  
BRANCH   3   4
HETATM    4  C   UNL     1      -8.849   9.677  66.658  1.00  0.00    -0.138 A  
HETATM    5  N   UNL     1      -9.715  10.004  65.716  1.00  0.00    -0.238 NA 
HETATM    6  C   UNL     1      -9.896  11.357  65.808  1.00  0.00    -0.232 A  
HETATM    7  C   UNL     1      -9.150  11.869  66.859  1.00  0.00    -0.196 A  
HETATM    8  N   UNL     1      -8.531  10.777  67.433  1.00  0.00    -0.119 NA 
HETATM    9  C   UNL     1      -9.100  13.234  67.146  1.00  0.00    -0.231 A  
HETATM   10  C   UNL     1     -10.660  12.219  64.996  1.00  0.00    -0.322 A  
HETATM   11  C   UNL     1      -9.913  14.104  66.410  1.00  0.00    -0.302 A  
HETATM   12  C   UNL     1     -11.427  11.715  63.809  1.00  0.00    -0.457 C  
HETATM   13  C   UNL     1     -10.657  13.593  65.332  1.00  0.00    -0.322 A  
BRANCH   8  14
HETATM   14  C   UNL     1      -7.573  10.864  68.535  1.00  0.00    -0.111 C  
BRANCH  14  15
HETATM   15  C   UNL     1      -7.195   9.557  69.211  1.00  0.00    -0.063 A  
HETATM   16  C   UNL     1      -8.084   8.790  69.962  1.00  0.00    -0.111 A  
HETATM   17  C   UNL     1      -5.592   7.692  69.385  1.00  0.00    -0.023 A  
HETATM   18  C   UNL     1      -5.930   8.994  68.957  1.00  0.00    -0.043 A  
HETATM   19  C   UNL     1      -7.721   7.506  70.422  1.00  0.00    -0.091 A  
HETATM   20  C   UNL     1      -6.481   6.898  70.124  1.00  0.00    -0.040 A  
BRANCH  20  21
HETATM   21  C   UNL     1      -6.205   5.477  70.532  1.00  0.00    -0.026 A  
HETATM   22  C   UNL     1      -5.232   3.964  72.236  1.00  0.00     0.000 A  
HETATM   23  C   UNL     1      -5.577   5.247  71.775  1.00  0.00    -0.012 A  
HETATM   24  C   UNL     1      -6.172   3.020  70.269  1.00  0.00    -0.024 A  
HETATM   25  C   UNL     1      -6.526   4.313  69.794  1.00  0.00    -0.032 A  
HETATM   26  C   UNL     1      -5.507   2.852  71.475  1.00  0.00    -0.008 A  
HETATM   27  C   UNL     1      -7.196   4.323  68.473  1.00  0.00    -0.056 C  
HETATM   28  O   UNL     1      -8.132   3.347  68.462  1.00  0.00    -0.065 OA 
HETATM   29  O   UNL     1      -6.918   5.008  67.508  1.00  0.00    -0.059 OA 
ENDBRANCH  20  21
ENDBRANCH  14  15
ENDBRANCH   8  14
BRANCH  11  30
HETATM   30  C   UNL     1      -9.979  15.541  66.729  1.00  0.00    -0.249 A  
HETATM   31  C   UNL     1     -10.099  19.004  66.016  1.00  0.00    -0.401 A  
HETATM   32  C   UNL     1     -10.223  20.061  66.927  1.00  0.00    -0.595 A  
HETATM   33  N   UNL     1      -9.970  16.504  65.821  1.00  0.00    -0.506 NA 
HETATM   34  C   UNL     1     -10.261  15.390  69.249  1.00  0.00    -0.250 C  
HETATM   35  C   UNL     1     -10.069  17.688  66.503  1.00  0.00    -0.350 A  
HETATM   36  C   UNL     1     -10.309  19.814  68.295  1.00  0.00    -0.536 A  
HETATM   37  N   UNL     1     -10.110  16.095  67.996  1.00  0.00    -0.238 NA 
HETATM   38  C   UNL     1     -10.157  17.467  67.872  1.00  0.00    -0.326 A  
HETATM   39  C   UNL     1     -10.277  18.509  68.799  1.00  0.00    -0.326 A  
ENDBRANCH  11  30
ENDBRANCH   3   4
ENDBRANCH   2   3
TORSDOF 6
ENDMDL
MODEL       88
REMARK 921   NORMALIZED FREE ENERGY PREDICTED BY IDOCK:   -4.68 KCAL/MOL
REMARK 922        TOTAL FREE ENERGY PREDICTED BY IDOCK:   -8.33 KCAL/MOL
REMARK 923 INTER-LIGAND FREE ENERGY PREDICTED BY IDOCK:   -7.23 KCAL/MOL
REMARK 924 INTRA-LIGAND FREE ENERGY PREDICTED BY IDOCK:   -1.09 KCAL/MOL
REMARK 927      BINDING AFFINITY PREDICTED BY RF-SCORE:    0.00 PKD
ROOT
HETATM    1  C   UNL     1      -8.485   5.013  62.470  1.00  0.00    -0.113 C  
HETATM    2  C   UNL     1      -9.187   4.570  63.747  1.00  0.00    -0.087 C  
ENDROOT
BRANCH   2   3
HETATM    3  C   UNL     1      -8.409   4.906  65.027  1.00  0.00    -0.136 C  
BRANCH   3   4
HETATM    4  C   UNL     1      -8.693   6.290  65.514  1.00  0.00    -0.082 A  
HETATM    5  N   UNL     1      -7.983   7.344  65.155  1.00  0.00    -0.123 NA 
HETATM    6  C   UNL     1      -8.462   8.401  65.880  1.00  0.00    -0.148 A  
HETATM    7  C   UNL     1      -9.522   7.993  66.677  1.00  0.00    -0.212 A  
HETATM    8  N   UNL     1      -9.699   6.655  66.390  1.00  0.00    -0.119 NA 
HETATM    9  C   UNL     1     -10.164   8.855  67.566  1.00  0.00    -0.309 A  
HETATM   10  C   UNL     1      -8.010   9.735  65.932  1.00  0.00    -0.111 A  
HETATM   11  C   UNL     1      -9.793  10.205  67.579  1.00  0.00    -0.211 A  
HETATM   12  C   UNL     1      -6.827  10.200  65.136  1.00  0.00    -0.134 C  
HETATM   13  C   UNL     1      -8.708  10.620  66.786  1.00  0.00    -0.133 A  
BRANCH   8  14
HETATM   14  C   UNL     1     -10.667   5.793  67.070  1.00  0.00    -0.289 C  
BRANCH  14  15
HETATM   15  C   UNL     1     -10.226   5.191  68.394  1.00  0.00    -0.175 A  
HETATM   16  C   UNL     1      -9.573   3.964  68.508  1.00  0.00    -0.179 A  
HETATM   17  C   UNL     1      -9.765   5.546  70.790  1.00  0.00    -0.232 A  
HETATM   18  C   UNL     1     -10.338   5.960  69.568  1.00  0.00    -0.314 A  
HETATM   19  C   UNL     1      -9.042   3.540  69.744  1.00  0.00    -0.196 A  
HETATM   20  C   UNL     1      -9.088   4.325  70.917  1.00  0.00    -0.186 A  
BRANCH  20  21
HETATM   21  C   UNL     1      -8.387   3.874  72.170  1.00  0.00    -0.094 A  
HETATM   22  C   UNL     1      -6.396   4.108  73.626  1.00  0.00    -0.040 A  
HETATM   23  C   UNL     1      -7.157   4.482  72.504  1.00  0.00    -0.074 A  
HETATM   24  C   UNL     1      -8.064   2.522  74.213  1.00  0.00    -0.063 A  
HETATM   25  C   UNL     1      -8.842   2.893  73.082  1.00  0.00    -0.084 A  
HETATM   26  C   UNL     1      -6.836   3.114  74.468  1.00  0.00    -0.040 A  
HETATM   27  C   UNL     1     -10.109   2.140  72.931  1.00  0.00    -0.125 C  
HETATM   28  O   UNL     1     -10.711   2.071  74.140  1.00  0.00    -0.130 OA 
HETATM   29  O   UNL     1     -10.524   1.584  71.933  1.00  0.00    -0.148 OA 
ENDBRANCH  20  21
ENDBRANCH  14  15
ENDBRANCH   8  14
BRANCH  11  30
HETATM   30  C   UNL     1     -10.500  11.184  68.422  1.00  0.00    -0.188 A  
HETATM   31  C   UNL     1     -11.696  14.383  69.342  1.00  0.00    -0.362 A  
HETATM   32  C   UNL     1     -12.497  14.713  70.444  1.00  0.00    -0.410 A  
HETATM   33  N   UNL     1     -10.569  12.479  68.156  1.00  0.00    -0.219 NA 
HETATM   34  C   UNL     1     -11.491   9.603  70.146  1.00  0.00    -0.189 C  
HETATM   35  C   UNL     1     -11.324  13.044  69.151  1.00  0.00    -0.273 A  
HETATM   36  C   UNL     1     -12.915  13.730  71.339  1.00  0.00    -0.433 A  
HETATM   37  N   UNL     1     -11.230  10.903  69.571  1.00  0.00    -0.255 NA 
HETATM   38  C   UNL     1     -11.753  12.082  70.056  1.00  0.00    -0.267 A  
HETATM   39  C   UNL     1     -12.551  12.391  71.165  1.00  0.00    -0.349 A  
ENDBRANCH  11  30
ENDBRANCH   3   4
ENDBRANCH   2   3
TORSDOF 6
ENDMDL
MODEL       89
REMARK 921   NORMALIZED FREE ENERGY PREDICTED BY IDOCK:   -4.65 KCAL/MOL
REMARK 922        TOTAL FREE ENERGY PREDICTED BY IDOCK:   -8.29 KCAL/MOL
REMARK 923 INTER-LIGAND FREE ENERGY PREDICTED BY IDOCK:   -7.36 KCAL/MOL
REMARK 924 INTRA-LIGAND FREE ENERGY PREDICTED BY IDOCK:   -0.92 KCAL/MOL
REMARK 927      BINDING AFFINITY PREDICTED BY RF-SCORE:    0.00 PKD
ROOT
HETATM    1  C   UNL     1     -10.450   7.065  67.818  1.00  0.00    -0.282 C  
HETATM    2  C   UNL     1     -10.483   7.993  66.612  1.00  0.00    -0.199 C  
ENDROOT
BRANCH   2   3
HETATM    3  C   UNL     1      -9.152   8.712  66.351  1.00  0.00    -0.218 C  
BRANCH   3   4
HETATM    4  C   UNL     1      -9.299  10.199  66.362  1.00  0.00    -0.169 A  
HETATM    5  N   UNL     1     -10.102  10.852  65.542  1.00  0.00    -0.254 NA 
HETATM    6  C   UNL     1      -9.889  12.185  65.769  1.00  0.00    -0.245 A  
HETATM    7  C   UNL     1      -8.958  12.354  66.783  1.00  0.00    -0.205 A  
HETATM    8  N   UNL     1      -8.633  11.078  67.196  1.00  0.00    -0.134 NA 
HETATM    9  C   UNL     1      -8.506  13.613  67.182  1.00  0.00    -0.186 A  
HETATM   10  C   UNL     1     -10.433  13.307  65.114  1.00  0.00    -0.346 A  
HETATM   11  C   UNL     1      -9.090  14.748  66.608  1.00  0.00    -0.300 A  
HETATM   12  C   UNL     1     -11.392  13.167  63.968  1.00  0.00    -0.437 C  
HETATM   13  C   UNL     1     -10.021  14.582  65.567  1.00  0.00    -0.373 A  
BRANCH   8  14
HETATM   14  C   UNL     1      -7.614  10.777  68.203  1.00  0.00    -0.093 C  
BRANCH  14  15
HETATM   15  C   UNL     1      -7.871   9.569  69.088  1.00  0.00    -0.082 A  
HETATM   16  C   UNL     1      -7.071   8.427  69.089  1.00  0.00    -0.064 A  
HETATM   17  C   UNL     1      -9.030   8.639  71.055  1.00  0.00    -0.242 A  
HETATM   18  C   UNL     1      -8.875   9.640  70.072  1.00  0.00    -0.259 A  
HETATM   19  C   UNL     1      -7.262   7.412  70.050  1.00  0.00    -0.073 A  
HETATM   20  C   UNL     1      -8.221   7.494  71.084  1.00  0.00    -0.101 A  
BRANCH  20  21
HETATM   21  C   UNL     1      -8.287   6.441  72.155  1.00  0.00    -0.108 A  
HETATM   22  C   UNL     1      -7.816   5.859  74.518  1.00  0.00    -0.099 A  
HETATM   23  C   UNL     1      -7.841   6.777  73.453  1.00  0.00    -0.097 A  
HETATM   24  C   UNL     1      -8.740   4.199  73.092  1.00  0.00    -0.095 A  
HETATM   25  C   UNL     1      -8.771   5.119  72.008  1.00  0.00    -0.134 A  
HETATM   26  C   UNL     1      -8.243   4.565  74.334  1.00  0.00    -0.094 A  
HETATM   27  C   UNL     1      -9.295   4.562  70.740  1.00  0.00    -0.151 C  
HETATM   28  O   UNL     1     -10.409   3.845  71.017  1.00  0.00     0.066 OA 
HETATM   29  O   UNL     1      -8.790   4.632  69.637  1.00  0.00    -0.080 OA 
ENDBRANCH  20  21
ENDBRANCH  14  15
ENDBRANCH   8  14
BRANCH  11  30
HETATM   30  C   UNL     1      -8.728  16.103  67.057  1.00  0.00    -0.202 A  
HETATM   31  C   UNL     1      -6.753  18.541  68.692  1.00  0.00    -0.273 A  
HETATM   32  C   UNL     1      -6.958  19.927  68.725  1.00  0.00    -0.352 A  
HETATM   33  N   UNL     1      -7.664  16.380  67.796  1.00  0.00    -0.145 NA 
HETATM   34  C   UNL     1     -10.545  17.429  65.877  1.00  0.00    -0.200 C  
HETATM   35  C   UNL     1      -7.659  17.738  67.982  1.00  0.00    -0.236 A  
HETATM   36  C   UNL     1      -8.046  20.500  68.068  1.00  0.00    -0.010 A  
HETATM   37  N   UNL     1      -9.397  17.280  66.743  1.00  0.00    -0.250 NA 
HETATM   38  C   UNL     1      -8.735  18.332  67.336  1.00  0.00    -0.256 A  
HETATM   39  C   UNL     1      -8.960  19.714  67.359  1.00  0.00    -0.383 A  
ENDBRANCH  11  30
ENDBRANCH   3   4
ENDBRANCH   2   3
TORSDOF 6
ENDMDL
MODEL       90
REMARK 921   NORMALIZED FREE ENERGY PREDICTED BY IDOCK:   -4.64 KCAL/MOL
REMARK 922        TOTAL FREE ENERGY PREDICTED BY IDOCK:   -8.27 KCAL/MOL
REMARK 923 INTER-LIGAND FREE ENERGY PREDICTED BY IDOCK:   -7.60 KCAL/MOL
REMARK 924 INTRA-LIGAND FREE ENERGY PREDICTED BY IDOCK:   -0.67 KCAL/MOL
REMARK 927      BINDING AFFINITY PREDICTED BY RF-SCORE:    0.00 PKD
ROOT
HETATM    1  C   UNL     1     -12.211  13.854  64.261  1.00  0.00    -0.447 C  
HETATM    2  C   UNL     1     -10.814  14.327  64.639  1.00  0.00    -0.384 C  
ENDROOT
BRANCH   2   3
HETATM    3  C   UNL     1     -10.713  14.870  66.071  1.00  0.00    -0.326 C  
BRANCH   3   4
HETATM    4  C   UNL     1      -9.741  14.097  66.903  1.00  0.00    -0.269 A  
HETATM    5  N   UNL     1      -8.508  14.505  67.141  1.00  0.00    -0.211 NA 
HETATM    6  C   UNL     1      -7.893  13.498  67.835  1.00  0.00    -0.159 A  
HETATM    7  C   UNL     1      -8.785  12.461  68.062  1.00  0.00    -0.186 A  
HETATM    8  N   UNL     1      -9.980  12.880  67.514  1.00  0.00    -0.212 NA 
HETATM    9  C   UNL     1      -8.408  11.276  68.697  1.00  0.00    -0.146 A  
HETATM   10  C   UNL     1      -6.557  13.392  68.269  1.00  0.00    -0.105 A  
HETATM   11  C   UNL     1      -7.111  11.176  69.214  1.00  0.00    -0.123 A  
HETATM   12  C   UNL     1      -5.545  14.462  67.986  1.00  0.00    -0.128 C  
HETATM   13  C   UNL     1      -6.198  12.217  68.971  1.00  0.00    -0.082 A  
BRANCH   8  14
HETATM   14  C   UNL     1     -11.187  12.055  67.454  1.00  0.00    -0.307 C  
BRANCH  14  15
HETATM   15  C   UNL     1     -11.058  10.626  67.951  1.00  0.00    -0.371 A  
HETATM   16  C   UNL     1     -10.694   9.553  67.138  1.00  0.00    -0.252 A  
HETATM   17  C   UNL     1     -10.851   9.105  69.881  1.00  0.00    -0.242 A  
HETATM   18  C   UNL     1     -11.161  10.368  69.331  1.00  0.00    -0.304 A  
HETATM   19  C   UNL     1     -10.427   8.283  67.693  1.00  0.00    -0.303 A  
HETATM   20  C   UNL     1     -10.463   8.021  69.080  1.00  0.00    -0.217 A  
BRANCH  20  21
HETATM   21  C   UNL     1     -10.041   6.682  69.619  1.00  0.00    -0.202 A  
HETATM   22  C   UNL     1      -8.497   4.756  69.401  1.00  0.00    -0.091 A  
HETATM   23  C   UNL     1      -8.948   6.028  69.008  1.00  0.00    -0.124 A  
HETATM   24  C   UNL     1     -10.161   4.703  71.096  1.00  0.00    -0.243 A  
HETATM   25  C   UNL     1     -10.624   5.991  70.708  1.00  0.00    -0.316 A  
HETATM   26  C   UNL     1      -9.116   4.082  70.427  1.00  0.00    -0.183 A  
HETATM   27  C   UNL     1     -11.772   6.497  71.496  1.00  0.00    -0.324 C  
HETATM   28  O   UNL     1     -11.527   6.261  72.805  1.00  0.00    -0.245 OA 
HETATM   29  O   UNL     1     -12.812   6.962  71.073  1.00  0.00    -0.333 OA 
ENDBRANCH  20  21
ENDBRANCH  14  15
ENDBRANCH   8  14
BRANCH  11  30
HETATM   30  C   UNL     1      -6.684   9.992  69.981  1.00  0.00    -0.112 A  
HETATM   31  C   UNL     1      -6.011   8.108  72.898  1.00  0.00    -0.065 A  
HETATM   32  C   UNL     1      -5.587   6.775  72.977  1.00  0.00    -0.038 A  
HETATM   33  N   UNL     1      -6.645   9.940  71.304  1.00  0.00    -0.326 NA 
HETATM   34  C   UNL     1      -6.321   8.367  68.064  1.00  0.00    -0.056 C  
HETATM   35  C   UNL     1      -6.224   8.679  71.634  1.00  0.00    -0.063 A  
HETATM   36  C   UNL     1      -5.375   6.027  71.820  1.00  0.00    -0.022 A  
HETATM   37  N   UNL     1      -6.315   8.761  69.454  1.00  0.00    -0.040 NA 
HETATM   38  C   UNL     1      -6.005   7.914  70.496  1.00  0.00    -0.029 A  
HETATM   39  C   UNL     1      -5.579   6.581  70.552  1.00  0.00    -0.019 A  
ENDBRANCH  11  30
ENDBRANCH   3   4
ENDBRANCH   2   3
TORSDOF 6
ENDMDL
MODEL       91
REMARK 921   NORMALIZED FREE ENERGY PREDICTED BY IDOCK:   -4.61 KCAL/MOL
REMARK 922        TOTAL FREE ENERGY PREDICTED BY IDOCK:   -8.23 KCAL/MOL
REMARK 923 INTER-LIGAND FREE ENERGY PREDICTED BY IDOCK:   -7.11 KCAL/MOL
REMARK 924 INTRA-LIGAND FREE ENERGY PREDICTED BY IDOCK:   -1.11 KCAL/MOL
REMARK 927      BINDING AFFINITY PREDICTED BY RF-SCORE:    0.00 PKD
ROOT
HETATM    1  C   UNL     1      -9.646   8.910  70.929  1.00  0.00    -0.298 C  
HETATM    2  C   UNL     1      -8.316   8.245  70.601  1.00  0.00    -0.121 C  
ENDROOT
BRANCH   2   3
HETATM    3  C   UNL     1      -7.741   8.655  69.237  1.00  0.00    -0.096 C  
BRANCH   3   4
HETATM    4  C   UNL     1      -7.639  10.139  69.089  1.00  0.00    -0.103 A  
HETATM    5  N   UNL     1      -6.721  10.865  69.701  1.00  0.00    -0.117 NA 
HETATM    6  C   UNL     1      -7.009  12.173  69.417  1.00  0.00     0.043 A  
HETATM    7  C   UNL     1      -8.110  12.249  68.577  1.00  0.00    -0.101 A  
HETATM    8  N   UNL     1      -8.468  10.940  68.326  1.00  0.00    -0.128 NA 
HETATM    9  C   UNL     1      -8.660  13.466  68.173  1.00  0.00    -0.174 A  
HETATM   10  C   UNL     1      -6.388  13.351  69.878  1.00  0.00    -0.060 A  
HETATM   11  C   UNL     1      -8.015  14.651  68.546  1.00  0.00    -0.136 A  
HETATM   12  C   UNL     1      -5.237  13.314  70.840  1.00  0.00    -0.148 C  
HETATM   13  C   UNL     1      -6.909  14.580  69.412  1.00  0.00    -0.149 A  
BRANCH   8  14
HETATM   14  C   UNL     1      -9.640  10.547  67.543  1.00  0.00    -0.160 C  
BRANCH  14  15
HETATM   15  C   UNL     1      -9.634   9.139  66.972  1.00  0.00    -0.223 A  
HETATM   16  C   UNL     1      -8.688   8.680  66.056  1.00  0.00    -0.196 A  
HETATM   17  C   UNL     1     -10.441   6.817  67.153  1.00  0.00    -0.364 A  
HETATM   18  C   UNL     1     -10.529   8.185  67.490  1.00  0.00    -0.326 A  
HETATM   19  C   UNL     1      -8.636   7.317  65.693  1.00  0.00    -0.123 A  
HETATM   20  C   UNL     1      -9.483   6.334  66.249  1.00  0.00    -0.135 A  
BRANCH  20  21
HETATM   21  C   UNL     1      -9.291   4.879  65.920  1.00  0.00    -0.162 A  
HETATM   22  C   UNL     1      -9.953   2.979  64.474  1.00  0.00    -0.054 A  
HETATM   23  C   UNL     1     -10.022   4.334  64.841  1.00  0.00    -0.180 A  
HETATM   24  C   UNL     1      -8.366   2.605  66.201  1.00  0.00    -0.092 A  
HETATM   25  C   UNL     1      -8.426   3.974  66.580  1.00  0.00    -0.105 A  
HETATM   26  C   UNL     1      -9.145   2.108  65.166  1.00  0.00    -0.121 A  
HETATM   27  C   UNL     1      -7.562   4.336  67.728  1.00  0.00    -0.069 C  
HETATM   28  O   UNL     1      -6.350   3.764  67.545  1.00  0.00    -0.035 OA 
HETATM   29  O   UNL     1      -7.877   4.955  68.724  1.00  0.00    -0.076 OA 
ENDBRANCH  20  21
ENDBRANCH  14  15
ENDBRANCH   8  14
BRANCH  11  30
HETATM   30  C   UNL     1      -8.489  15.962  68.070  1.00  0.00    -0.162 A  
HETATM   31  C   UNL     1      -8.321  18.983  66.237  1.00  0.00    -0.293 A  
HETATM   32  C   UNL     1      -9.294  19.988  66.154  1.00  0.00    -0.415 A  
HETATM   33  N   UNL     1      -7.804  16.745  67.251  1.00  0.00    -0.165 NA 
HETATM   34  C   UNL     1     -10.800  15.973  69.124  1.00  0.00    -0.281 C  
HETATM   35  C   UNL     1      -8.581  17.852  67.026  1.00  0.00    -0.237 A  
HETATM   36  C   UNL     1     -10.498  19.871  66.845  1.00  0.00    -0.577 A  
HETATM   37  N   UNL     1      -9.718  16.544  68.354  1.00  0.00    -0.229 NA 
HETATM   38  C   UNL     1      -9.788  17.758  67.705  1.00  0.00    -0.295 A  
HETATM   39  C   UNL     1     -10.772  18.752  67.638  1.00  0.00    -0.449 A  
ENDBRANCH  11  30
ENDBRANCH   3   4
ENDBRANCH   2   3
TORSDOF 6
ENDMDL
MODEL       92
REMARK 921   NORMALIZED FREE ENERGY PREDICTED BY IDOCK:   -4.60 KCAL/MOL
REMARK 922        TOTAL FREE ENERGY PREDICTED BY IDOCK:   -8.21 KCAL/MOL
REMARK 923 INTER-LIGAND FREE ENERGY PREDICTED BY IDOCK:   -6.73 KCAL/MOL
REMARK 924 INTRA-LIGAND FREE ENERGY PREDICTED BY IDOCK:   -1.48 KCAL/MOL
REMARK 927      BINDING AFFINITY PREDICTED BY RF-SCORE:    0.00 PKD
ROOT
HETATM    1  C   UNL     1     -11.024   2.191  74.157  1.00  0.00    -0.208 C  
HETATM    2  C   UNL     1     -10.960   2.679  72.716  1.00  0.00     0.003 C  
ENDROOT
BRANCH   2   3
HETATM    3  C   UNL     1      -9.815   2.056  71.904  1.00  0.00    -0.216 C  
BRANCH   3   4
HETATM    4  C   UNL     1      -9.596   2.759  70.604  1.00  0.00    -0.104 A  
HETATM    5  N   UNL     1      -9.544   2.132  69.443  1.00  0.00    -0.036 NA 
HETATM    6  C   UNL     1      -9.222   3.076  68.505  1.00  0.00    -0.174 A  
HETATM    7  C   UNL     1      -9.111   4.323  69.102  1.00  0.00    -0.126 A  
HETATM    8  N   UNL     1      -9.411   4.119  70.433  1.00  0.00    -0.160 NA 
HETATM    9  C   UNL     1      -8.733   5.462  68.390  1.00  0.00    -0.098 A  
HETATM   10  C   UNL     1      -8.971   2.926  67.127  1.00  0.00    -0.181 A  
HETATM   11  C   UNL     1      -8.559   5.360  67.004  1.00  0.00    -0.109 A  
HETATM   12  C   UNL     1      -9.015   1.585  66.456  1.00  0.00    -0.101 C  
HETATM   13  C   UNL     1      -8.653   4.095  66.398  1.00  0.00    -0.113 A  
BRANCH   8  14
HETATM   14  C   UNL     1      -9.337   5.160  71.459  1.00  0.00    -0.148 C  
BRANCH  14  15
HETATM   15  C   UNL     1      -9.939   6.508  71.102  1.00  0.00    -0.202 A  
HETATM   16  C   UNL     1     -11.286   6.696  70.791  1.00  0.00    -0.366 A  
HETATM   17  C   UNL     1      -9.701   8.962  71.112  1.00  0.00    -0.344 A  
HETATM   18  C   UNL     1      -9.151   7.667  71.229  1.00  0.00    -0.146 A  
HETATM   19  C   UNL     1     -11.817   7.993  70.633  1.00  0.00    -0.102 A  
HETATM   20  C   UNL     1     -11.057   9.170  70.819  1.00  0.00    -0.336 A  
BRANCH  20  21
HETATM   21  C   UNL     1     -11.712  10.523  70.766  1.00  0.00    -0.454 A  
HETATM   22  C   UNL     1     -13.250  12.122  71.869  1.00  0.00    -0.474 A  
HETATM   23  C   UNL     1     -12.554  10.901  71.835  1.00  0.00    -0.225 A  
HETATM   24  C   UNL     1     -12.274  12.721  69.788  1.00  0.00    -0.213 A  
HETATM   25  C   UNL     1     -11.563  11.490  69.745  1.00  0.00    -0.401 A  
HETATM   26  C   UNL     1     -13.131  13.022  70.837  1.00  0.00    -0.011 A  
HETATM   27  C   UNL     1     -10.721  11.306  68.540  1.00  0.00    -0.201 C  
HETATM   28  O   UNL     1     -10.045  12.455  68.312  1.00  0.00    -0.217 OA 
HETATM   29  O   UNL     1     -10.687  10.340  67.802  1.00  0.00    -0.233 OA 
ENDBRANCH  20  21
ENDBRANCH  14  15
ENDBRANCH   8  14
BRANCH  11  30
HETATM   30  C   UNL     1      -8.258   6.546  66.183  1.00  0.00    -0.123 A  
HETATM   31  C   UNL     1      -8.981   9.558  64.476  1.00  0.00    -0.256 A  
HETATM   32  C   UNL     1      -8.085  10.391  63.792  1.00  0.00    -0.104 A  
HETATM   33  N   UNL     1      -9.159   7.445  65.820  1.00  0.00    -0.033 NA 
HETATM   34  C   UNL     1      -5.741   6.274  65.976  1.00  0.00    -0.024 C  
HETATM   35  C   UNL     1      -8.492   8.396  65.092  1.00  0.00    -0.160 A  
HETATM   36  C   UNL     1      -6.731  10.070  63.720  1.00  0.00    -0.128 A  
HETATM   37  N   UNL     1      -7.005   6.924  65.716  1.00  0.00    -0.062 NA 
HETATM   38  C   UNL     1      -7.139   8.097  65.006  1.00  0.00    -0.071 A  
HETATM   39  C   UNL     1      -6.227   8.914  64.326  1.00  0.00    -0.071 A  
ENDBRANCH  11  30
ENDBRANCH   3   4
ENDBRANCH   2   3
TORSDOF 6
ENDMDL
MODEL       93
REMARK 921   NORMALIZED FREE ENERGY PREDICTED BY IDOCK:   -4.56 KCAL/MOL
REMARK 922        TOTAL FREE ENERGY PREDICTED BY IDOCK:   -8.16 KCAL/MOL
REMARK 923 INTER-LIGAND FREE ENERGY PREDICTED BY IDOCK:   -7.79 KCAL/MOL
REMARK 924 INTRA-LIGAND FREE ENERGY PREDICTED BY IDOCK:   -0.37 KCAL/MOL
REMARK 927      BINDING AFFINITY PREDICTED BY RF-SCORE:    0.00 PKD
ROOT
HETATM    1  C   UNL     1     -10.419   5.761  73.606  1.00  0.00    -0.286 C  
HETATM    2  C   UNL     1     -10.595   4.604  72.632  1.00  0.00    -0.259 C  
ENDROOT
BRANCH   2   3
HETATM    3  C   UNL     1     -10.716   5.044  71.167  1.00  0.00    -0.072 C  
BRANCH   3   4
HETATM    4  C   UNL     1      -9.733   6.113  70.814  1.00  0.00    -0.177 A  
HETATM    5  N   UNL     1      -8.438   5.889  70.680  1.00  0.00    -0.127 NA 
HETATM    6  C   UNL     1      -7.853   7.108  70.468  1.00  0.00    -0.100 A  
HETATM    7  C   UNL     1      -8.820   8.102  70.432  1.00  0.00    -0.141 A  
HETATM    8  N   UNL     1     -10.024   7.446  70.595  1.00  0.00    -0.186 NA 
HETATM    9  C   UNL     1      -8.499   9.453  70.288  1.00  0.00    -0.237 A  
HETATM   10  C   UNL     1      -6.491   7.441  70.334  1.00  0.00    -0.039 A  
HETATM   11  C   UNL     1      -7.162   9.805  70.069  1.00  0.00    -0.130 A  
HETATM   12  C   UNL     1      -5.410   6.405  70.433  1.00  0.00    -0.014 C  
HETATM   13  C   UNL     1      -6.177   8.803  70.122  1.00  0.00    -0.034 A  
BRANCH   8  14
HETATM   14  C   UNL     1     -11.317   8.123  70.702  1.00  0.00    -0.249 C  
BRANCH  14  15
HETATM   15  C   UNL     1     -11.435   9.474  70.018  1.00  0.00    -0.149 A  
HETATM   16  C   UNL     1     -11.738  10.658  70.689  1.00  0.00    -0.454 A  
HETATM   17  C   UNL     1     -10.968  10.843  68.021  1.00  0.00    -0.317 A  
HETATM   18  C   UNL     1     -11.078   9.589  68.661  1.00  0.00    -0.034 A  
HETATM   19  C   UNL     1     -11.668  11.902  70.029  1.00  0.00    -0.366 A  
HETATM   20  C   UNL     1     -11.250  12.045  68.687  1.00  0.00    -0.309 A  
BRANCH  20  21
HETATM   21  C   UNL     1     -11.069  13.409  68.080  1.00  0.00    -0.281 A  
HETATM   22  C   UNL     1     -10.682  15.822  68.489  1.00  0.00    -0.274 A  
HETATM   23  C   UNL     1     -10.823  14.499  68.944  1.00  0.00    -0.262 A  
HETATM   24  C   UNL     1     -10.963  15.070  66.253  1.00  0.00    -0.338 A  
HETATM   25  C   UNL     1     -11.105  13.728  66.702  1.00  0.00    -0.316 A  
HETATM   26  C   UNL     1     -10.775  16.113  67.149  1.00  0.00    -0.262 A  
HETATM   27  C   UNL     1     -11.339  12.739  65.624  1.00  0.00    -0.319 C  
HETATM   28  O   UNL     1     -10.479  12.999  64.613  1.00  0.00    -0.343 OA 
HETATM   29  O   UNL     1     -12.204  11.887  65.577  1.00  0.00    -0.399 OA 
ENDBRANCH  20  21
ENDBRANCH  14  15
ENDBRANCH   8  14
BRANCH  11  30
HETATM   30  C   UNL     1      -6.773  11.202  69.812  1.00  0.00    -0.121 A  
HETATM   31  C   UNL     1      -5.329  14.342  70.568  1.00  0.00    -0.118 A  
HETATM   32  C   UNL     1      -5.223  15.460  69.729  1.00  0.00    -0.099 A  
HETATM   33  N   UNL     1      -6.150  11.972  70.690  1.00  0.00    -0.263 NA 
HETATM   34  C   UNL     1      -7.493  11.390  67.383  1.00  0.00    -0.120 C  
HETATM   35  C   UNL     1      -5.943  13.180  70.076  1.00  0.00    -0.135 A  
HETATM   36  C   UNL     1      -5.724  15.422  68.429  1.00  0.00    -0.105 A  
HETATM   37  N   UNL     1      -6.948  11.898  68.622  1.00  0.00    -0.088 NA 
HETATM   38  C   UNL     1      -6.435  13.167  68.777  1.00  0.00    -0.095 A  
HETATM   39  C   UNL     1      -6.342  14.274  67.924  1.00  0.00    -0.173 A  
ENDBRANCH  11  30
ENDBRANCH   3   4
ENDBRANCH   2   3
TORSDOF 6
ENDMDL
MODEL       94
REMARK 921   NORMALIZED FREE ENERGY PREDICTED BY IDOCK:   -4.54 KCAL/MOL
REMARK 922        TOTAL FREE ENERGY PREDICTED BY IDOCK:   -8.13 KCAL/MOL
REMARK 923 INTER-LIGAND FREE ENERGY PREDICTED BY IDOCK:   -8.19 KCAL/MOL
REMARK 924 INTRA-LIGAND FREE ENERGY PREDICTED BY IDOCK:    0.06 KCAL/MOL
REMARK 927      BINDING AFFINITY PREDICTED BY RF-SCORE:    0.00 PKD
ROOT
HETATM    1  C   UNL     1     -11.766  16.169  68.867  1.00  0.00    -0.250 C  
HETATM    2  C   UNL     1     -12.370  15.689  70.179  1.00  0.00    -0.366 C  
ENDROOT
BRANCH   2   3
HETATM    3  C   UNL     1     -12.293  14.168  70.374  1.00  0.00    -0.428 C  
BRANCH   3   4
HETATM    4  C   UNL     1     -11.252  13.538  69.506  1.00  0.00    -0.132 A  
HETATM    5  N   UNL     1     -10.237  14.209  68.991  1.00  0.00    -0.175 NA 
HETATM    6  C   UNL     1      -9.570  13.336  68.174  1.00  0.00    -0.227 A  
HETATM    7  C   UNL     1     -10.169  12.087  68.219  1.00  0.00    -0.206 A  
HETATM    8  N   UNL     1     -11.207  12.212  69.119  1.00  0.00    -0.248 NA 
HETATM    9  C   UNL     1      -9.730  11.018  67.435  1.00  0.00    -0.189 A  
HETATM   10  C   UNL     1      -8.462  13.561  67.333  1.00  0.00    -0.203 A  
HETATM   11  C   UNL     1      -8.581  11.187  66.654  1.00  0.00    -0.165 A  
HETATM   12  C   UNL     1      -7.826  14.914  67.206  1.00  0.00    -0.235 C  
HETATM   13  C   UNL     1      -7.980  12.457  66.592  1.00  0.00     0.144 A  
BRANCH   8  14
HETATM   14  C   UNL     1     -12.167  11.147  69.416  1.00  0.00    -0.259 C  
BRANCH  14  15
HETATM   15  C   UNL     1     -11.741  10.118  70.449  1.00  0.00    -0.390 A  
HETATM   16  C   UNL     1     -12.601   9.578  71.404  1.00  0.00    -0.447 A  
HETATM   17  C   UNL     1     -10.066   8.454  71.160  1.00  0.00    -0.248 A  
HETATM   18  C   UNL     1     -10.454   9.554  70.365  1.00  0.00    -0.336 A  
HETATM   19  C   UNL     1     -12.189   8.507  72.224  1.00  0.00    -0.454 A  
HETATM   20  C   UNL     1     -10.926   7.885  72.112  1.00  0.00    -0.339 A  
BRANCH  20  21
HETATM   21  C   UNL     1     -10.596   6.663  72.924  1.00  0.00    -0.272 A  
HETATM   22  C   UNL     1     -11.307   4.400  73.640  1.00  0.00    -0.287 A  
HETATM   23  C   UNL     1     -11.493   5.573  72.887  1.00  0.00    -0.327 A  
HETATM   24  C   UNL     1      -9.272   5.284  74.490  1.00  0.00    -0.116 A  
HETATM   25  C   UNL     1      -9.450   6.474  73.731  1.00  0.00    -0.180 A  
HETATM   26  C   UNL     1     -10.211   4.263  74.459  1.00  0.00    -0.275 A  
HETATM   27  C   UNL     1      -8.378   7.482  73.905  1.00  0.00    -0.187 C  
HETATM   28  O   UNL     1      -7.184   6.848  73.851  1.00  0.00    -0.091 OA 
HETATM   29  O   UNL     1      -8.508   8.665  74.150  1.00  0.00    -0.236 OA 
ENDBRANCH  20  21
ENDBRANCH  14  15
ENDBRANCH   8  14
BRANCH  11  30
HETATM   30  C   UNL     1      -8.010  10.069  65.883  1.00  0.00    -0.124 A  
HETATM   31  C   UNL     1      -5.955   7.242  65.336  1.00  0.00    -0.037 A  
HETATM   32  C   UNL     1      -5.886   6.444  64.187  1.00  0.00    -0.023 A  
HETATM   33  N   UNL     1      -7.096   9.235  66.352  1.00  0.00    -0.087 NA 
HETATM   34  C   UNL     1      -9.402  10.274  63.768  1.00  0.00    -0.295 C  
HETATM   35  C   UNL     1      -6.842   8.329  65.355  1.00  0.00    -0.062 A  
HETATM   36  C   UNL     1      -6.681   6.725  63.078  1.00  0.00    -0.043 A  
HETATM   37  N   UNL     1      -8.370   9.691  64.595  1.00  0.00    -0.147 NA 
HETATM   38  C   UNL     1      -7.624   8.589  64.237  1.00  0.00    -0.122 A  
HETATM   39  C   UNL     1      -7.568   7.806  63.078  1.00  0.00    -0.126 A  
ENDBRANCH  11  30
ENDBRANCH   3   4
ENDBRANCH   2   3
TORSDOF 6
ENDMDL
MODEL       95
REMARK 921   NORMALIZED FREE ENERGY PREDICTED BY IDOCK:   -4.52 KCAL/MOL
REMARK 922        TOTAL FREE ENERGY PREDICTED BY IDOCK:   -8.10 KCAL/MOL
REMARK 923 INTER-LIGAND FREE ENERGY PREDICTED BY IDOCK:   -7.42 KCAL/MOL
REMARK 924 INTRA-LIGAND FREE ENERGY PREDICTED BY IDOCK:   -0.68 KCAL/MOL
REMARK 927      BINDING AFFINITY PREDICTED BY RF-SCORE:    0.00 PKD
ROOT
HETATM    1  C   UNL     1     -14.362   7.565  70.957  1.00  0.00    -0.096 C  
HETATM    2  C   UNL     1     -13.308   6.749  71.693  1.00  0.00    -0.209 C  
ENDROOT
BRANCH   2   3
HETATM    3  C   UNL     1     -12.321   7.601  72.503  1.00  0.00    -0.080 C  
BRANCH   3   4
HETATM    4  C   UNL     1     -12.162   8.975  71.935  1.00  0.00    -0.381 A  
HETATM    5  N   UNL     1     -12.860  10.015  72.351  1.00  0.00    -0.206 NA 
HETATM    6  C   UNL     1     -12.525  11.060  71.533  1.00  0.00    -0.284 A  
HETATM    7  C   UNL     1     -11.566  10.660  70.615  1.00  0.00    -0.336 A  
HETATM    8  N   UNL     1     -11.298   9.341  70.919  1.00  0.00    -0.285 NA 
HETATM    9  C   UNL     1     -11.084  11.509  69.618  1.00  0.00    -0.211 A  
HETATM   10  C   UNL     1     -13.034  12.374  71.498  1.00  0.00    -0.385 A  
HETATM   11  C   UNL     1     -11.508  12.843  69.610  1.00  0.00    -0.251 A  
HETATM   12  C   UNL     1     -14.119  12.827  72.429  1.00  0.00    -0.092 C  
HETATM   13  C   UNL     1     -12.493  13.250  70.528  1.00  0.00    -0.332 A  
BRANCH   8  14
HETATM   14  C   UNL     1     -10.395   8.488  70.144  1.00  0.00    -0.207 C  
BRANCH  14  15
HETATM   15  C   UNL     1      -9.949   9.024  68.795  1.00  0.00    -0.194 A  
HETATM   16  C   UNL     1      -8.857   9.874  68.622  1.00  0.00    -0.128 A  
HETATM   17  C   UNL     1     -10.060   8.831  66.339  1.00  0.00    -0.313 A  
HETATM   18  C   UNL     1     -10.559   8.533  67.625  1.00  0.00    -0.268 A  
HETATM   19  C   UNL     1      -8.392  10.201  67.331  1.00  0.00    -0.118 A  
HETATM   20  C   UNL     1      -8.951   9.669  66.148  1.00  0.00    -0.186 A  
BRANCH  20  21
HETATM   21  C   UNL     1      -8.328   9.952  64.809  1.00  0.00    -0.163 A  
HETATM   22  C   UNL     1      -6.381   9.599  63.317  1.00  0.00    -0.106 A  
HETATM   23  C   UNL     1      -7.075   9.368  64.517  1.00  0.00    -0.101 A  
HETATM   24  C   UNL     1      -8.165  10.976  62.566  1.00  0.00    -0.184 A  
HETATM   25  C   UNL     1      -8.876  10.748  63.776  1.00  0.00    -0.131 A  
HETATM   26  C   UNL     1      -6.913  10.420  62.351  1.00  0.00    -0.155 A  
HETATM   27  C   UNL     1     -10.181  11.444  63.866  1.00  0.00    -0.363 C  
HETATM   28  O   UNL     1     -10.831  11.286  62.691  1.00  0.00     0.265 OA 
HETATM   29  O   UNL     1     -10.592  12.128  64.782  1.00  0.00    -0.273 OA 
ENDBRANCH  20  21
ENDBRANCH  14  15
ENDBRANCH   8  14
BRANCH  11  30
HETATM   30  C   UNL     1     -10.960  13.813  68.646  1.00  0.00    -0.266 A  
HETATM   31  C   UNL     1      -8.637  16.181  67.417  1.00  0.00    -0.196 A  
HETATM   32  C   UNL     1      -8.662  16.842  66.182  1.00  0.00    -0.280 A  
HETATM   33  N   UNL     1      -9.846  14.502  68.840  1.00  0.00    -0.217 NA 
HETATM   34  C   UNL     1     -12.631  13.507  66.758  1.00  0.00     0.012 C  
HETATM   35  C   UNL     1      -9.661  15.270  67.720  1.00  0.00    -0.206 A  
HETATM   36  C   UNL     1      -9.688  16.605  65.269  1.00  0.00     0.542 A  
HETATM   37  N   UNL     1     -11.484  14.113  67.395  1.00  0.00    -0.326 NA 
HETATM   38  C   UNL     1     -10.673  15.051  66.794  1.00  0.00    -0.308 A  
HETATM   39  C   UNL     1     -10.718  15.704  65.556  1.00  0.00    -0.403 A  
ENDBRANCH  11  30
ENDBRANCH   3   4
ENDBRANCH   2   3
TORSDOF 6
ENDMDL
MODEL       96
REMARK 921   NORMALIZED FREE ENERGY PREDICTED BY IDOCK:   -4.49 KCAL/MOL
REMARK 922        TOTAL FREE ENERGY PREDICTED BY IDOCK:   -8.07 KCAL/MOL
REMARK 923 INTER-LIGAND FREE ENERGY PREDICTED BY IDOCK:   -7.13 KCAL/MOL
REMARK 924 INTRA-LIGAND FREE ENERGY PREDICTED BY IDOCK:   -0.94 KCAL/MOL
REMARK 927      BINDING AFFINITY PREDICTED BY RF-SCORE:    0.00 PKD
ROOT
HETATM    1  C   UNL     1      -6.324  15.009  68.915  1.00  0.00    -0.090 C  
HETATM    2  C   UNL     1      -6.554  13.720  68.139  1.00  0.00    -0.126 C  
ENDROOT
BRANCH   2   3
HETATM    3  C   UNL     1      -5.360  12.756  68.174  1.00  0.00    -0.081 C  
BRANCH   3   4
HETATM    4  C   UNL     1      -5.617  11.506  67.398  1.00  0.00    -0.072 A  
HETATM    5  N   UNL     1      -5.601  11.458  66.078  1.00  0.00    -0.222 NA 
HETATM    6  C   UNL     1      -5.987  10.191  65.731  1.00  0.00    -0.088 A  
HETATM    7  C   UNL     1      -6.208   9.430  66.869  1.00  0.00    -0.065 A  
HETATM    8  N   UNL     1      -5.911  10.263  67.928  1.00  0.00    -0.041 NA 
HETATM    9  C   UNL     1      -6.669   8.114  66.811  1.00  0.00    -0.064 A  
HETATM   10  C   UNL     1      -6.204   9.636  64.454  1.00  0.00    -0.098 A  
HETATM   11  C   UNL     1      -6.813   7.508  65.557  1.00  0.00    -0.052 A  
HETATM   12  C   UNL     1      -6.040  10.443  63.201  1.00  0.00    -0.131 C  
HETATM   13  C   UNL     1      -6.607   8.281  64.400  1.00  0.00    -0.066 A  
BRANCH   8  14
HETATM   14  C   UNL     1      -6.085   9.895  69.334  1.00  0.00    -0.040 C  
BRANCH  14  15
HETATM   15  C   UNL     1      -7.515   9.813  69.841  1.00  0.00    -0.142 A  
HETATM   16  C   UNL     1      -8.614  10.313  69.143  1.00  0.00    -0.167 A  
HETATM   17  C   UNL     1      -9.109   8.779  71.412  1.00  0.00    -0.313 A  
HETATM   18  C   UNL     1      -7.789   9.066  71.002  1.00  0.00    -0.174 A  
HETATM   19  C   UNL     1      -9.929  10.057  69.585  1.00  0.00    -0.263 A  
HETATM   20  C   UNL     1     -10.226   9.257  70.711  1.00  0.00    -0.353 A  
BRANCH  20  21
HETATM   21  C   UNL     1     -11.649   8.913  71.054  1.00  0.00    -0.347 A  
HETATM   22  C   UNL     1     -13.295   7.113  71.494  1.00  0.00    -0.413 A  
HETATM   23  C   UNL     1     -11.988   7.551  71.217  1.00  0.00    -0.333 A  
HETATM   24  C   UNL     1     -14.030   9.371  71.530  1.00  0.00    -0.222 A  
HETATM   25  C   UNL     1     -12.712   9.826  71.252  1.00  0.00    -0.464 A  
HETATM   26  C   UNL     1     -14.321   8.018  71.628  1.00  0.00    -0.581 A  
HETATM   27  C   UNL     1     -12.577  11.297  71.141  1.00  0.00    -0.397 C  
HETATM   28  O   UNL     1     -13.258  11.865  72.162  1.00  0.00    -0.494 OA 
HETATM   29  O   UNL     1     -12.037  11.925  70.252  1.00  0.00    -0.337 OA 
ENDBRANCH  20  21
ENDBRANCH  14  15
ENDBRANCH   8  14
BRANCH  11  30
HETATM   30  C   UNL     1      -7.200   6.092  65.433  1.00  0.00    -0.070 A  
HETATM   31  C   UNL     1      -6.826   2.721  64.430  1.00  0.00    -0.040 A  
HETATM   32  C   UNL     1      -7.681   1.646  64.707  1.00  0.00    -0.064 A  
HETATM   33  N   UNL     1      -6.481   5.180  64.797  1.00  0.00    -0.034 NA 
HETATM   34  C   UNL     1      -9.310   6.116  66.847  1.00  0.00    -0.134 C  
HETATM   35  C   UNL     1      -7.155   3.993  64.922  1.00  0.00    -0.066 A  
HETATM   36  C   UNL     1      -8.841   1.835  65.455  1.00  0.00    -0.124 A  
HETATM   37  N   UNL     1      -8.323   5.495  65.992  1.00  0.00    -0.118 NA 
HETATM   38  C   UNL     1      -8.317   4.157  65.665  1.00  0.00    -0.109 A  
HETATM   39  C   UNL     1      -9.186   3.097  65.951  1.00  0.00    -0.137 A  
ENDBRANCH  11  30
ENDBRANCH   3   4
ENDBRANCH   2   3
TORSDOF 6
ENDMDL
MODEL       97
REMARK 921   NORMALIZED FREE ENERGY PREDICTED BY IDOCK:   -4.48 KCAL/MOL
REMARK 922        TOTAL FREE ENERGY PREDICTED BY IDOCK:   -8.05 KCAL/MOL
REMARK 923 INTER-LIGAND FREE ENERGY PREDICTED BY IDOCK:   -7.60 KCAL/MOL
REMARK 924 INTRA-LIGAND FREE ENERGY PREDICTED BY IDOCK:   -0.45 KCAL/MOL
REMARK 927      BINDING AFFINITY PREDICTED BY RF-SCORE:    0.00 PKD
ROOT
HETATM    1  C   UNL     1     -12.943  12.182  63.211  1.00  0.00    -0.162 C  
HETATM    2  C   UNL     1     -12.297  11.287  64.260  1.00  0.00     0.788 C  
ENDROOT
BRANCH   2   3
HETATM    3  C   UNL     1     -10.777  11.466  64.372  1.00  0.00    -0.405 C  
BRANCH   3   4
HETATM    4  C   UNL     1     -10.405  12.769  65.003  1.00  0.00    -0.303 A  
HETATM    5  N   UNL     1     -10.985  13.914  64.693  1.00  0.00    -0.394 NA 
HETATM    6  C   UNL     1     -10.315  14.889  65.381  1.00  0.00    -0.388 A  
HETATM    7  C   UNL     1      -9.322  14.321  66.166  1.00  0.00    -0.160 A  
HETATM    8  N   UNL     1      -9.428  12.961  65.962  1.00  0.00    -0.165 NA 
HETATM    9  C   UNL     1      -8.442  15.090  66.931  1.00  0.00    -0.269 A  
HETATM   10  C   UNL     1     -10.482  16.287  65.352  1.00  0.00    -0.365 A  
HETATM   11  C   UNL     1      -8.637  16.475  66.987  1.00  0.00    -0.219 A  
HETATM   12  C   UNL     1     -11.499  16.944  64.467  1.00  0.00     0.575 C  
HETATM   13  C   UNL     1      -9.631  17.056  66.180  1.00  0.00    -0.265 A  
BRANCH   8  14
HETATM   14  C   UNL     1      -8.514  11.972  66.536  1.00  0.00    -0.065 C  
BRANCH  14  15
HETATM   15  C   UNL     1      -9.047  11.149  67.696  1.00  0.00    -0.147 A  
HETATM   16  C   UNL     1     -10.298  10.534  67.698  1.00  0.00    -0.257 A  
HETATM   17  C   UNL     1      -8.554   9.930  69.782  1.00  0.00    -0.219 A  
HETATM   18  C   UNL     1      -8.194  10.852  68.776  1.00  0.00    -0.151 A  
HETATM   19  C   UNL     1     -10.666   9.647  68.732  1.00  0.00    -0.234 A  
HETATM   20  C   UNL     1      -9.801   9.288  69.789  1.00  0.00    -0.202 A  
BRANCH  20  21
HETATM   21  C   UNL     1     -10.203   8.237  70.787  1.00  0.00    -0.219 A  
HETATM   22  C   UNL     1     -11.351   7.747  72.928  1.00  0.00    -0.406 A  
HETATM   23  C   UNL     1     -10.959   8.636  71.911  1.00  0.00    -0.412 A  
HETATM   24  C   UNL     1     -10.313   5.964  71.750  1.00  0.00    -0.263 A  
HETATM   25  C   UNL     1      -9.913   6.854  70.716  1.00  0.00    -0.201 A  
HETATM   26  C   UNL     1     -11.009   6.417  72.861  1.00  0.00    -0.281 A  
HETATM   27  C   UNL     1      -9.144   6.220  69.620  1.00  0.00    -0.142 C  
HETATM   28  O   UNL     1      -9.758   5.064  69.281  1.00  0.00    -0.147 OA 
HETATM   29  O   UNL     1      -8.089   6.593  69.145  1.00  0.00    -0.113 OA 
ENDBRANCH  20  21
ENDBRANCH  14  15
ENDBRANCH   8  14
BRANCH  11  30
HETATM   30  C   UNL     1      -7.805  17.328  67.853  1.00  0.00    -0.196 A  
HETATM   31  C   UNL     1      -6.477  20.374  69.065  1.00  0.00    -0.273 A  
HETATM   32  C   UNL     1      -5.597  20.557  70.140  1.00  0.00    -0.367 A  
HETATM   33  N   UNL     1      -7.742  18.647  67.755  1.00  0.00    -0.235 NA 
HETATM   34  C   UNL     1      -6.887  15.553  69.422  1.00  0.00    -0.176 C  
HETATM   35  C   UNL     1      -6.889  19.073  68.739  1.00  0.00    -0.300 A  
HETATM   36  C   UNL     1      -5.134  19.465  70.873  1.00  0.00    -0.237 A  
HETATM   37  N   UNL     1      -7.017  16.901  68.915  1.00  0.00    -0.202 NA 
HETATM   38  C   UNL     1      -6.415  18.002  69.484  1.00  0.00    -0.185 A  
HETATM   39  C   UNL     1      -5.533  18.161  70.560  1.00  0.00    -0.238 A  
ENDBRANCH  11  30
ENDBRANCH   3   4
ENDBRANCH   2   3
TORSDOF 6
ENDMDL
MODEL       98
REMARK 921   NORMALIZED FREE ENERGY PREDICTED BY IDOCK:   -4.47 KCAL/MOL
REMARK 922        TOTAL FREE ENERGY PREDICTED BY IDOCK:   -8.04 KCAL/MOL
REMARK 923 INTER-LIGAND FREE ENERGY PREDICTED BY IDOCK:   -7.34 KCAL/MOL
REMARK 924 INTRA-LIGAND FREE ENERGY PREDICTED BY IDOCK:   -0.70 KCAL/MOL
REMARK 927      BINDING AFFINITY PREDICTED BY RF-SCORE:    0.00 PKD
ROOT
HETATM    1  C   UNL     1      -9.993  15.499  69.028  1.00  0.00    -0.233 C  
HETATM    2  C   UNL     1     -11.144  15.353  68.040  1.00  0.00    -0.312 C  
ENDROOT
BRANCH   2   3
HETATM    3  C   UNL     1     -11.226  13.965  67.391  1.00  0.00    -0.330 C  
BRANCH   3   4
HETATM    4  C   UNL     1     -11.358  12.873  68.403  1.00  0.00    -0.294 A  
HETATM    5  N   UNL     1     -12.269  12.879  69.359  1.00  0.00    -0.169 NA 
HETATM    6  C   UNL     1     -12.012  11.790  70.147  1.00  0.00    -0.339 A  
HETATM    7  C   UNL     1     -10.939  11.074  69.637  1.00  0.00    -0.225 A  
HETATM    8  N   UNL     1     -10.567  11.742  68.489  1.00  0.00    -0.210 NA 
HETATM    9  C   UNL     1     -10.422   9.945  70.276  1.00  0.00    -0.348 A  
HETATM   10  C   UNL     1     -12.638  11.375  71.339  1.00  0.00    -0.439 A  
HETATM   11  C   UNL     1     -11.076   9.460  71.415  1.00  0.00    -0.450 A  
HETATM   12  C   UNL     1     -13.758  12.157  71.958  1.00  0.00    -0.102 C  
HETATM   13  C   UNL     1     -12.153  10.192  71.945  1.00  0.00    -0.101 A  
BRANCH   8  14
HETATM   14  C   UNL     1      -9.412  11.378  67.667  1.00  0.00    -0.162 C  
BRANCH  14  15
HETATM   15  C   UNL     1      -9.223   9.897  67.382  1.00  0.00    -0.151 A  
HETATM   16  C   UNL     1      -9.722   9.257  66.249  1.00  0.00    -0.340 A  
HETATM   17  C   UNL     1      -7.996   7.821  67.893  1.00  0.00    -0.125 A  
HETATM   18  C   UNL     1      -8.377   9.142  68.215  1.00  0.00    -0.120 A  
HETATM   19  C   UNL     1      -9.371   7.922  65.958  1.00  0.00    -0.129 A  
HETATM   20  C   UNL     1      -8.473   7.168  66.747  1.00  0.00    -0.121 A  
BRANCH  20  21
HETATM   21  C   UNL     1      -8.036   5.796  66.313  1.00  0.00    -0.102 A  
HETATM   22  C   UNL     1      -8.541   3.370  66.301  1.00  0.00    -0.119 A  
HETATM   23  C   UNL     1      -8.871   4.699  66.619  1.00  0.00    -0.111 A  
HETATM   24  C   UNL     1      -6.531   4.127  65.286  1.00  0.00    -0.039 A  
HETATM   25  C   UNL     1      -6.856   5.475  65.601  1.00  0.00    -0.064 A  
HETATM   26  C   UNL     1      -7.362   3.079  65.657  1.00  0.00    -0.072 A  
HETATM   27  C   UNL     1      -5.847   6.470  65.171  1.00  0.00    -0.026 C  
HETATM   28  O   UNL     1      -5.465   6.171  63.908  1.00  0.00    -0.017 OA 
HETATM   29  O   UNL     1      -5.351   7.357  65.838  1.00  0.00    -0.027 OA 
ENDBRANCH  20  21
ENDBRANCH  14  15
ENDBRANCH   8  14
BRANCH  11  30
HETATM   30  C   UNL     1     -10.639   8.218  72.075  1.00  0.00    -0.296 A  
HETATM   31  C   UNL     1     -11.052   5.027  73.545  1.00  0.00    -0.386 A  
HETATM   32  C   UNL     1     -10.053   4.176  74.038  1.00  0.00    -0.206 A  
HETATM   33  N   UNL     1     -11.459   7.247  72.446  1.00  0.00    -0.285 NA 
HETATM   34  C   UNL     1      -8.126   8.586  72.025  1.00  0.00    -0.117 C  
HETATM   35  C   UNL     1     -10.679   6.264  72.996  1.00  0.00    -0.253 A  
HETATM   36  C   UNL     1      -8.712   4.552  73.990  1.00  0.00    -0.104 A  
HETATM   37  N   UNL     1      -9.328   7.856  72.359  1.00  0.00    -0.168 NA 
HETATM   38  C   UNL     1      -9.336   6.616  72.959  1.00  0.00    -0.135 A  
HETATM   39  C   UNL     1      -8.323   5.782  73.449  1.00  0.00    -0.115 A  
ENDBRANCH  11  30
ENDBRANCH   3   4
ENDBRANCH   2   3
TORSDOF 6
ENDMDL
MODEL       99
REMARK 921   NORMALIZED FREE ENERGY PREDICTED BY IDOCK:   -4.45 KCAL/MOL
REMARK 922        TOTAL FREE ENERGY PREDICTED BY IDOCK:   -8.01 KCAL/MOL
REMARK 923 INTER-LIGAND FREE ENERGY PREDICTED BY IDOCK:   -7.90 KCAL/MOL
REMARK 924 INTRA-LIGAND FREE ENERGY PREDICTED BY IDOCK:   -0.11 KCAL/MOL
REMARK 927      BINDING AFFINITY PREDICTED BY RF-SCORE:    0.00 PKD
ROOT
HETATM    1  C   UNL     1      -6.425  19.932  67.000  1.00  0.00    -0.212 C  
HETATM    2  C   UNL     1      -5.339  19.464  66.041  1.00  0.00    -0.168 C  
ENDROOT
BRANCH   2   3
HETATM    3  C   UNL     1      -5.302  17.942  65.845  1.00  0.00    -0.237 C  
BRANCH   3   4
HETATM    4  C   UNL     1      -6.570  17.284  66.285  1.00  0.00    -0.213 A  
HETATM    5  N   UNL     1      -7.768  17.710  65.926  1.00  0.00    -0.544 NA 
HETATM    6  C   UNL     1      -8.673  16.938  66.604  1.00  0.00    -0.247 A  
HETATM    7  C   UNL     1      -8.013  15.988  67.369  1.00  0.00    -0.159 A  
HETATM    8  N   UNL     1      -6.671  16.180  67.111  1.00  0.00    -0.197 NA 
HETATM    9  C   UNL     1      -8.690  15.103  68.210  1.00  0.00    -0.171 A  
HETATM   10  C   UNL     1     -10.079  17.023  66.638  1.00  0.00    -0.308 A  
HETATM   11  C   UNL     1     -10.089  15.107  68.201  1.00  0.00    -0.222 A  
HETATM   12  C   UNL     1     -10.827  18.077  65.878  1.00  0.00     0.025 C  
HETATM   13  C   UNL     1     -10.763  16.080  67.441  1.00  0.00    -0.306 A  
BRANCH   8  14
HETATM   14  C   UNL     1      -5.595  15.443  67.775  1.00  0.00    -0.109 C  
BRANCH  14  15
HETATM   15  C   UNL     1      -5.924  14.032  68.235  1.00  0.00    -0.118 A  
HETATM   16  C   UNL     1      -6.133  13.683  69.568  1.00  0.00    -0.114 A  
HETATM   17  C   UNL     1      -6.688  11.770  67.625  1.00  0.00    -0.091 A  
HETATM   18  C   UNL     1      -6.182  13.039  67.272  1.00  0.00     0.052 A  
HETATM   19  C   UNL     1      -6.599  12.397  69.914  1.00  0.00     0.112 A  
HETATM   20  C   UNL     1      -6.924  11.408  68.959  1.00  0.00    -0.106 A  
BRANCH  20  21
HETATM   21  C   UNL     1      -7.540  10.103  69.384  1.00  0.00    -0.133 A  
HETATM   22  C   UNL     1      -9.375   8.473  69.043  1.00  0.00    -0.146 A  
HETATM   23  C   UNL     1      -8.693   9.654  68.701  1.00  0.00    -0.124 A  
HETATM   24  C   UNL     1      -7.774   8.055  70.747  1.00  0.00    -0.082 A  
HETATM   25  C   UNL     1      -7.074   9.246  70.409  1.00  0.00    -0.091 A  
HETATM   26  C   UNL     1      -8.932   7.685  70.079  1.00  0.00    -0.143 A  
HETATM   27  C   UNL     1      -5.880   9.518  71.242  1.00  0.00    -0.075 C  
HETATM   28  O   UNL     1      -5.180   8.368  71.372  1.00  0.00    -0.032 OA 
HETATM   29  O   UNL     1      -5.593  10.555  71.806  1.00  0.00    -0.308 OA 
ENDBRANCH  20  21
ENDBRANCH  14  15
ENDBRANCH   8  14
BRANCH  11  30
HETATM   30  C   UNL     1     -10.861  14.132  68.991  1.00  0.00    -0.251 A  
HETATM   31  C   UNL     1     -11.918  10.910  69.998  1.00  0.00    -0.429 A  
HETATM   32  C   UNL     1     -12.812  10.585  71.027  1.00  0.00    -0.502 A  
HETATM   33  N   UNL     1     -10.787  12.820  68.826  1.00  0.00    -0.245 NA 
HETATM   34  C   UNL     1     -12.008  15.722  70.605  1.00  0.00    -0.393 C  
HETATM   35  C   UNL     1     -11.627  12.260  69.753  1.00  0.00    -0.243 A  
HETATM   36  C   UNL     1     -13.408  11.586  71.793  1.00  0.00    -0.356 A  
HETATM   37  N   UNL     1     -11.725  14.423  70.039  1.00  0.00    -0.283 NA 
HETATM   38  C   UNL     1     -12.233  13.240  70.529  1.00  0.00    -0.340 A  
HETATM   39  C   UNL     1     -13.132  12.937  71.560  1.00  0.00    -0.390 A  
ENDBRANCH  11  30
ENDBRANCH   3   4
ENDBRANCH   2   3
TORSDOF 6
ENDMDL
MODEL      100
REMARK 921   NORMALIZED FREE ENERGY PREDICTED BY IDOCK:   -4.36 KCAL/MOL
REMARK 922        TOTAL FREE ENERGY PREDICTED BY IDOCK:   -7.89 KCAL/MOL
REMARK 923 INTER-LIGAND FREE ENERGY PREDICTED BY IDOCK:   -8.28 KCAL/MOL
REMARK 924 INTRA-LIGAND FREE ENERGY PREDICTED BY IDOCK:    0.39 KCAL/MOL
REMARK 927      BINDING AFFINITY PREDICTED BY RF-SCORE:    0.00 PKD
ROOT
HETATM    1  C   UNL     1      -9.001   7.241  74.244  1.00  0.00    -0.248 C  
HETATM    2  C   UNL     1      -9.804   5.972  74.493  1.00  0.00    -0.295 C  
ENDROOT
BRANCH   2   3
HETATM    3  C   UNL     1     -10.881   5.706  73.431  1.00  0.00    -0.315 C  
BRANCH   3   4
HETATM    4  C   UNL     1     -10.990   6.822  72.443  1.00  0.00    -0.246 A  
HETATM    5  N   UNL     1     -11.752   7.884  72.633  1.00  0.00    -0.367 NA 
HETATM    6  C   UNL     1     -11.682   8.623  71.482  1.00  0.00    -0.305 A  
HETATM    7  C   UNL     1     -10.824   8.017  70.577  1.00  0.00    -0.241 A  
HETATM    8  N   UNL     1     -10.341   6.898  71.225  1.00  0.00    -0.203 NA 
HETATM    9  C   UNL     1     -10.610   8.524  69.295  1.00  0.00    -0.193 A  
HETATM   10  C   UNL     1     -12.361   9.807  71.132  1.00  0.00    -0.451 A  
HETATM   11  C   UNL     1     -11.204   9.743  68.948  1.00  0.00    -0.076 A  
HETATM   12  C   UNL     1     -13.347  10.457  72.056  1.00  0.00    -0.440 C  
HETATM   13  C   UNL     1     -12.089  10.352  69.855  1.00  0.00    -0.252 A  
BRANCH   8  14
HETATM   14  C   UNL     1      -9.457   5.910  70.605  1.00  0.00    -0.171 C  
BRANCH  14  15
HETATM   15  C   UNL     1      -8.746   6.340  69.333  1.00  0.00    -0.128 A  
HETATM   16  C   UNL     1      -9.348   6.353  68.076  1.00  0.00    -0.115 A  
HETATM   17  C   UNL     1      -6.825   7.504  68.316  1.00  0.00    -0.063 A  
HETATM   18  C   UNL     1      -7.457   6.900  69.424  1.00  0.00    -0.094 A  
HETATM   19  C   UNL     1      -8.690   6.920  66.965  1.00  0.00    -0.119 A  
HETATM   20  C   UNL     1      -7.425   7.544  67.048  1.00  0.00    -0.098 A  
BRANCH  20  21
HETATM   21  C   UNL     1      -6.835   8.246  65.857  1.00  0.00    -0.064 A  
HETATM   22  C   UNL     1      -5.937  10.366  64.939  1.00  0.00    -0.122 A  
HETATM   23  C   UNL     1      -6.457   9.600  65.997  1.00  0.00    -0.078 A  
HETATM   24  C   UNL     1      -6.071   8.468  63.517  1.00  0.00    -0.077 A  
HETATM   25  C   UNL     1      -6.596   7.683  64.581  1.00  0.00    -0.044 A  
HETATM   26  C   UNL     1      -5.766   9.809  63.693  1.00  0.00    -0.105 A  
HETATM   27  C   UNL     1      -6.907   6.281  64.219  1.00  0.00    -0.042 C  
HETATM   28  O   UNL     1      -5.875   5.789  63.496  1.00  0.00    -0.020 OA 
HETATM   29  O   UNL     1      -7.937   5.672  64.432  1.00  0.00    -0.111 OA 
ENDBRANCH  20  21
ENDBRANCH  14  15
ENDBRANCH   8  14
BRANCH  11  30
HETATM   30  C   UNL     1     -10.938  10.379  67.646  1.00  0.00    -0.312 A  
HETATM   31  C   UNL     1      -9.885  10.506  64.271  1.00  0.00    -0.402 A  
HETATM   32  C   UNL     1      -9.927  11.605  63.402  1.00  0.00    -0.447 A  
HETATM   33  N   UNL     1     -10.426   9.746  66.602  1.00  0.00    -0.196 NA 
HETATM   34  C   UNL     1     -11.876  12.692  68.118  1.00  0.00    -0.315 C  
HETATM   35  C   UNL     1     -10.353  10.661  65.585  1.00  0.00    -0.216 A  
HETATM   36  C   UNL     1     -10.422  12.834  63.835  1.00  0.00    -0.402 A  
HETATM   37  N   UNL     1     -11.221  11.695  67.302  1.00  0.00    -0.289 NA 
HETATM   38  C   UNL     1     -10.842  11.896  65.992  1.00  0.00    -0.299 A  
HETATM   39  C   UNL     1     -10.891  13.007  65.141  1.00  0.00    -0.320 A  
ENDBRANCH  11  30
ENDBRANCH   3   4
ENDBRANCH   2   3
TORSDOF 6
ENDMDL
MODEL      101
REMARK 921   NORMALIZED FREE ENERGY PREDICTED BY IDOCK:   -4.36 KCAL/MOL
REMARK 922        TOTAL FREE ENERGY PREDICTED BY IDOCK:   -7.89 KCAL/MOL
REMARK 923 INTER-LIGAND FREE ENERGY PREDICTED BY IDOCK:   -6.28 KCAL/MOL
REMARK 924 INTRA-LIGAND FREE ENERGY PREDICTED BY IDOCK:   -1.61 KCAL/MOL
REMARK 927      BINDING AFFINITY PREDICTED BY RF-SCORE:    0.00 PKD
ROOT
HETATM    1  C   UNL     1     -10.738   4.258  74.067  1.00  0.00    -0.320 C  
HETATM    2  C   UNL     1     -10.529   4.275  72.559  1.00  0.00    -0.222 C  
ENDROOT
BRANCH   2   3
HETATM    3  C   UNL     1      -9.116   4.701  72.137  1.00  0.00    -0.151 C  
BRANCH   3   4
HETATM    4  C   UNL     1      -9.061   5.151  70.713  1.00  0.00    -0.135 A  
HETATM    5  N   UNL     1      -9.050   4.316  69.690  1.00  0.00    -0.103 NA 
HETATM    6  C   UNL     1      -8.884   5.080  68.567  1.00  0.00    -0.101 A  
HETATM    7  C   UNL     1      -8.832   6.424  68.906  1.00  0.00    -0.125 A  
HETATM    8  N   UNL     1      -9.006   6.461  70.275  1.00  0.00    -0.153 NA 
HETATM    9  C   UNL     1      -8.610   7.426  67.961  1.00  0.00    -0.122 A  
HETATM   10  C   UNL     1      -8.733   4.683  67.224  1.00  0.00    -0.104 A  
HETATM   11  C   UNL     1      -8.539   7.069  66.609  1.00  0.00    -0.124 A  
HETATM   12  C   UNL     1      -8.717   3.237  66.823  1.00  0.00    -0.132 C  
HETATM   13  C   UNL     1      -8.574   5.707  66.262  1.00  0.00    -0.127 A  
BRANCH   8  14
HETATM   14  C   UNL     1      -8.939   7.684  71.076  1.00  0.00    -0.146 C  
BRANCH  14  15
HETATM   15  C   UNL     1      -9.514   8.941  70.445  1.00  0.00    -0.227 A  
HETATM   16  C   UNL     1      -8.734   9.971  69.922  1.00  0.00    -0.169 A  
HETATM   17  C   UNL     1     -11.479  10.068  69.473  1.00  0.00    -0.176 A  
HETATM   18  C   UNL     1     -10.903   9.027  70.232  1.00  0.00    -0.269 A  
HETATM   19  C   UNL     1      -9.325  11.030  69.201  1.00  0.00    -0.039 A  
HETATM   20  C   UNL     1     -10.708  11.102  68.921  1.00  0.00    -0.246 A  
BRANCH  20  21
HETATM   21  C   UNL     1     -11.257  12.186  68.036  1.00  0.00    -0.319 A  
HETATM   22  C   UNL     1     -11.811  12.889  65.725  1.00  0.00    -0.469 A  
HETATM   23  C   UNL     1     -11.354  11.933  66.650  1.00  0.00    -0.400 A  
HETATM   24  C   UNL     1     -12.172  14.419  67.506  1.00  0.00    -0.210 A  
HETATM   25  C   UNL     1     -11.714  13.460  68.450  1.00  0.00    -0.390 A  
HETATM   26  C   UNL     1     -12.198  14.139  66.147  1.00  0.00    -0.465 A  
HETATM   27  C   UNL     1     -11.712  13.928  69.855  1.00  0.00    -0.291 C  
HETATM   28  O   UNL     1     -12.880  14.567  70.093  1.00  0.00    -0.290 OA 
HETATM   29  O   UNL     1     -10.803  13.856  70.658  1.00  0.00     0.669 OA 
ENDBRANCH  20  21
ENDBRANCH  14  15
ENDBRANCH   8  14
BRANCH  11  30
HETATM   30  C   UNL     1      -8.406   8.091  65.556  1.00  0.00    -0.147 A  
HETATM   31  C   UNL     1      -9.541  10.560  63.292  1.00  0.00    -0.373 A  
HETATM   32  C   UNL     1      -8.770  11.349  62.428  1.00  0.00    -0.099 A  
HETATM   33  N   UNL     1      -9.423   8.764  65.042  1.00  0.00     0.224 NA 
HETATM   34  C   UNL     1      -5.875   8.130  65.339  1.00  0.00    -0.044 C  
HETATM   35  C   UNL     1      -8.895   9.628  64.118  1.00  0.00    -0.226 A  
HETATM   36  C   UNL     1      -7.384  11.209  62.385  1.00  0.00     0.058 A  
HETATM   37  N   UNL     1      -7.218   8.533  64.987  1.00  0.00    -0.082 NA 
HETATM   38  C   UNL     1      -7.513   9.506  64.057  1.00  0.00    -0.122 A  
HETATM   39  C   UNL     1      -6.724  10.283  63.199  1.00  0.00    -0.117 A  
ENDBRANCH  11  30
ENDBRANCH   3   4
ENDBRANCH   2   3
TORSDOF 6
ENDMDL
MODEL      102
REMARK 921   NORMALIZED FREE ENERGY PREDICTED BY IDOCK:   -4.30 KCAL/MOL
REMARK 922        TOTAL FREE ENERGY PREDICTED BY IDOCK:   -7.81 KCAL/MOL
REMARK 923 INTER-LIGAND FREE ENERGY PREDICTED BY IDOCK:   -6.59 KCAL/MOL
REMARK 924 INTRA-LIGAND FREE ENERGY PREDICTED BY IDOCK:   -1.22 KCAL/MOL
REMARK 927      BINDING AFFINITY PREDICTED BY RF-SCORE:    0.00 PKD
ROOT
HETATM    1  C   UNL     1     -11.979  12.488  63.450  1.00  0.00    -0.602 C  
HETATM    2  C   UNL     1     -11.153  11.219  63.616  1.00  0.00    -0.300 C  
ENDROOT
BRANCH   2   3
HETATM    3  C   UNL     1      -9.762  11.463  64.216  1.00  0.00    -0.263 C  
BRANCH   3   4
HETATM    4  C   UNL     1      -9.411  10.454  65.262  1.00  0.00    -0.237 A  
HETATM    5  N   UNL     1      -8.533   9.487  65.069  1.00  0.00    -0.144 NA 
HETATM    6  C   UNL     1      -8.560   8.707  66.193  1.00  0.00    -0.142 A  
HETATM    7  C   UNL     1      -9.451   9.232  67.117  1.00  0.00    -0.149 A  
HETATM    8  N   UNL     1      -9.945  10.382  66.535  1.00  0.00    -0.209 NA 
HETATM    9  C   UNL     1      -9.724   8.605  68.334  1.00  0.00    -0.176 A  
HETATM   10  C   UNL     1      -7.872   7.510  66.474  1.00  0.00    -0.102 A  
HETATM   11  C   UNL     1      -8.994   7.460  68.676  1.00  0.00    -0.131 A  
HETATM   12  C   UNL     1      -6.951   6.874  65.475  1.00  0.00    -0.060 C  
HETATM   13  C   UNL     1      -8.102   6.914  67.736  1.00  0.00    -0.114 A  
BRANCH   8  14
HETATM   14  C   UNL     1     -10.987  11.219  67.131  1.00  0.00    -0.291 C  
BRANCH  14  15
HETATM   15  C   UNL     1     -10.675  12.700  67.264  1.00  0.00    -0.259 A  
HETATM   16  C   UNL     1     -11.512  13.712  66.796  1.00  0.00    -0.370 A  
HETATM   17  C   UNL     1      -9.330  14.452  68.358  1.00  0.00    -0.206 A  
HETATM   18  C   UNL     1      -9.561  13.100  68.026  1.00  0.00    -0.220 A  
HETATM   19  C   UNL     1     -11.248  15.065  67.098  1.00  0.00    -0.336 A  
HETATM   20  C   UNL     1     -10.172  15.482  67.913  1.00  0.00    -0.238 A  
BRANCH  20  21
HETATM   21  C   UNL     1     -10.021  16.926  68.306  1.00  0.00    -0.282 A  
HETATM   22  C   UNL     1      -9.993  18.575  70.155  1.00  0.00     1.252 A  
HETATM   23  C   UNL     1     -10.078  17.255  69.679  1.00  0.00     0.137 A  
HETATM   24  C   UNL     1      -9.726  19.349  67.926  1.00  0.00    -0.445 A  
HETATM   25  C   UNL     1      -9.809  18.018  67.433  1.00  0.00    -0.309 A  
HETATM   26  C   UNL     1      -9.841  19.625  69.281  1.00  0.00    -0.333 A  
HETATM   27  C   UNL     1      -9.707  17.898  65.960  1.00  0.00    -0.129 C  
HETATM   28  O   UNL     1      -8.693  18.686  65.537  1.00  0.00    -0.043 OA 
HETATM   29  O   UNL     1     -10.446  17.285  65.215  1.00  0.00    -0.661 OA 
ENDBRANCH  20  21
ENDBRANCH  14  15
ENDBRANCH   8  14
BRANCH  11  30
HETATM   30  C   UNL     1      -9.164   6.810  69.987  1.00  0.00    -0.158 A  
HETATM   31  C   UNL     1      -8.818   6.473  73.492  1.00  0.00    -0.135 A  
HETATM   32  C   UNL     1      -9.336   5.460  74.309  1.00  0.00    -0.132 A  
HETATM   33  N   UNL     1      -8.685   7.294  71.123  1.00  0.00    -0.134 NA 
HETATM   34  C   UNL     1     -10.638   4.862  69.293  1.00  0.00     0.270 C  
HETATM   35  C   UNL     1      -9.068   6.426  72.112  1.00  0.00    -0.140 A  
HETATM   36  C   UNL     1     -10.084   4.419  73.763  1.00  0.00    -0.199 A  
HETATM   37  N   UNL     1      -9.877   5.645  70.240  1.00  0.00    -0.183 NA 
HETATM   38  C   UNL     1      -9.816   5.378  71.591  1.00  0.00    -0.172 A  
HETATM   39  C   UNL     1     -10.340   4.354  72.389  1.00  0.00    -0.241 A  
ENDBRANCH  11  30
ENDBRANCH   3   4
ENDBRANCH   2   3
TORSDOF 6
ENDMDL
MODEL      103
REMARK 921   NORMALIZED FREE ENERGY PREDICTED BY IDOCK:   -4.29 KCAL/MOL
REMARK 922        TOTAL FREE ENERGY PREDICTED BY IDOCK:   -7.79 KCAL/MOL
REMARK 923 INTER-LIGAND FREE ENERGY PREDICTED BY IDOCK:   -8.28 KCAL/MOL
REMARK 924 INTRA-LIGAND FREE ENERGY PREDICTED BY IDOCK:    0.50 KCAL/MOL
REMARK 927      BINDING AFFINITY PREDICTED BY RF-SCORE:    0.00 PKD
ROOT
HETATM    1  C   UNL     1      -9.987  15.093  68.442  1.00  0.00    -0.222 C  
HETATM    2  C   UNL     1     -11.404  15.360  68.933  1.00  0.00    -0.322 C  
ENDROOT
BRANCH   2   3
HETATM    3  C   UNL     1     -12.370  14.191  68.693  1.00  0.00    -0.053 C  
BRANCH   3   4
HETATM    4  C   UNL     1     -11.688  13.008  68.085  1.00  0.00    -0.351 A  
HETATM    5  N   UNL     1     -11.078  13.047  66.914  1.00  0.00    -0.270 NA 
HETATM    6  C   UNL     1     -10.677  11.767  66.643  1.00  0.00    -0.263 A  
HETATM    7  C   UNL     1     -11.015  10.927  67.694  1.00  0.00    -0.293 A  
HETATM    8  N   UNL     1     -11.607  11.743  68.636  1.00  0.00    -0.283 NA 
HETATM    9  C   UNL     1     -10.777   9.552  67.659  1.00  0.00    -0.314 A  
HETATM   10  C   UNL     1     -10.049  11.246  65.494  1.00  0.00    -0.306 A  
HETATM   11  C   UNL     1     -10.080   9.020  66.568  1.00  0.00    -0.354 A  
HETATM   12  C   UNL     1      -9.727  12.108  64.309  1.00  0.00    -0.076 C  
HETATM   13  C   UNL     1      -9.751   9.864  65.493  1.00  0.00    -0.370 A  
BRANCH   8  14
HETATM   14  C   UNL     1     -12.197  11.258  69.885  1.00  0.00    -0.288 C  
BRANCH  14  15
HETATM   15  C   UNL     1     -11.438  10.160  70.612  1.00  0.00    -0.432 A  
HETATM   16  C   UNL     1     -12.056   9.114  71.296  1.00  0.00    -0.392 A  
HETATM   17  C   UNL     1      -9.297   8.986  70.953  1.00  0.00    -0.326 A  
HETATM   18  C   UNL     1     -10.038  10.089  70.477  1.00  0.00    -0.094 A  
HETATM   19  C   UNL     1     -11.301   8.037  71.806  1.00  0.00    -0.318 A  
HETATM   20  C   UNL     1      -9.905   7.916  71.626  1.00  0.00    -0.212 A  
BRANCH  20  21
HETATM   21  C   UNL     1      -9.177   6.680  72.078  1.00  0.00    -0.142 A  
HETATM   22  C   UNL     1      -9.115   4.203  72.090  1.00  0.00    -0.156 A  
HETATM   23  C   UNL     1      -9.688   5.422  71.689  1.00  0.00    -0.204 A  
HETATM   24  C   UNL     1      -7.428   5.397  73.261  1.00  0.00    -0.096 A  
HETATM   25  C   UNL     1      -7.998   6.636  72.859  1.00  0.00    -0.103 A  
HETATM   26  C   UNL     1      -8.000   4.187  72.895  1.00  0.00    -0.085 A  
HETATM   27  C   UNL     1      -7.290   7.835  73.365  1.00  0.00    -0.106 C  
HETATM   28  O   UNL     1      -5.961   7.647  73.199  1.00  0.00    -0.051 OA 
HETATM   29  O   UNL     1      -7.774   8.798  73.926  1.00  0.00    -0.417 OA 
ENDBRANCH  20  21
ENDBRANCH  14  15
ENDBRANCH   8  14
BRANCH  11  30
HETATM   30  C   UNL     1      -9.711   7.594  66.520  1.00  0.00    -0.181 A  
HETATM   31  C   UNL     1      -7.970   4.749  65.341  1.00  0.00    -0.099 A  
HETATM   32  C   UNL     1      -8.047   3.437  65.828  1.00  0.00    -0.093 A  
HETATM   33  N   UNL     1      -8.836   7.083  65.668  1.00  0.00    -0.073 NA 
HETATM   34  C   UNL     1     -11.058   6.753  68.503  1.00  0.00    -0.142 C  
HETATM   35  C   UNL     1      -8.749   5.745  65.951  1.00  0.00    -0.149 A  
HETATM   36  C   UNL     1      -8.885   3.123  66.896  1.00  0.00    -0.156 A  
HETATM   37  N   UNL     1     -10.172   6.597  67.371  1.00  0.00    -0.168 NA 
HETATM   38  C   UNL     1      -9.577   5.407  67.013  1.00  0.00    -0.139 A  
HETATM   39  C   UNL     1      -9.670   4.102  67.513  1.00  0.00    -0.185 A  
ENDBRANCH  11  30
ENDBRANCH   3   4
ENDBRANCH   2   3
TORSDOF 6
ENDMDL
MODEL      104
REMARK 921   NORMALIZED FREE ENERGY PREDICTED BY IDOCK:   -4.27 KCAL/MOL
REMARK 922        TOTAL FREE ENERGY PREDICTED BY IDOCK:   -7.77 KCAL/MOL
REMARK 923 INTER-LIGAND FREE ENERGY PREDICTED BY IDOCK:   -6.64 KCAL/MOL
REMARK 924 INTRA-LIGAND FREE ENERGY PREDICTED BY IDOCK:   -1.13 KCAL/MOL
REMARK 927      BINDING AFFINITY PREDICTED BY RF-SCORE:    0.00 PKD
ROOT
HETATM    1  C   UNL     1      -7.165   9.318  70.638  1.00  0.00    -0.120 C  
HETATM    2  C   UNL     1      -5.848   8.711  70.176  1.00  0.00    -0.027 C  
ENDROOT
BRANCH   2   3
HETATM    3  C   UNL     1      -5.148   9.521  69.076  1.00  0.00    -0.037 C  
BRANCH   3   4
HETATM    4  C   UNL     1      -5.541  10.962  69.097  1.00  0.00    -0.040 A  
HETATM    5  N   UNL     1      -5.252  11.776  70.097  1.00  0.00    -0.079 NA 
HETATM    6  C   UNL     1      -5.863  12.968  69.816  1.00  0.00    -0.123 A  
HETATM    7  C   UNL     1      -6.510  12.896  68.591  1.00  0.00    -0.087 A  
HETATM    8  N   UNL     1      -6.247  11.629  68.113  1.00  0.00    -0.045 NA 
HETATM    9  C   UNL     1      -7.266  13.953  68.082  1.00  0.00    -0.120 A  
HETATM   10  C   UNL     1      -5.934  14.146  70.586  1.00  0.00    -0.194 A  
HETATM   11  C   UNL     1      -7.286  15.164  68.784  1.00  0.00    -0.127 A  
HETATM   12  C   UNL     1      -5.304  14.242  71.944  1.00  0.00    -0.196 C  
HETATM   13  C   UNL     1      -6.646  15.236  70.034  1.00  0.00    -0.125 A  
BRANCH   8  14
HETATM   14  C   UNL     1      -6.808  11.087  66.875  1.00  0.00    -0.121 C  
BRANCH  14  15
HETATM   15  C   UNL     1      -7.335   9.663  66.934  1.00  0.00    -0.091 A  
HETATM   16  C   UNL     1      -6.587   8.546  66.563  1.00  0.00    -0.059 A  
HETATM   17  C   UNL     1      -9.041   8.110  67.801  1.00  0.00    -0.140 A  
HETATM   18  C   UNL     1      -8.585   9.418  67.531  1.00  0.00    -0.122 A  
HETATM   19  C   UNL     1      -7.070   7.242  66.799  1.00  0.00    -0.082 A  
HETATM   20  C   UNL     1      -8.293   6.975  67.453  1.00  0.00    -0.122 A  
BRANCH  20  21
HETATM   21  C   UNL     1      -8.691   5.565  67.793  1.00  0.00    -0.106 A  
HETATM   22  C   UNL     1      -8.859   3.829  69.553  1.00  0.00    -0.149 A  
HETATM   23  C   UNL     1      -8.559   5.137  69.132  1.00  0.00    -0.096 A  
HETATM   24  C   UNL     1      -9.508   3.278  67.335  1.00  0.00    -0.198 A  
HETATM   25  C   UNL     1      -9.209   4.599  66.899  1.00  0.00    -0.133 A  
HETATM   26  C   UNL     1      -9.310   2.893  68.653  1.00  0.00    -0.239 A  
HETATM   27  C   UNL     1      -9.438   4.838  65.455  1.00  0.00    -0.163 C  
HETATM   28  O   UNL     1     -10.630   4.295  65.117  1.00  0.00    -0.253 OA 
HETATM   29  O   UNL     1      -8.673   5.345  64.659  1.00  0.00    -0.136 OA 
ENDBRANCH  20  21
ENDBRANCH  14  15
ENDBRANCH   8  14
BRANCH  11  30
HETATM   30  C   UNL     1      -7.983  16.346  68.249  1.00  0.00    -0.170 A  
HETATM   31  C   UNL     1      -8.355  19.248  66.261  1.00  0.00    -0.327 A  
HETATM   32  C   UNL     1      -9.487  20.066  66.143  1.00  0.00    -0.447 A  
HETATM   33  N   UNL     1      -7.451  17.191  67.380  1.00  0.00    -0.156 NA 
HETATM   34  C   UNL     1     -10.252  16.017  69.343  1.00  0.00    -0.270 C  
HETATM   35  C   UNL     1      -8.409  18.133  67.111  1.00  0.00    -0.238 A  
HETATM   36  C   UNL     1     -10.647  19.780  66.862  1.00  0.00    -0.588 A  
HETATM   37  N   UNL     1      -9.292  16.723  68.525  1.00  0.00    -0.238 NA 
HETATM   38  C   UNL     1      -9.576  17.869  67.816  1.00  0.00    -0.277 A  
HETATM   39  C   UNL     1     -10.717  18.675  67.715  1.00  0.00    -0.394 A  
ENDBRANCH  11  30
ENDBRANCH   3   4
ENDBRANCH   2   3
TORSDOF 6
ENDMDL
MODEL      105
REMARK 921   NORMALIZED FREE ENERGY PREDICTED BY IDOCK:   -4.27 KCAL/MOL
REMARK 922        TOTAL FREE ENERGY PREDICTED BY IDOCK:   -7.76 KCAL/MOL
REMARK 923 INTER-LIGAND FREE ENERGY PREDICTED BY IDOCK:   -6.52 KCAL/MOL
REMARK 924 INTRA-LIGAND FREE ENERGY PREDICTED BY IDOCK:   -1.24 KCAL/MOL
REMARK 927      BINDING AFFINITY PREDICTED BY RF-SCORE:    0.00 PKD
ROOT
HETATM    1  C   UNL     1      -9.708  14.782  66.677  1.00  0.00    -0.281 C  
HETATM    2  C   UNL     1     -11.030  14.566  67.402  1.00  0.00    -0.306 C  
ENDROOT
BRANCH   2   3
HETATM    3  C   UNL     1     -11.896  13.458  66.787  1.00  0.00    -0.452 C  
BRANCH   3   4
HETATM    4  C   UNL     1     -11.086  12.279  66.356  1.00  0.00    -0.303 A  
HETATM    5  N   UNL     1     -10.481  12.207  65.184  1.00  0.00    -0.272 NA 
HETATM    6  C   UNL     1      -9.940  10.952  65.103  1.00  0.00    -0.284 A  
HETATM    7  C   UNL     1     -10.186  10.249  66.273  1.00  0.00    -0.221 A  
HETATM    8  N   UNL     1     -10.868  11.128  67.090  1.00  0.00    -0.259 NA 
HETATM    9  C   UNL     1      -9.798   8.919  66.443  1.00  0.00    -0.353 A  
HETATM   10  C   UNL     1      -9.254  10.336  64.038  1.00  0.00    -0.311 A  
HETATM   11  C   UNL     1      -9.043   8.307  65.435  1.00  0.00     0.004 A  
HETATM   12  C   UNL     1      -9.025  11.038  62.732  1.00  0.00    -0.327 C  
HETATM   13  C   UNL     1      -8.805   9.010  64.240  1.00  0.00    -0.089 A  
BRANCH   8  14
HETATM   14  C   UNL     1     -11.404  10.776  68.405  1.00  0.00    -0.302 C  
BRANCH  14  15
HETATM   15  C   UNL     1     -10.436  10.129  69.381  1.00  0.00    -0.254 A  
HETATM   16  C   UNL     1     -10.791   9.107  70.261  1.00  0.00    -0.282 A  
HETATM   17  C   UNL     1      -8.092   9.749  70.043  1.00  0.00    -0.203 A  
HETATM   18  C   UNL     1      -9.069  10.457  69.311  1.00  0.00    -0.188 A  
HETATM   19  C   UNL     1      -9.812   8.434  71.021  1.00  0.00    -0.232 A  
HETATM   20  C   UNL     1      -8.429   8.705  70.917  1.00  0.00    -0.195 A  
BRANCH  20  21
HETATM   21  C   UNL     1      -7.424   7.864  71.656  1.00  0.00    -0.073 A  
HETATM   22  C   UNL     1      -6.151   7.527  73.754  1.00  0.00    -0.064 A  
HETATM   23  C   UNL     1      -7.107   8.215  72.987  1.00  0.00    -0.137 A  
HETATM   24  C   UNL     1      -5.787   6.035  71.942  1.00  0.00    -0.031 A  
HETATM   25  C   UNL     1      -6.754   6.723  71.157  1.00  0.00    -0.057 A  
HETATM   26  C   UNL     1      -5.474   6.453  73.228  1.00  0.00    -0.038 A  
HETATM   27  C   UNL     1      -6.944   6.174  69.794  1.00  0.00    -0.070 C  
HETATM   28  O   UNL     1      -7.018   4.827  69.883  1.00  0.00    -0.049 OA 
HETATM   29  O   UNL     1      -6.944   6.786  68.744  1.00  0.00    -0.073 OA 
ENDBRANCH  20  21
ENDBRANCH  14  15
ENDBRANCH   8  14
BRANCH  11  30
HETATM   30  C   UNL     1      -8.519   6.940  65.597  1.00  0.00    -0.136 A  
HETATM   31  C   UNL     1      -8.720   3.452  66.149  1.00  0.00    -0.126 A  
HETATM   32  C   UNL     1      -7.671   2.522  66.140  1.00  0.00    -0.076 A  
HETATM   33  N   UNL     1      -9.274   5.882  65.851  1.00  0.00    -0.133 NA 
HETATM   34  C   UNL     1      -6.069   7.374  65.088  1.00  0.00    -0.038 C  
HETATM   35  C   UNL     1      -8.430   4.803  65.906  1.00  0.00    -0.117 A  
HETATM   36  C   UNL     1      -6.361   2.932  65.899  1.00  0.00    -0.028 A  
HETATM   37  N   UNL     1      -7.193   6.547  65.463  1.00  0.00    -0.071 NA 
HETATM   38  C   UNL     1      -7.117   5.187  65.669  1.00  0.00    -0.067 A  
HETATM   39  C   UNL     1      -6.054   4.275  65.659  1.00  0.00    -0.027 A  
ENDBRANCH  11  30
ENDBRANCH   3   4
ENDBRANCH   2   3
TORSDOF 6
ENDMDL
MODEL      106
REMARK 921   NORMALIZED FREE ENERGY PREDICTED BY IDOCK:   -4.25 KCAL/MOL
REMARK 922        TOTAL FREE ENERGY PREDICTED BY IDOCK:   -7.74 KCAL/MOL
REMARK 923 INTER-LIGAND FREE ENERGY PREDICTED BY IDOCK:   -6.73 KCAL/MOL
REMARK 924 INTRA-LIGAND FREE ENERGY PREDICTED BY IDOCK:   -1.00 KCAL/MOL
REMARK 927      BINDING AFFINITY PREDICTED BY RF-SCORE:    0.00 PKD
ROOT
HETATM    1  C   UNL     1     -10.608   7.065  70.480  1.00  0.00    -0.245 C  
HETATM    2  C   UNL     1     -11.011   8.357  69.781  1.00  0.00    -0.130 C  
ENDROOT
BRANCH   2   3
HETATM    3  C   UNL     1      -9.880   8.994  68.962  1.00  0.00    -0.178 C  
BRANCH   3   4
HETATM    4  C   UNL     1      -9.950  10.487  68.966  1.00  0.00    -0.211 A  
HETATM    5  N   UNL     1     -10.990  11.161  69.424  1.00  0.00    -0.248 NA 
HETATM    6  C   UNL     1     -10.742  12.482  69.163  1.00  0.00    -0.023 A  
HETATM    7  C   UNL     1      -9.499  12.625  68.565  1.00  0.00    -0.091 A  
HETATM    8  N   UNL     1      -8.976  11.349  68.499  1.00  0.00    -0.167 NA 
HETATM    9  C   UNL     1      -9.013  13.861  68.136  1.00  0.00    -0.185 A  
HETATM   10  C   UNL     1     -11.558  13.609  69.379  1.00  0.00    -0.368 A  
HETATM   11  C   UNL     1      -9.764  15.010  68.413  1.00  0.00    -0.216 A  
HETATM   12  C   UNL     1     -12.935  13.490  69.962  1.00  0.00     0.371 C  
HETATM   13  C   UNL     1     -11.032  14.868  69.004  1.00  0.00    -0.251 A  
BRANCH   8  14
HETATM   14  C   UNL     1      -7.702  11.018  67.860  1.00  0.00    -0.104 C  
BRANCH  14  15
HETATM   15  C   UNL     1      -7.701   9.817  66.930  1.00  0.00    -0.098 A  
HETATM   16  C   UNL     1      -6.832   8.735  67.065  1.00  0.00    -0.070 A  
HETATM   17  C   UNL     1      -8.897   8.515  65.211  1.00  0.00    -0.144 A  
HETATM   18  C   UNL     1      -8.719   9.695  65.965  1.00  0.00    -0.155 A  
HETATM   19  C   UNL     1      -6.993   7.576  66.276  1.00  0.00    -0.066 A  
HETATM   20  C   UNL     1      -8.045   7.410  65.348  1.00  0.00    -0.133 A  
BRANCH  20  21
HETATM   21  C   UNL     1      -8.238   6.101  64.633  1.00  0.00    -0.094 A  
HETATM   22  C   UNL     1      -7.713   4.738  62.631  1.00  0.00    -0.062 A  
HETATM   23  C   UNL     1      -7.569   5.903  63.405  1.00  0.00    -0.081 A  
HETATM   24  C   UNL     1      -9.166   3.837  64.281  1.00  0.00    -0.141 A  
HETATM   25  C   UNL     1      -9.026   5.011  65.072  1.00  0.00    -0.131 A  
HETATM   26  C   UNL     1      -8.528   3.715  63.055  1.00  0.00    -0.086 A  
HETATM   27  C   UNL     1      -9.803   5.000  66.334  1.00  0.00    -0.201 C  
HETATM   28  O   UNL     1      -9.639   3.794  66.924  1.00  0.00    -0.205 OA 
HETATM   29  O   UNL     1     -10.545   5.866  66.753  1.00  0.00    -0.259 OA 
ENDBRANCH  20  21
ENDBRANCH  14  15
ENDBRANCH   8  14
BRANCH  11  30
HETATM   30  C   UNL     1      -9.260  16.352  68.076  1.00  0.00    -0.204 A  
HETATM   31  C   UNL     1      -7.263  19.244  68.476  1.00  0.00    -0.349 A  
HETATM   32  C   UNL     1      -7.207  20.368  67.641  1.00  0.00    -0.346 A  
HETATM   33  N   UNL     1      -8.347  17.001  68.782  1.00  0.00    -0.253 NA 
HETATM   34  C   UNL     1     -10.500  16.721  65.890  1.00  0.00    -0.301 C  
HETATM   35  C   UNL     1      -8.129  18.192  68.141  1.00  0.00    -0.281 A  
HETATM   36  C   UNL     1      -8.002  20.444  66.498  1.00  0.00    -0.209 A  
HETATM   37  N   UNL     1      -9.614  17.107  66.964  1.00  0.00    -0.252 NA 
HETATM   38  C   UNL     1      -8.910  18.291  66.997  1.00  0.00    -0.266 A  
HETATM   39  C   UNL     1      -8.872  19.406  66.151  1.00  0.00    -0.301 A  
ENDBRANCH  11  30
ENDBRANCH   3   4
ENDBRANCH   2   3
TORSDOF 6
ENDMDL
MODEL      107
REMARK 921   NORMALIZED FREE ENERGY PREDICTED BY IDOCK:   -4.23 KCAL/MOL
REMARK 922        TOTAL FREE ENERGY PREDICTED BY IDOCK:   -7.71 KCAL/MOL
REMARK 923 INTER-LIGAND FREE ENERGY PREDICTED BY IDOCK:   -6.04 KCAL/MOL
REMARK 924 INTRA-LIGAND FREE ENERGY PREDICTED BY IDOCK:   -1.68 KCAL/MOL
REMARK 927      BINDING AFFINITY PREDICTED BY RF-SCORE:    0.00 PKD
ROOT
HETATM    1  C   UNL     1      -6.112   8.934  74.228  1.00  0.00    -0.109 C  
HETATM    2  C   UNL     1      -6.816   8.325  73.022  1.00  0.00    -0.122 C  
ENDROOT
BRANCH   2   3
HETATM    3  C   UNL     1      -5.910   7.427  72.167  1.00  0.00    -0.037 C  
BRANCH   3   4
HETATM    4  C   UNL     1      -6.689   6.574  71.220  1.00  0.00    -0.058 A  
HETATM    5  N   UNL     1      -7.491   5.601  71.614  1.00  0.00    -0.091 NA 
HETATM    6  C   UNL     1      -7.936   4.981  70.478  1.00  0.00    -0.081 A  
HETATM    7  C   UNL     1      -7.425   5.615  69.356  1.00  0.00    -0.075 A  
HETATM    8  N   UNL     1      -6.678   6.669  69.841  1.00  0.00    -0.048 NA 
HETATM    9  C   UNL     1      -7.669   5.155  68.061  1.00  0.00    -0.084 A  
HETATM   10  C   UNL     1      -8.754   3.842  70.338  1.00  0.00    -0.129 A  
HETATM   11  C   UNL     1      -8.545   4.077  67.886  1.00  0.00    -0.109 A  
HETATM   12  C   UNL     1      -9.272   3.088  71.527  1.00  0.00    -0.185 C  
HETATM   13  C   UNL     1      -9.052   3.420  69.022  1.00  0.00    -0.205 A  
BRANCH   8  14
HETATM   14  C   UNL     1      -5.884   7.565  68.999  1.00  0.00    -0.026 C  
BRANCH  14  15
HETATM   15  C   UNL     1      -6.651   8.620  68.221  1.00  0.00    -0.061 A  
HETATM   16  C   UNL     1      -6.199   9.183  67.028  1.00  0.00    -0.058 A  
HETATM   17  C   UNL     1      -8.797   9.771  67.834  1.00  0.00    -0.122 A  
HETATM   18  C   UNL     1      -7.957   8.957  68.624  1.00  0.00    -0.103 A  
HETATM   19  C   UNL     1      -7.031  10.031  66.267  1.00  0.00    -0.104 A  
HETATM   20  C   UNL     1      -8.365  10.330  66.622  1.00  0.00    -0.125 A  
BRANCH  20  21
HETATM   21  C   UNL     1      -9.243  11.133  65.703  1.00  0.00    -0.238 A  
HETATM   22  C   UNL     1     -10.383  11.247  63.506  1.00  0.00    -0.463 A  
HETATM   23  C   UNL     1      -9.605  10.568  64.459  1.00  0.00    -0.359 A  
HETATM   24  C   UNL     1     -10.558  13.098  64.984  1.00  0.00    -0.347 A  
HETATM   25  C   UNL     1      -9.773  12.420  65.957  1.00  0.00    -0.253 A  
HETATM   26  C   UNL     1     -10.841  12.519  63.755  1.00  0.00    -0.489 A  
HETATM   27  C   UNL     1      -9.530  13.190  67.199  1.00  0.00    -0.239 C  
HETATM   28  O   UNL     1     -10.696  13.756  67.585  1.00  0.00    -0.246 OA 
HETATM   29  O   UNL     1      -8.466  13.382  67.753  1.00  0.00    -0.155 OA 
ENDBRANCH  20  21
ENDBRANCH  14  15
ENDBRANCH   8  14
BRANCH  11  30
HETATM   30  C   UNL     1      -8.920   3.608  66.541  1.00  0.00    -0.147 A  
HETATM   31  C   UNL     1      -8.780   1.505  63.700  1.00  0.00    -0.080 A  
HETATM   32  C   UNL     1      -9.573   1.571  62.547  1.00  0.00    -0.088 A  
HETATM   33  N   UNL     1      -8.364   2.571  65.935  1.00  0.00    -0.089 NA 
HETATM   34  C   UNL     1     -10.838   5.206  66.068  1.00  0.00    -0.064 C  
HETATM   35  C   UNL     1      -8.993   2.441  64.724  1.00  0.00    -0.122 A  
HETATM   36  C   UNL     1     -10.554   2.552  62.414  1.00  0.00    -0.136 A  
HETATM   37  N   UNL     1      -9.925   4.135  65.738  1.00  0.00    -0.206 NA 
HETATM   38  C   UNL     1      -9.976   3.409  64.568  1.00  0.00    -0.145 A  
HETATM   39  C   UNL     1     -10.777   3.494  63.423  1.00  0.00    -0.239 A  
ENDBRANCH  11  30
ENDBRANCH   3   4
ENDBRANCH   2   3
TORSDOF 6
ENDMDL
MODEL      108
REMARK 921   NORMALIZED FREE ENERGY PREDICTED BY IDOCK:   -4.19 KCAL/MOL
REMARK 922        TOTAL FREE ENERGY PREDICTED BY IDOCK:   -7.65 KCAL/MOL
REMARK 923 INTER-LIGAND FREE ENERGY PREDICTED BY IDOCK:   -7.04 KCAL/MOL
REMARK 924 INTRA-LIGAND FREE ENERGY PREDICTED BY IDOCK:   -0.61 KCAL/MOL
REMARK 927      BINDING AFFINITY PREDICTED BY RF-SCORE:    0.00 PKD
ROOT
HETATM    1  C   UNL     1     -11.885  14.965  71.085  1.00  0.00    -0.387 C  
HETATM    2  C   UNL     1     -12.466  13.714  70.439  1.00  0.00    -0.364 C  
ENDROOT
BRANCH   2   3
HETATM    3  C   UNL     1     -13.040  12.709  71.447  1.00  0.00    -0.308 C  
BRANCH   3   4
HETATM    4  C   UNL     1     -12.711  11.297  71.088  1.00  0.00    -0.390 A  
HETATM    5  N   UNL     1     -13.364  10.256  71.573  1.00  0.00    -0.346 NA 
HETATM    6  C   UNL     1     -12.715   9.142  71.113  1.00  0.00    -0.213 A  
HETATM    7  C   UNL     1     -11.659   9.508  70.292  1.00  0.00    -0.169 A  
HETATM    8  N   UNL     1     -11.702  10.887  70.236  1.00  0.00    -0.322 NA 
HETATM    9  C   UNL     1     -10.788   8.573  69.731  1.00  0.00    -0.177 A  
HETATM   10  C   UNL     1     -12.957   7.782  71.391  1.00  0.00    -0.322 A  
HETATM   11  C   UNL     1     -11.053   7.212  69.921  1.00  0.00    -0.264 A  
HETATM   12  C   UNL     1     -14.047   7.347  72.325  1.00  0.00    -0.074 C  
HETATM   13  C   UNL     1     -12.112   6.835  70.766  1.00  0.00    -0.402 A  
BRANCH   8  14
HETATM   14  C   UNL     1     -10.712  11.709  69.540  1.00  0.00     0.052 C  
BRANCH  14  15
HETATM   15  C   UNL     1      -9.891  11.018  68.465  1.00  0.00    -0.194 A  
HETATM   16  C   UNL     1      -8.616  10.497  68.680  1.00  0.00    -0.139 A  
HETATM   17  C   UNL     1      -9.854   9.930  66.252  1.00  0.00    -0.308 A  
HETATM   18  C   UNL     1     -10.485  10.744  67.218  1.00  0.00    -0.282 A  
HETATM   19  C   UNL     1      -7.975   9.721  67.691  1.00  0.00    -0.105 A  
HETATM   20  C   UNL     1      -8.580   9.382  66.460  1.00  0.00    -0.142 A  
BRANCH  20  21
HETATM   21  C   UNL     1      -7.899   8.442  65.504  1.00  0.00    -0.109 A  
HETATM   22  C   UNL     1      -7.766   6.134  64.612  1.00  0.00    -0.101 A  
HETATM   23  C   UNL     1      -8.357   7.107  65.436  1.00  0.00    -0.122 A  
HETATM   24  C   UNL     1      -6.240   7.765  63.802  1.00  0.00    -0.058 A  
HETATM   25  C   UNL     1      -6.831   8.757  64.631  1.00  0.00    -0.073 A  
HETATM   26  C   UNL     1      -6.694   6.454  63.812  1.00  0.00    -0.040 A  
HETATM   27  C   UNL     1      -6.206  10.097  64.531  1.00  0.00    -0.133 C  
HETATM   28  O   UNL     1      -6.005  10.377  63.223  1.00  0.00    -0.143 OA 
HETATM   29  O   UNL     1      -5.835  10.809  65.443  1.00  0.00    -0.133 OA 
ENDBRANCH  20  21
ENDBRANCH  14  15
ENDBRANCH   8  14
BRANCH  11  30
HETATM   30  C   UNL     1     -10.229   6.176  69.273  1.00  0.00    -0.201 A  
HETATM   31  C   UNL     1      -9.451   3.722  66.847  1.00  0.00    -0.224 A  
HETATM   32  C   UNL     1      -8.269   2.978  66.732  1.00  0.00    -0.089 A  
HETATM   33  N   UNL     1     -10.601   5.498  68.198  1.00  0.00    -0.172 NA 
HETATM   34  C   UNL     1      -8.138   6.359  70.702  1.00  0.00    -0.113 C  
HETATM   35  C   UNL     1      -9.566   4.655  67.889  1.00  0.00    -0.157 A  
HETATM   36  C   UNL     1      -7.226   3.156  67.639  1.00  0.00    -0.054 A  
HETATM   37  N   UNL     1      -8.947   5.794  69.646  1.00  0.00    -0.127 NA 
HETATM   38  C   UNL     1      -8.513   4.814  68.781  1.00  0.00    -0.081 A  
HETATM   39  C   UNL     1      -7.325   4.078  68.685  1.00  0.00    -0.055 A  
ENDBRANCH  11  30
ENDBRANCH   3   4
ENDBRANCH   2   3
TORSDOF 6
ENDMDL
MODEL      109
REMARK 921   NORMALIZED FREE ENERGY PREDICTED BY IDOCK:   -4.18 KCAL/MOL
REMARK 922        TOTAL FREE ENERGY PREDICTED BY IDOCK:   -7.64 KCAL/MOL
REMARK 923 INTER-LIGAND FREE ENERGY PREDICTED BY IDOCK:   -6.44 KCAL/MOL
REMARK 924 INTRA-LIGAND FREE ENERGY PREDICTED BY IDOCK:   -1.20 KCAL/MOL
REMARK 927      BINDING AFFINITY PREDICTED BY RF-SCORE:    0.00 PKD
ROOT
HETATM    1  C   UNL     1     -11.963  12.449  63.437  1.00  0.00    -0.595 C  
HETATM    2  C   UNL     1     -11.064  11.222  63.489  1.00  0.00    -0.261 C  
ENDROOT
BRANCH   2   3
HETATM    3  C   UNL     1      -9.643  11.519  63.988  1.00  0.00    -0.189 C  
BRANCH   3   4
HETATM    4  C   UNL     1      -9.136  10.462  64.916  1.00  0.00    -0.208 A  
HETATM    5  N   UNL     1      -8.177   9.615  64.592  1.00  0.00    -0.139 NA 
HETATM    6  C   UNL     1      -8.064   8.738  65.637  1.00  0.00    -0.108 A  
HETATM    7  C   UNL     1      -8.951   9.081  66.646  1.00  0.00    -0.135 A  
HETATM    8  N   UNL     1      -9.589  10.220  66.199  1.00  0.00    -0.186 NA 
HETATM    9  C   UNL     1      -9.091   8.321  67.809  1.00  0.00    -0.138 A  
HETATM   10  C   UNL     1      -7.244   7.600  65.771  1.00  0.00    -0.065 A  
HETATM   11  C   UNL     1      -8.232   7.234  68.007  1.00  0.00    -0.120 A  
HETATM   12  C   UNL     1      -6.319   7.157  64.676  1.00  0.00    -0.037 C  
HETATM   13  C   UNL     1      -7.343   6.872  66.980  1.00  0.00    -0.086 A  
BRANCH   8  14
HETATM   14  C   UNL     1     -10.676  10.885  66.919  1.00  0.00    -0.264 C  
BRANCH  14  15
HETATM   15  C   UNL     1     -10.582  12.397  67.043  1.00  0.00    -0.248 A  
HETATM   16  C   UNL     1      -9.393  13.112  66.906  1.00  0.00    -0.246 A  
HETATM   17  C   UNL     1     -11.764  14.560  67.068  1.00  0.00    -0.412 A  
HETATM   18  C   UNL     1     -11.765  13.151  67.154  1.00  0.00    -0.430 A  
HETATM   19  C   UNL     1      -9.398  14.522  66.864  1.00  0.00    -0.258 A  
HETATM   20  C   UNL     1     -10.580  15.294  66.910  1.00  0.00    -0.304 A  
BRANCH  20  21
HETATM   21  C   UNL     1     -10.529  16.786  66.729  1.00  0.00    -0.258 A  
HETATM   22  C   UNL     1     -10.948  18.703  65.215  1.00  0.00     0.685 A  
HETATM   23  C   UNL     1     -10.990  17.329  65.509  1.00  0.00     0.100 A  
HETATM   24  C   UNL     1     -10.033  19.122  67.366  1.00  0.00    -0.432 A  
HETATM   25  C   UNL     1     -10.072  17.734  67.675  1.00  0.00    -0.342 A  
HETATM   26  C   UNL     1     -10.449  19.598  66.131  1.00  0.00    -0.624 A  
HETATM   27  C   UNL     1      -9.557  17.386  69.019  1.00  0.00    -0.162 C  
HETATM   28  O   UNL     1     -10.066  18.265  69.912  1.00  0.00     0.365 OA 
HETATM   29  O   UNL     1      -8.743  16.528  69.300  1.00  0.00    -0.195 OA 
ENDBRANCH  20  21
ENDBRANCH  14  15
ENDBRANCH   8  14
BRANCH  11  30
HETATM   30  C   UNL     1      -8.264   6.454  69.257  1.00  0.00    -0.115 A  
HETATM   31  C   UNL     1      -7.681   5.836  72.691  1.00  0.00    -0.101 A  
HETATM   32  C   UNL     1      -8.054   4.707  73.432  1.00  0.00    -0.099 A  
HETATM   33  N   UNL     1      -7.765   6.877  70.408  1.00  0.00    -0.098 NA 
HETATM   34  C   UNL     1      -9.592   4.443  68.454  1.00  0.00    -0.140 C  
HETATM   35  C   UNL     1      -8.007   5.890  71.327  1.00  0.00    -0.113 A  
HETATM   36  C   UNL     1      -8.735   3.652  72.827  1.00  0.00    -0.100 A  
HETATM   37  N   UNL     1      -8.851   5.207  69.432  1.00  0.00    -0.098 NA 
HETATM   38  C   UNL     1      -8.685   4.826  70.746  1.00  0.00    -0.109 A  
HETATM   39  C   UNL     1      -9.065   3.688  71.468  1.00  0.00    -0.175 A  
ENDBRANCH  11  30
ENDBRANCH   3   4
ENDBRANCH   2   3
TORSDOF 6
ENDMDL
MODEL      110
REMARK 921   NORMALIZED FREE ENERGY PREDICTED BY IDOCK:   -4.16 KCAL/MOL
REMARK 922        TOTAL FREE ENERGY PREDICTED BY IDOCK:   -7.63 KCAL/MOL
REMARK 923 INTER-LIGAND FREE ENERGY PREDICTED BY IDOCK:   -7.41 KCAL/MOL
REMARK 924 INTRA-LIGAND FREE ENERGY PREDICTED BY IDOCK:   -0.22 KCAL/MOL
REMARK 927      BINDING AFFINITY PREDICTED BY RF-SCORE:    0.00 PKD
ROOT
HETATM    1  C   UNL     1     -12.545  13.441  71.775  1.00  0.00    -0.235 C  
HETATM    2  C   UNL     1     -12.694  12.006  71.287  1.00  0.00    -0.382 C  
ENDROOT
BRANCH   2   3
HETATM    3  C   UNL     1     -12.030  11.744  69.928  1.00  0.00    -0.405 C  
BRANCH   3   4
HETATM    4  C   UNL     1     -11.603  10.321  69.772  1.00  0.00    -0.227 A  
HETATM    5  N   UNL     1     -12.029   9.348  70.557  1.00  0.00    -0.164 NA 
HETATM    6  C   UNL     1     -11.344   8.222  70.184  1.00  0.00    -0.060 A  
HETATM    7  C   UNL     1     -10.506   8.504  69.117  1.00  0.00    -0.205 A  
HETATM    8  N   UNL     1     -10.724   9.834  68.822  1.00  0.00    -0.221 NA 
HETATM    9  C   UNL     1      -9.644   7.551  68.570  1.00  0.00    -0.150 A  
HETATM   10  C   UNL     1     -11.367   6.930  70.746  1.00  0.00    -0.355 A  
HETATM   11  C   UNL     1      -9.705   6.237  69.051  1.00  0.00    -0.147 A  
HETATM   12  C   UNL     1     -12.210   6.601  71.942  1.00  0.00    -0.381 C  
HETATM   13  C   UNL     1     -10.541   5.951  70.145  1.00  0.00    -0.362 A  
BRANCH   8  14
HETATM   14  C   UNL     1      -9.982  10.581  67.806  1.00  0.00    -0.171 C  
BRANCH  14  15
HETATM   15  C   UNL     1      -9.977  12.094  67.944  1.00  0.00    -0.200 A  
HETATM   16  C   UNL     1      -9.081  12.794  68.751  1.00  0.00     0.168 A  
HETATM   17  C   UNL     1     -10.711  14.267  67.042  1.00  0.00    -0.290 A  
HETATM   18  C   UNL     1     -10.812  12.861  67.111  1.00  0.00    -0.278 A  
HETATM   19  C   UNL     1      -9.018  14.203  68.707  1.00  0.00    -0.065 A  
HETATM   20  C   UNL     1      -9.802  14.987  67.832  1.00  0.00    -0.217 A  
BRANCH  20  21
HETATM   21  C   UNL     1      -9.595  16.473  67.738  1.00  0.00    -0.232 A  
HETATM   22  C   UNL     1     -10.657  18.712  67.678  1.00  0.00    -0.458 A  
HETATM   23  C   UNL     1     -10.729  17.313  67.799  1.00  0.00    -0.333 A  
HETATM   24  C   UNL     1      -8.294  18.559  67.483  1.00  0.00    -0.267 A  
HETATM   25  C   UNL     1      -8.356  17.144  67.607  1.00  0.00    -0.197 A  
HETATM   26  C   UNL     1      -9.445  19.334  67.496  1.00  0.00    -0.379 A  
HETATM   27  C   UNL     1      -7.044  16.460  67.534  1.00  0.00    -0.143 C  
HETATM   28  O   UNL     1      -6.165  17.142  68.303  1.00  0.00    -0.139 OA 
HETATM   29  O   UNL     1      -6.744  15.507  66.842  1.00  0.00    -0.234 OA 
ENDBRANCH  20  21
ENDBRANCH  14  15
ENDBRANCH   8  14
BRANCH  11  30
HETATM   30  C   UNL     1      -8.894   5.165  68.449  1.00  0.00    -0.101 A  
HETATM   31  C   UNL     1      -8.135   2.613  66.121  1.00  0.00    -0.084 A  
HETATM   32  C   UNL     1      -6.965   1.845  66.044  1.00  0.00    -0.043 A  
HETATM   33  N   UNL     1      -9.267   4.456  67.396  1.00  0.00    -0.133 NA 
HETATM   34  C   UNL     1      -6.812   5.364  69.892  1.00  0.00    -0.059 C  
HETATM   35  C   UNL     1      -8.244   3.584  67.128  1.00  0.00    -0.091 A  
HETATM   36  C   UNL     1      -5.927   2.038  66.954  1.00  0.00    -0.019 A  
HETATM   37  N   UNL     1      -7.622   4.775  68.849  1.00  0.00    -0.068 NA 
HETATM   38  C   UNL     1      -7.196   3.757  68.023  1.00  0.00    -0.058 A  
HETATM   39  C   UNL     1      -6.020   2.998  67.966  1.00  0.00    -0.024 A  
ENDBRANCH  11  30
ENDBRANCH   3   4
ENDBRANCH   2   3
TORSDOF 6
ENDMDL
MODEL      111
REMARK 921   NORMALIZED FREE ENERGY PREDICTED BY IDOCK:   -4.16 KCAL/MOL
REMARK 922        TOTAL FREE ENERGY PREDICTED BY IDOCK:   -7.62 KCAL/MOL
REMARK 923 INTER-LIGAND FREE ENERGY PREDICTED BY IDOCK:   -6.60 KCAL/MOL
REMARK 924 INTRA-LIGAND FREE ENERGY PREDICTED BY IDOCK:   -1.01 KCAL/MOL
REMARK 927      BINDING AFFINITY PREDICTED BY RF-SCORE:    0.00 PKD
ROOT
HETATM    1  C   UNL     1     -14.273   8.635  72.255  1.00  0.00    -0.497 C  
HETATM    2  C   UNL     1     -13.304   9.358  71.330  1.00  0.00    -0.417 C  
ENDROOT
BRANCH   2   3
HETATM    3  C   UNL     1     -11.868   9.420  71.868  1.00  0.00    -0.402 C  
BRANCH   3   4
HETATM    4  C   UNL     1     -10.914   8.635  71.027  1.00  0.00    -0.260 A  
HETATM    5  N   UNL     1      -9.996   7.831  71.533  1.00  0.00    -0.170 NA 
HETATM    6  C   UNL     1      -9.250   7.380  70.477  1.00  0.00    -0.157 A  
HETATM    7  C   UNL     1      -9.748   7.891  69.288  1.00  0.00    -0.159 A  
HETATM    8  N   UNL     1     -10.848   8.644  69.646  1.00  0.00    -0.201 NA 
HETATM    9  C   UNL     1      -9.143   7.642  68.055  1.00  0.00    -0.135 A  
HETATM   10  C   UNL     1      -8.106   6.558  70.471  1.00  0.00    -0.117 A  
HETATM   11  C   UNL     1      -8.056   6.762  68.007  1.00  0.00    -0.114 A  
HETATM   12  C   UNL     1      -7.497   6.040  71.739  1.00  0.00    -0.095 C  
HETATM   13  C   UNL     1      -7.536   6.255  69.212  1.00  0.00    -0.099 A  
BRANCH   8  14
HETATM   14  C   UNL     1     -11.639   9.439  68.705  1.00  0.00     0.653 C  
BRANCH  14  15
HETATM   15  C   UNL     1     -11.063  10.787  68.306  1.00  0.00    -0.327 A  
HETATM   16  C   UNL     1     -11.036  11.897  69.148  1.00  0.00    -0.285 A  
HETATM   17  C   UNL     1      -9.651  12.065  66.740  1.00  0.00    -0.215 A  
HETATM   18  C   UNL     1     -10.382  10.906  67.080  1.00  0.00    -0.276 A  
HETATM   19  C   UNL     1     -10.339  13.067  68.781  1.00  0.00    -0.146 A  
HETATM   20  C   UNL     1      -9.597  13.184  67.585  1.00  0.00    -0.210 A  
BRANCH  20  21
HETATM   21  C   UNL     1      -8.768  14.408  67.311  1.00  0.00    -0.228 A  
HETATM   22  C   UNL     1      -6.578  15.532  67.599  1.00  0.00    -0.195 A  
HETATM   23  C   UNL     1      -7.429  14.424  67.761  1.00  0.00    -0.182 A  
HETATM   24  C   UNL     1      -8.318  16.687  66.467  1.00  0.00    -0.322 A  
HETATM   25  C   UNL     1      -9.187  15.572  66.624  1.00  0.00    -0.299 A  
HETATM   26  C   UNL     1      -7.027  16.671  66.975  1.00  0.00    -0.241 A  
HETATM   27  C   UNL     1     -10.543  15.762  66.060  1.00  0.00    -0.326 C  
HETATM   28  O   UNL     1     -10.421  16.325  64.836  1.00  0.00    -0.624 OA 
HETATM   29  O   UNL     1     -11.608  15.552  66.607  1.00  0.00    -0.055 OA 
ENDBRANCH  20  21
ENDBRANCH  14  15
ENDBRANCH   8  14
BRANCH  11  30
HETATM   30  C   UNL     1      -7.436   6.382  66.726  1.00  0.00    -0.087 A  
HETATM   31  C   UNL     1      -5.767   4.241  64.458  1.00  0.00    -0.014 A  
HETATM   32  C   UNL     1      -5.440   4.499  63.120  1.00  0.00    -0.009 A  
HETATM   33  N   UNL     1      -6.867   5.209  66.496  1.00  0.00    -0.061 NA 
HETATM   34  C   UNL     1      -7.996   8.453  65.366  1.00  0.00    -0.122 C  
HETATM   35  C   UNL     1      -6.435   5.230  65.196  1.00  0.00    -0.039 A  
HETATM   36  C   UNL     1      -5.769   5.719  62.531  1.00  0.00    -0.014 A  
HETATM   37  N   UNL     1      -7.399   7.153  65.571  1.00  0.00    -0.076 NA 
HETATM   38  C   UNL     1      -6.752   6.437  64.587  1.00  0.00    -0.038 A  
HETATM   39  C   UNL     1      -6.432   6.717  63.253  1.00  0.00    -0.042 A  
ENDBRANCH  11  30
ENDBRANCH   3   4
ENDBRANCH   2   3
TORSDOF 6
ENDMDL
MODEL      112
REMARK 921   NORMALIZED FREE ENERGY PREDICTED BY IDOCK:   -4.08 KCAL/MOL
REMARK 922        TOTAL FREE ENERGY PREDICTED BY IDOCK:   -7.51 KCAL/MOL
REMARK 923 INTER-LIGAND FREE ENERGY PREDICTED BY IDOCK:   -6.10 KCAL/MOL
REMARK 924 INTRA-LIGAND FREE ENERGY PREDICTED BY IDOCK:   -1.42 KCAL/MOL
REMARK 927      BINDING AFFINITY PREDICTED BY RF-SCORE:    0.00 PKD
ROOT
HETATM    1  C   UNL     1      -9.992   4.500  65.434  1.00  0.00    -0.207 C  
HETATM    2  C   UNL     1      -9.001   4.013  66.483  1.00  0.00    -0.131 C  
ENDROOT
BRANCH   2   3
HETATM    3  C   UNL     1      -7.537   4.329  66.141  1.00  0.00    -0.089 C  
BRANCH   3   4
HETATM    4  C   UNL     1      -7.258   5.797  66.151  1.00  0.00    -0.076 A  
HETATM    5  N   UNL     1      -6.719   6.437  65.128  1.00  0.00    -0.045 NA 
HETATM    6  C   UNL     1      -6.515   7.726  65.542  1.00  0.00    -0.042 A  
HETATM    7  C   UNL     1      -6.976   7.890  66.839  1.00  0.00    -0.073 A  
HETATM    8  N   UNL     1      -7.503   6.666  67.197  1.00  0.00    -0.086 NA 
HETATM    9  C   UNL     1      -6.840   9.093  67.535  1.00  0.00    -0.077 A  
HETATM   10  C   UNL     1      -5.902   8.800  64.866  1.00  0.00    -0.059 A  
HETATM   11  C   UNL     1      -6.312  10.201  66.861  1.00  0.00    -0.069 A  
HETATM   12  C   UNL     1      -5.331   8.646  63.488  1.00  0.00    -0.062 C  
HETATM   13  C   UNL     1      -5.827  10.035  65.552  1.00  0.00    -0.081 A  
BRANCH   8  14
HETATM   14  C   UNL     1      -8.032   6.359  68.527  1.00  0.00    -0.106 C  
BRANCH  14  15
HETATM   15  C   UNL     1      -8.967   7.389  69.139  1.00  0.00    -0.135 A  
HETATM   16  C   UNL     1      -8.633   8.180  70.237  1.00  0.00    -0.131 A  
HETATM   17  C   UNL     1     -10.996   8.766  68.889  1.00  0.00     0.062 A  
HETATM   18  C   UNL     1     -10.181   7.684  68.492  1.00  0.00    -0.220 A  
HETATM   19  C   UNL     1      -9.475   9.233  70.654  1.00  0.00    -0.333 A  
HETATM   20  C   UNL     1     -10.666   9.585  69.979  1.00  0.00    -0.278 A  
BRANCH  20  21
HETATM   21  C   UNL     1     -11.452  10.798  70.393  1.00  0.00    -0.397 A  
HETATM   22  C   UNL     1     -13.126  11.747  71.954  1.00  0.00    -0.482 A  
HETATM   23  C   UNL     1     -12.312  10.691  71.508  1.00  0.00    -0.414 A  
HETATM   24  C   UNL     1     -12.243  13.135  70.240  1.00  0.00    -0.376 A  
HETATM   25  C   UNL     1     -11.415  12.074  69.781  1.00  0.00    -0.284 A  
HETATM   26  C   UNL     1     -13.111  12.961  71.309  1.00  0.00    -0.253 A  
HETATM   27  C   UNL     1     -10.576  12.409  68.607  1.00  0.00    -0.218 C  
HETATM   28  O   UNL     1     -10.021  13.625  68.813  1.00  0.00    -0.191 OA 
HETATM   29  O   UNL     1     -10.457  11.775  67.578  1.00  0.00    -0.196 OA 
ENDBRANCH  20  21
ENDBRANCH  14  15
ENDBRANCH   8  14
BRANCH  11  30
HETATM   30  C   UNL     1      -6.235  11.522  67.509  1.00  0.00    -0.075 A  
HETATM   31  C   UNL     1      -6.485  15.046  67.691  1.00  0.00    -0.175 A  
HETATM   32  C   UNL     1      -6.282  15.861  68.812  1.00  0.00    -0.109 A  
HETATM   33  N   UNL     1      -6.491  12.666  66.893  1.00  0.00    -0.055 NA 
HETATM   34  C   UNL     1      -5.700  10.789  69.881  1.00  0.00    -0.063 C  
HETATM   35  C   UNL     1      -6.335  13.657  67.826  1.00  0.00    -0.165 A  
HETATM   36  C   UNL     1      -5.933  15.305  70.042  1.00  0.00    -0.142 A  
HETATM   37  N   UNL     1      -5.939  11.767  68.844  1.00  0.00    -0.049 NA 
HETATM   38  C   UNL     1      -5.987  13.127  69.061  1.00  0.00    -0.084 A  
HETATM   39  C   UNL     1      -5.777  13.924  70.193  1.00  0.00    -0.130 A  
ENDBRANCH  11  30
ENDBRANCH   3   4
ENDBRANCH   2   3
TORSDOF 6
ENDMDL
MODEL      113
REMARK 921   NORMALIZED FREE ENERGY PREDICTED BY IDOCK:   -4.07 KCAL/MOL
REMARK 922        TOTAL FREE ENERGY PREDICTED BY IDOCK:   -7.49 KCAL/MOL
REMARK 923 INTER-LIGAND FREE ENERGY PREDICTED BY IDOCK:   -7.96 KCAL/MOL
REMARK 924 INTRA-LIGAND FREE ENERGY PREDICTED BY IDOCK:    0.47 KCAL/MOL
REMARK 927      BINDING AFFINITY PREDICTED BY RF-SCORE:    0.00 PKD
ROOT
HETATM    1  C   UNL     1      -8.409  19.157  68.320  1.00  0.00    -0.370 C  
HETATM    2  C   UNL     1      -9.060  17.790  68.160  1.00  0.00    -0.274 C  
ENDROOT
BRANCH   2   3
HETATM    3  C   UNL     1     -10.448  17.689  68.809  1.00  0.00    -0.287 C  
BRANCH   3   4
HETATM    4  C   UNL     1     -10.839  16.274  69.092  1.00  0.00    -0.314 A  
HETATM    5  N   UNL     1     -11.726  15.939  70.011  1.00  0.00    -0.344 NA 
HETATM    6  C   UNL     1     -11.737  14.571  70.059  1.00  0.00    -0.301 A  
HETATM    7  C   UNL     1     -10.863  14.053  69.116  1.00  0.00    -0.206 A  
HETATM    8  N   UNL     1     -10.338  15.150  68.463  1.00  0.00    -0.225 NA 
HETATM    9  C   UNL     1     -10.630  12.683  68.985  1.00  0.00    -0.079 A  
HETATM   10  C   UNL     1     -12.449  13.708  70.915  1.00  0.00    -0.448 A  
HETATM   11  C   UNL     1     -11.384  11.797  69.764  1.00  0.00    -0.245 A  
HETATM   12  C   UNL     1     -13.354  14.230  71.992  1.00  0.00    -0.484 C  
HETATM   13  C   UNL     1     -12.260  12.318  70.733  1.00  0.00    -0.354 A  
BRANCH   8  14
HETATM   14  C   UNL     1      -9.300  15.071  67.435  1.00  0.00    -0.201 C  
BRANCH  14  15
HETATM   15  C   UNL     1      -8.552  13.753  67.325  1.00  0.00    -0.221 A  
HETATM   16  C   UNL     1      -7.409  13.449  68.063  1.00  0.00    -0.129 A  
HETATM   17  C   UNL     1      -8.574  11.405  66.575  1.00  0.00    -0.175 A  
HETATM   18  C   UNL     1      -9.106  12.712  66.557  1.00  0.00    -0.163 A  
HETATM   19  C   UNL     1      -6.859  12.149  68.041  1.00  0.00    -0.081 A  
HETATM   20  C   UNL     1      -7.436  11.076  67.327  1.00  0.00    -0.107 A  
BRANCH  20  21
HETATM   21  C   UNL     1      -6.879   9.684  67.449  1.00  0.00    -0.083 A  
HETATM   22  C   UNL     1      -6.233   7.840  68.973  1.00  0.00    -0.036 A  
HETATM   23  C   UNL     1      -6.779   9.114  68.738  1.00  0.00    -0.053 A  
HETATM   24  C   UNL     1      -5.892   7.569  66.638  1.00  0.00    -0.039 A  
HETATM   25  C   UNL     1      -6.444   8.856  66.388  1.00  0.00    -0.066 A  
HETATM   26  C   UNL     1      -5.768   7.076  67.929  1.00  0.00    -0.024 A  
HETATM   27  C   UNL     1      -6.470   9.250  64.960  1.00  0.00    -0.070 C  
HETATM   28  O   UNL     1      -6.917   8.199  64.236  1.00  0.00    -0.067 OA 
HETATM   29  O   UNL     1      -6.076  10.291  64.473  1.00  0.00    -0.129 OA 
ENDBRANCH  20  21
ENDBRANCH  14  15
ENDBRANCH   8  14
BRANCH  11  30
HETATM   30  C   UNL     1     -11.257  10.338  69.601  1.00  0.00    -0.269 A  
HETATM   31  C   UNL     1     -10.201   7.346  68.038  1.00  0.00    -0.234 A  
HETATM   32  C   UNL     1     -10.401   6.032  68.482  1.00  0.00    -0.254 A  
HETATM   33  N   UNL     1     -10.625   9.757  68.593  1.00  0.00    -0.215 NA 
HETATM   34  C   UNL     1     -12.375   9.584  71.753  1.00  0.00    -0.394 C  
HETATM   35  C   UNL     1     -10.703   8.406  68.808  1.00  0.00    -0.051 A  
HETATM   36  C   UNL     1     -11.091   5.779  69.666  1.00  0.00    -0.306 A  
HETATM   37  N   UNL     1     -11.722   9.370  70.481  1.00  0.00    -0.238 NA 
HETATM   38  C   UNL     1     -11.388   8.129  69.984  1.00  0.00     0.000 A  
HETATM   39  C   UNL     1     -11.601   6.823  70.444  1.00  0.00    -0.422 A  
ENDBRANCH  11  30
ENDBRANCH   3   4
ENDBRANCH   2   3
TORSDOF 6
ENDMDL
MODEL      114
REMARK 921   NORMALIZED FREE ENERGY PREDICTED BY IDOCK:   -4.06 KCAL/MOL
REMARK 922        TOTAL FREE ENERGY PREDICTED BY IDOCK:   -7.49 KCAL/MOL
REMARK 923 INTER-LIGAND FREE ENERGY PREDICTED BY IDOCK:   -5.99 KCAL/MOL
REMARK 924 INTRA-LIGAND FREE ENERGY PREDICTED BY IDOCK:   -1.49 KCAL/MOL
REMARK 927      BINDING AFFINITY PREDICTED BY RF-SCORE:    0.00 PKD
ROOT
HETATM    1  C   UNL     1     -10.384   1.969  73.889  1.00  0.00    -0.182 C  
HETATM    2  C   UNL     1     -11.085   3.091  73.134  1.00  0.00    -0.164 C  
ENDROOT
BRANCH   2   3
HETATM    3  C   UNL     1     -10.981   4.458  73.824  1.00  0.00    -0.357 C  
BRANCH   3   4
HETATM    4  C   UNL     1     -10.571   5.540  72.878  1.00  0.00    -0.229 A  
HETATM    5  N   UNL     1     -11.232   6.676  72.748  1.00  0.00    -0.252 NA 
HETATM    6  C   UNL     1     -10.633   7.359  71.724  1.00  0.00    -0.201 A  
HETATM    7  C   UNL     1      -9.551   6.640  71.239  1.00  0.00    -0.169 A  
HETATM    8  N   UNL     1      -9.484   5.506  72.024  1.00  0.00    -0.150 NA 
HETATM    9  C   UNL     1      -8.791   7.074  70.152  1.00  0.00    -0.145 A  
HETATM   10  C   UNL     1     -10.990   8.587  71.133  1.00  0.00    -0.306 A  
HETATM   11  C   UNL     1      -9.069   8.329  69.598  1.00  0.00    -0.154 A  
HETATM   12  C   UNL     1     -12.191   9.363  71.584  1.00  0.00    -0.467 C  
HETATM   13  C   UNL     1     -10.175   9.054  70.075  1.00  0.00    -0.222 A  
BRANCH   8  14
HETATM   14  C   UNL     1      -8.532   4.416  71.810  1.00  0.00    -0.110 C  
BRANCH  14  15
HETATM   15  C   UNL     1      -8.437   3.867  70.396  1.00  0.00    -0.092 A  
HETATM   16  C   UNL     1      -9.521   3.336  69.698  1.00  0.00    -0.209 A  
HETATM   17  C   UNL     1      -7.145   3.725  68.302  1.00  0.00    -0.051 A  
HETATM   18  C   UNL     1      -7.237   4.025  69.678  1.00  0.00    -0.049 A  
HETATM   19  C   UNL     1      -9.406   2.998  68.333  1.00  0.00    -0.248 A  
HETATM   20  C   UNL     1      -8.231   3.209  67.579  1.00  0.00    -0.085 A  
BRANCH  20  21
HETATM   21  C   UNL     1      -8.212   2.951  66.097  1.00  0.00    -0.085 A  
HETATM   22  C   UNL     1      -7.087   1.806  64.210  1.00  0.00    -0.047 A  
HETATM   23  C   UNL     1      -7.225   2.083  65.581  1.00  0.00    -0.056 A  
HETATM   24  C   UNL     1      -8.957   3.198  63.754  1.00  0.00    -0.092 A  
HETATM   25  C   UNL     1      -9.106   3.484  65.139  1.00  0.00    -0.142 A  
HETATM   26  C   UNL     1      -7.936   2.380  63.293  1.00  0.00    -0.072 A  
HETATM   27  C   UNL     1     -10.221   4.406  65.462  1.00  0.00    -0.241 C  
HETATM   28  O   UNL     1     -11.309   4.022  64.756  1.00  0.00    -0.239 OA 
HETATM   29  O   UNL     1     -10.180   5.399  66.160  1.00  0.00    -0.181 OA 
ENDBRANCH  20  21
ENDBRANCH  14  15
ENDBRANCH   8  14
BRANCH  11  30
HETATM   30  C   UNL     1      -8.240   8.886  68.515  1.00  0.00    -0.116 A  
HETATM   31  C   UNL     1      -7.182   9.344  65.171  1.00  0.00    -0.101 A  
HETATM   32  C   UNL     1      -6.178  10.201  64.700  1.00  0.00    -0.130 A  
HETATM   33  N   UNL     1      -8.381   8.572  67.237  1.00  0.00    -0.115 NA 
HETATM   34  C   UNL     1      -6.843  10.523  69.865  1.00  0.00    -0.149 C  
HETATM   35  C   UNL     1      -7.453   9.307  66.547  1.00  0.00    -0.093 A  
HETATM   36  C   UNL     1      -5.455  11.001  65.584  1.00  0.00    -0.082 A  
HETATM   37  N   UNL     1      -7.241   9.842  68.654  1.00  0.00    -0.072 NA 
HETATM   38  C   UNL     1      -6.719  10.113  67.408  1.00  0.00    -0.073 A  
HETATM   39  C   UNL     1      -5.709  10.974  66.959  1.00  0.00    -0.067 A  
ENDBRANCH  11  30
ENDBRANCH   3   4
ENDBRANCH   2   3
TORSDOF 6
ENDMDL
MODEL      115
REMARK 921   NORMALIZED FREE ENERGY PREDICTED BY IDOCK:   -4.01 KCAL/MOL
REMARK 922        TOTAL FREE ENERGY PREDICTED BY IDOCK:   -7.42 KCAL/MOL
REMARK 923 INTER-LIGAND FREE ENERGY PREDICTED BY IDOCK:   -7.63 KCAL/MOL
REMARK 924 INTRA-LIGAND FREE ENERGY PREDICTED BY IDOCK:    0.21 KCAL/MOL
REMARK 927      BINDING AFFINITY PREDICTED BY RF-SCORE:    0.00 PKD
ROOT
HETATM    1  C   UNL     1      -6.959   4.992  63.541  1.00  0.00    -0.047 C  
HETATM    2  C   UNL     1      -5.588   5.650  63.475  1.00  0.00    -0.014 C  
ENDROOT
BRANCH   2   3
HETATM    3  C   UNL     1      -5.526   7.019  64.168  1.00  0.00    -0.032 C  
BRANCH   3   4
HETATM    4  C   UNL     1      -6.325   7.050  65.431  1.00  0.00    -0.040 A  
HETATM    5  N   UNL     1      -5.936   6.462  66.548  1.00  0.00    -0.027 NA 
HETATM    6  C   UNL     1      -6.963   6.609  67.441  1.00  0.00    -0.078 A  
HETATM    7  C   UNL     1      -7.993   7.340  66.869  1.00  0.00    -0.112 A  
HETATM    8  N   UNL     1      -7.550   7.668  65.604  1.00  0.00    -0.086 NA 
HETATM    9  C   UNL     1      -9.193   7.590  67.537  1.00  0.00    -0.140 A  
HETATM   10  C   UNL     1      -7.094   6.106  68.751  1.00  0.00    -0.082 A  
HETATM   11  C   UNL     1      -9.319   7.176  68.868  1.00  0.00    -0.139 A  
HETATM   12  C   UNL     1      -6.031   5.256  69.382  1.00  0.00    -0.021 C  
HETATM   13  C   UNL     1      -8.284   6.420  69.447  1.00  0.00    -0.118 A  
BRANCH   8  14
HETATM   14  C   UNL     1      -8.358   8.375  64.610  1.00  0.00    -0.127 C  
BRANCH  14  15
HETATM   15  C   UNL     1      -8.873   9.748  65.007  1.00  0.00    -0.224 A  
HETATM   16  C   UNL     1      -8.470  10.422  66.159  1.00  0.00    -0.149 A  
HETATM   17  C   UNL     1     -10.031  11.814  64.323  1.00  0.00    -0.287 A  
HETATM   18  C   UNL     1      -9.687  10.462  64.108  1.00  0.00    -0.387 A  
HETATM   19  C   UNL     1      -8.855  11.760  66.386  1.00  0.00    -0.170 A  
HETATM   20  C   UNL     1      -9.618  12.514  65.466  1.00  0.00    -0.056 A  
BRANCH  20  21
HETATM   21  C   UNL     1      -9.884  13.974  65.704  1.00  0.00    -0.255 A  
HETATM   22  C   UNL     1     -11.168  15.982  65.024  1.00  0.00    -0.266 A  
HETATM   23  C   UNL     1     -10.869  14.612  64.918  1.00  0.00    -0.436 A  
HETATM   24  C   UNL     1      -9.560  16.185  66.761  1.00  0.00    -0.256 A  
HETATM   25  C   UNL     1      -9.250  14.800  66.662  1.00  0.00    -0.300 A  
HETATM   26  C   UNL     1     -10.499  16.774  65.927  1.00  0.00    -0.311 A  
HETATM   27  C   UNL     1      -8.198  14.335  67.596  1.00  0.00    -0.185 C  
HETATM   28  O   UNL     1      -8.449  14.861  68.817  1.00  0.00    -0.158 OA 
HETATM   29  O   UNL     1      -7.213  13.675  67.330  1.00  0.00    -0.165 OA 
ENDBRANCH  20  21
ENDBRANCH  14  15
ENDBRANCH   8  14
BRANCH  11  30
HETATM   30  C   UNL     1     -10.521   7.498  69.658  1.00  0.00    -0.234 A  
HETATM   31  C   UNL     1     -13.545   6.807  71.358  1.00  0.00    -0.107 A  
HETATM   32  C   UNL     1     -14.345   7.703  72.080  1.00  0.00    -0.455 A  
HETATM   33  N   UNL     1     -11.434   6.608  70.013  1.00  0.00    -0.377 NA 
HETATM   34  C   UNL     1     -10.069   9.955  70.114  1.00  0.00    -0.255 C  
HETATM   35  C   UNL     1     -12.373   7.282  70.750  1.00  0.00    -0.182 A  
HETATM   36  C   UNL     1     -13.986   9.046  72.189  1.00  0.00    -0.499 A  
HETATM   37  N   UNL     1     -10.850   8.741  70.183  1.00  0.00    -0.228 NA 
HETATM   38  C   UNL     1     -12.037   8.624  70.873  1.00  0.00    -0.147 A  
HETATM   39  C   UNL     1     -12.823   9.537  71.587  1.00  0.00    -0.483 A  
ENDBRANCH  11  30
ENDBRANCH   3   4
ENDBRANCH   2   3
TORSDOF 6
ENDMDL
MODEL      116
REMARK 921   NORMALIZED FREE ENERGY PREDICTED BY IDOCK:   -3.93 KCAL/MOL
REMARK 922        TOTAL FREE ENERGY PREDICTED BY IDOCK:   -7.31 KCAL/MOL
REMARK 923 INTER-LIGAND FREE ENERGY PREDICTED BY IDOCK:   -5.64 KCAL/MOL
REMARK 924 INTRA-LIGAND FREE ENERGY PREDICTED BY IDOCK:   -1.67 KCAL/MOL
REMARK 927      BINDING AFFINITY PREDICTED BY RF-SCORE:    0.00 PKD
ROOT
HETATM    1  C   UNL     1      -6.625   8.823  74.458  1.00  0.00    -0.138 C  
HETATM    2  C   UNL     1      -7.226   8.137  73.238  1.00  0.00    -0.163 C  
ENDROOT
BRANCH   2   3
HETATM    3  C   UNL     1      -6.245   7.210  72.507  1.00  0.00    -0.051 C  
BRANCH   3   4
HETATM    4  C   UNL     1      -6.933   6.322  71.522  1.00  0.00    -0.076 A  
HETATM    5  N   UNL     1      -7.503   5.178  71.854  1.00  0.00    -0.092 NA 
HETATM    6  C   UNL     1      -7.923   4.600  70.686  1.00  0.00    -0.068 A  
HETATM    7  C   UNL     1      -7.639   5.430  69.613  1.00  0.00    -0.070 A  
HETATM    8  N   UNL     1      -7.059   6.555  70.165  1.00  0.00    -0.072 NA 
HETATM    9  C   UNL     1      -7.906   5.064  68.293  1.00  0.00    -0.086 A  
HETATM   10  C   UNL     1      -8.525   3.344  70.471  1.00  0.00    -0.097 A  
HETATM   11  C   UNL     1      -8.579   3.860  68.054  1.00  0.00    -0.112 A  
HETATM   12  C   UNL     1      -8.789   2.389  71.597  1.00  0.00    -0.121 C  
HETATM   13  C   UNL     1      -8.854   3.007  69.137  1.00  0.00    -0.155 A  
BRANCH   8  14
HETATM   14  C   UNL     1      -6.522   7.668  69.381  1.00  0.00    -0.035 C  
BRANCH  14  15
HETATM   15  C   UNL     1      -7.527   8.693  68.882  1.00  0.00    -0.090 A  
HETATM   16  C   UNL     1      -8.826   8.807  69.375  1.00  0.00    -0.143 A  
HETATM   17  C   UNL     1      -7.922  10.782  67.635  1.00  0.00    -0.110 A  
HETATM   18  C   UNL     1      -7.103   9.686  67.979  1.00  0.00    -0.080 A  
HETATM   19  C   UNL     1      -9.653   9.883  68.991  1.00  0.00    -0.188 A  
HETATM   20  C   UNL     1      -9.224  10.924  68.137  1.00  0.00    -0.158 A  
BRANCH  20  21
HETATM   21  C   UNL     1     -10.108  12.111  67.870  1.00  0.00    -0.199 A  
HETATM   22  C   UNL     1     -11.166  14.153  68.794  1.00  0.00    -0.294 A  
HETATM   23  C   UNL     1     -10.324  13.033  68.918  1.00  0.00    -0.067 A  
HETATM   24  C   UNL     1     -11.602  13.558  66.536  1.00  0.00    -0.391 A  
HETATM   25  C   UNL     1     -10.752  12.424  66.650  1.00  0.00    -0.263 A  
HETATM   26  C   UNL     1     -11.823  14.404  67.613  1.00  0.00    -0.412 A  
HETATM   27  C   UNL     1     -10.653  11.601  65.422  1.00  0.00    -0.280 C  
HETATM   28  O   UNL     1     -10.492  12.430  64.365  1.00  0.00    -0.305 OA 
HETATM   29  O   UNL     1     -10.783  10.397  65.327  1.00  0.00    -0.099 OA 
ENDBRANCH  20  21
ENDBRANCH  14  15
ENDBRANCH   8  14
BRANCH  11  30
HETATM   30  C   UNL     1      -8.977   3.465  66.691  1.00  0.00    -0.152 A  
HETATM   31  C   UNL     1      -8.949   1.468  63.772  1.00  0.00    -0.087 A  
HETATM   32  C   UNL     1      -9.735   1.622  62.622  1.00  0.00    -0.089 A  
HETATM   33  N   UNL     1      -8.479   2.423  66.046  1.00  0.00    -0.095 NA 
HETATM   34  C   UNL     1     -10.802   5.183  66.282  1.00  0.00    -0.112 C  
HETATM   35  C   UNL     1      -9.111   2.374  64.831  1.00  0.00    -0.129 A  
HETATM   36  C   UNL     1     -10.660   2.661  62.528  1.00  0.00    -0.145 A  
HETATM   37  N   UNL     1      -9.949   4.077  65.910  1.00  0.00    -0.172 NA 
HETATM   38  C   UNL     1     -10.039   3.401  64.713  1.00  0.00    -0.037 A  
HETATM   39  C   UNL     1     -10.832   3.574  63.572  1.00  0.00    -0.205 A  
ENDBRANCH  11  30
ENDBRANCH   3   4
ENDBRANCH   2   3
TORSDOF 6
ENDMDL
MODEL      117
REMARK 921   NORMALIZED FREE ENERGY PREDICTED BY IDOCK:   -3.92 KCAL/MOL
REMARK 922        TOTAL FREE ENERGY PREDICTED BY IDOCK:   -7.30 KCAL/MOL
REMARK 923 INTER-LIGAND FREE ENERGY PREDICTED BY IDOCK:   -6.10 KCAL/MOL
REMARK 924 INTRA-LIGAND FREE ENERGY PREDICTED BY IDOCK:   -1.19 KCAL/MOL
REMARK 927      BINDING AFFINITY PREDICTED BY RF-SCORE:    0.00 PKD
ROOT
HETATM    1  C   UNL     1     -10.500  16.842  66.403  1.00  0.00    -0.269 C  
HETATM    2  C   UNL     1     -10.638  15.523  67.152  1.00  0.00    -0.300 C  
ENDROOT
BRANCH   2   3
HETATM    3  C   UNL     1      -9.301  14.806  67.389  1.00  0.00    -0.199 C  
BRANCH   3   4
HETATM    4  C   UNL     1      -9.214  13.511  66.650  1.00  0.00    -0.210 A  
HETATM    5  N   UNL     1      -9.828  13.290  65.502  1.00  0.00    -0.193 NA 
HETATM    6  C   UNL     1      -9.610  11.975  65.191  1.00  0.00    -0.072 A  
HETATM    7  C   UNL     1      -8.808  11.383  66.154  1.00  0.00    -0.184 A  
HETATM    8  N   UNL     1      -8.511  12.390  67.051  1.00  0.00    -0.182 NA 
HETATM    9  C   UNL     1      -8.473  10.028  66.120  1.00  0.00    -0.131 A  
HETATM   10  C   UNL     1     -10.103  11.213  64.113  1.00  0.00    -0.388 A  
HETATM   11  C   UNL     1      -8.878   9.265  65.019  1.00  0.00    -0.238 A  
HETATM   12  C   UNL     1     -11.026  11.798  63.086  1.00  0.00    -0.275 C  
HETATM   13  C   UNL     1      -9.706   9.857  64.048  1.00  0.00    -0.007 A  
BRANCH   8  14
HETATM   14  C   UNL     1      -7.748  12.190  68.284  1.00  0.00    -0.135 C  
BRANCH  14  15
HETATM   15  C   UNL     1      -8.304  11.176  69.269  1.00  0.00     0.099 A  
HETATM   16  C   UNL     1      -9.667  10.951  69.462  1.00  0.00     0.077 A  
HETATM   17  C   UNL     1      -7.880   9.207  70.691  1.00  0.00    -0.165 A  
HETATM   18  C   UNL     1      -7.419  10.300  69.925  1.00  0.00    -0.165 A  
HETATM   19  C   UNL     1     -10.117   9.882  70.265  1.00  0.00    -0.295 A  
HETATM   20  C   UNL     1      -9.247   8.955  70.879  1.00  0.00    -0.286 A  
BRANCH  20  21
HETATM   21  C   UNL     1      -9.791   7.761  71.614  1.00  0.00    -0.201 A  
HETATM   22  C   UNL     1     -11.390   5.867  71.588  1.00  0.00    -0.272 A  
HETATM   23  C   UNL     1     -10.780   6.978  70.978  1.00  0.00    -0.256 A  
HETATM   24  C   UNL     1     -10.028   6.190  73.507  1.00  0.00    -0.196 A  
HETATM   25  C   UNL     1      -9.403   7.314  72.899  1.00  0.00    -0.194 A  
HETATM   26  C   UNL     1     -11.033   5.486  72.860  1.00  0.00    -0.332 A  
HETATM   27  C   UNL     1      -8.378   7.978  73.736  1.00  0.00    -0.252 C  
HETATM   28  O   UNL     1      -7.598   7.024  74.293  1.00  0.00    -0.105 OA 
HETATM   29  O   UNL     1      -8.279   9.164  73.982  1.00  0.00     0.109 OA 
ENDBRANCH  20  21
ENDBRANCH  14  15
ENDBRANCH   8  14
BRANCH  11  30
HETATM   30  C   UNL     1      -8.473   7.856  64.876  1.00  0.00    -0.028 A  
HETATM   31  C   UNL     1      -7.140   5.035  63.210  1.00  0.00    -0.047 A  
HETATM   32  C   UNL     1      -6.953   3.745  63.726  1.00  0.00    -0.045 A  
HETATM   33  N   UNL     1      -7.953   7.342  63.772  1.00  0.00    -0.111 NA 
HETATM   34  C   UNL     1      -8.928   7.054  67.242  1.00  0.00    -0.119 C  
HETATM   35  C   UNL     1      -7.690   6.024  64.039  1.00  0.00    -0.105 A  
HETATM   36  C   UNL     1      -7.311   3.447  65.040  1.00  0.00    -0.072 A  
HETATM   37  N   UNL     1      -8.523   6.882  65.865  1.00  0.00    -0.141 NA 
HETATM   38  C   UNL     1      -8.039   5.703  65.344  1.00  0.00    -0.126 A  
HETATM   39  C   UNL     1      -7.863   4.420  65.879  1.00  0.00    -0.095 A  
ENDBRANCH  11  30
ENDBRANCH   3   4
ENDBRANCH   2   3
TORSDOF 6
ENDMDL
MODEL      118
REMARK 921   NORMALIZED FREE ENERGY PREDICTED BY IDOCK:   -3.91 KCAL/MOL
REMARK 922        TOTAL FREE ENERGY PREDICTED BY IDOCK:   -7.28 KCAL/MOL
REMARK 923 INTER-LIGAND FREE ENERGY PREDICTED BY IDOCK:   -7.37 KCAL/MOL
REMARK 924 INTRA-LIGAND FREE ENERGY PREDICTED BY IDOCK:    0.10 KCAL/MOL
REMARK 927      BINDING AFFINITY PREDICTED BY RF-SCORE:    0.00 PKD
ROOT
HETATM    1  C   UNL     1      -9.215  19.536  66.304  1.00  0.00    -0.416 C  
HETATM    2  C   UNL     1      -9.544  18.121  66.760  1.00  0.00    -0.301 C  
ENDROOT
BRANCH   2   3
HETATM    3  C   UNL     1      -8.579  17.058  66.216  1.00  0.00    -0.298 C  
BRANCH   3   4
HETATM    4  C   UNL     1      -9.153  15.680  66.293  1.00  0.00    -0.341 A  
HETATM    5  N   UNL     1     -10.366  15.378  65.869  1.00  0.00    -0.317 NA 
HETATM    6  C   UNL     1     -10.578  14.067  66.203  1.00  0.00    -0.290 A  
HETATM    7  C   UNL     1      -9.449  13.540  66.812  1.00  0.00    -0.269 A  
HETATM    8  N   UNL     1      -8.523  14.563  66.811  1.00  0.00    -0.148 NA 
HETATM    9  C   UNL     1      -9.407  12.237  67.309  1.00  0.00    -0.185 A  
HETATM   10  C   UNL     1     -11.733  13.274  66.044  1.00  0.00    -0.408 A  
HETATM   11  C   UNL     1     -10.508  11.400  67.092  1.00  0.00    -0.259 A  
HETATM   12  C   UNL     1     -12.995  13.825  65.451  1.00  0.00    -0.361 C  
HETATM   13  C   UNL     1     -11.661  11.934  66.490  1.00  0.00    -0.328 A  
BRANCH   8  14
HETATM   14  C   UNL     1      -7.203  14.474  67.436  1.00  0.00    -0.137 C  
BRANCH  14  15
HETATM   15  C   UNL     1      -6.771  13.099  67.916  1.00  0.00    -0.138 A  
HETATM   16  C   UNL     1      -7.011  12.617  69.202  1.00  0.00    -0.019 A  
HETATM   17  C   UNL     1      -6.001  10.834  67.319  1.00  0.00    -0.055 A  
HETATM   18  C   UNL     1      -6.232  12.187  66.989  1.00  0.00    -0.098 A  
HETATM   19  C   UNL     1      -6.737  11.274  69.534  1.00  0.00    -0.128 A  
HETATM   20  C   UNL     1      -6.255  10.328  68.602  1.00  0.00    -0.047 A  
BRANCH  20  21
HETATM   21  C   UNL     1      -6.108   8.881  68.984  1.00  0.00    -0.043 A  
HETATM   22  C   UNL     1      -5.738   7.250  70.812  1.00  0.00    -0.027 A  
HETATM   23  C   UNL     1      -5.930   8.563  70.349  1.00  0.00    -0.027 A  
HETATM   24  C   UNL     1      -5.944   6.447  68.586  1.00  0.00    -0.021 A  
HETATM   25  C   UNL     1      -6.141   7.771  68.106  1.00  0.00    -0.041 A  
HETATM   26  C   UNL     1      -5.721   6.194  69.932  1.00  0.00    -0.014 A  
HETATM   27  C   UNL     1      -6.327   7.875  66.640  1.00  0.00    -0.050 C  
HETATM   28  O   UNL     1      -7.188   6.908  66.250  1.00  0.00    -0.068 OA 
HETATM   29  O   UNL     1      -5.753   8.623  65.873  1.00  0.00    -0.045 OA 
ENDBRANCH  20  21
ENDBRANCH  14  15
ENDBRANCH   8  14
BRANCH  11  30
HETATM   30  C   UNL     1     -10.485   9.986  67.504  1.00  0.00    -0.254 A  
HETATM   31  C   UNL     1     -10.380   6.483  67.017  1.00  0.00    -0.319 A  
HETATM   32  C   UNL     1     -10.330   5.484  67.998  1.00  0.00    -0.237 A  
HETATM   33  N   UNL     1     -10.455   8.967  66.659  1.00  0.00    -0.216 NA 
HETATM   34  C   UNL     1     -10.354  10.292  70.022  1.00  0.00    -0.202 C  
HETATM   35  C   UNL     1     -10.418   7.827  67.419  1.00  0.00    -0.292 A  
HETATM   36  C   UNL     1     -10.323   5.817  69.352  1.00  0.00    -0.332 A  
HETATM   37  N   UNL     1     -10.440   9.511  68.809  1.00  0.00    -0.215 NA 
HETATM   38  C   UNL     1     -10.410   8.134  68.773  1.00  0.00    -0.202 A  
HETATM   39  C   UNL     1     -10.363   7.151  69.770  1.00  0.00    -0.224 A  
ENDBRANCH  11  30
ENDBRANCH   3   4
ENDBRANCH   2   3
TORSDOF 6
ENDMDL
MODEL      119
REMARK 921   NORMALIZED FREE ENERGY PREDICTED BY IDOCK:   -3.90 KCAL/MOL
REMARK 922        TOTAL FREE ENERGY PREDICTED BY IDOCK:   -7.28 KCAL/MOL
REMARK 923 INTER-LIGAND FREE ENERGY PREDICTED BY IDOCK:   -6.16 KCAL/MOL
REMARK 924 INTRA-LIGAND FREE ENERGY PREDICTED BY IDOCK:   -1.11 KCAL/MOL
REMARK 927      BINDING AFFINITY PREDICTED BY RF-SCORE:    0.00 PKD
ROOT
HETATM    1  C   UNL     1      -6.508  15.302  70.898  1.00  0.00     0.472 C  
HETATM    2  C   UNL     1      -5.926  14.004  71.441  1.00  0.00    -0.114 C  
ENDROOT
BRANCH   2   3
HETATM    3  C   UNL     1      -5.125  13.206  70.402  1.00  0.00    -0.100 C  
BRANCH   3   4
HETATM    4  C   UNL     1      -5.757  11.887  70.093  1.00  0.00    -0.147 A  
HETATM    5  N   UNL     1      -5.891  10.922  70.985  1.00  0.00    -0.344 NA 
HETATM    6  C   UNL     1      -6.403   9.843  70.316  1.00  0.00    -0.094 A  
HETATM    7  C   UNL     1      -6.625  10.167  68.986  1.00  0.00    -0.053 A  
HETATM    8  N   UNL     1      -6.264  11.494  68.869  1.00  0.00    -0.051 NA 
HETATM    9  C   UNL     1      -7.088   9.235  68.057  1.00  0.00    -0.078 A  
HETATM   10  C   UNL     1      -6.668   8.540  70.782  1.00  0.00    -0.043 A  
HETATM   11  C   UNL     1      -7.440   7.957  68.507  1.00  0.00    -0.096 A  
HETATM   12  C   UNL     1      -6.380   8.131  72.196  1.00  0.00    -0.057 C  
HETATM   13  C   UNL     1      -7.201   7.618  69.851  1.00  0.00    -0.072 A  
BRANCH   8  14
HETATM   14  C   UNL     1      -6.259  12.232  67.605  1.00  0.00    -0.120 C  
BRANCH  14  15
HETATM   15  C   UNL     1      -6.834  13.638  67.639  1.00  0.00    -0.185 A  
HETATM   16  C   UNL     1      -6.095  14.784  67.345  1.00  0.00     0.176 A  
HETATM   17  C   UNL     1      -8.845  15.063  67.670  1.00  0.00    -0.183 A  
HETATM   18  C   UNL     1      -8.218  13.809  67.829  1.00  0.00    -0.174 A  
HETATM   19  C   UNL     1      -6.726  16.041  67.230  1.00  0.00    -0.232 A  
HETATM   20  C   UNL     1      -8.121  16.222  67.354  1.00  0.00    -0.178 A  
BRANCH  20  21
HETATM   21  C   UNL     1      -8.747  17.564  67.091  1.00  0.00    -0.247 A  
HETATM   22  C   UNL     1     -10.508  18.825  65.888  1.00  0.00    -0.424 A  
HETATM   23  C   UNL     1      -9.872  17.622  66.238  1.00  0.00    -0.297 A  
HETATM   24  C   UNL     1      -8.984  20.018  67.265  1.00  0.00    -0.440 A  
HETATM   25  C   UNL     1      -8.333  18.806  67.627  1.00  0.00    -0.291 A  
HETATM   26  C   UNL     1     -10.053  20.025  66.380  1.00  0.00    -0.609 A  
HETATM   27  C   UNL     1      -7.186  18.973  68.549  1.00  0.00    -0.300 C  
HETATM   28  O   UNL     1      -7.547  19.835  69.527  1.00  0.00    -0.213 OA 
HETATM   29  O   UNL     1      -6.069  18.511  68.431  1.00  0.00    -0.195 OA 
ENDBRANCH  20  21
ENDBRANCH  14  15
ENDBRANCH   8  14
BRANCH  11  30
HETATM   30  C   UNL     1      -8.028   6.961  67.594  1.00  0.00    -0.113 A  
HETATM   31  C   UNL     1      -7.989   4.333  65.227  1.00  0.00    -0.100 A  
HETATM   32  C   UNL     1      -9.088   3.664  64.672  1.00  0.00    -0.133 A  
HETATM   33  N   UNL     1      -7.318   6.137  66.838  1.00  0.00    -0.081 NA 
HETATM   34  C   UNL     1     -10.485   7.304  68.138  1.00  0.00    -0.198 C  
HETATM   35  C   UNL     1      -8.217   5.357  66.158  1.00  0.00    -0.111 A  
HETATM   36  C   UNL     1     -10.388   4.013  65.034  1.00  0.00    -0.174 A  
HETATM   37  N   UNL     1      -9.382   6.700  67.426  1.00  0.00    -0.127 NA 
HETATM   38  C   UNL     1      -9.521   5.687  66.502  1.00  0.00    -0.152 A  
HETATM   39  C   UNL     1     -10.634   5.033  65.958  1.00  0.00    -0.286 A  
ENDBRANCH  11  30
ENDBRANCH   3   4
ENDBRANCH   2   3
TORSDOF 6
ENDMDL
MODEL      120
REMARK 921   NORMALIZED FREE ENERGY PREDICTED BY IDOCK:   -3.90 KCAL/MOL
REMARK 922        TOTAL FREE ENERGY PREDICTED BY IDOCK:   -7.26 KCAL/MOL
REMARK 923 INTER-LIGAND FREE ENERGY PREDICTED BY IDOCK:   -6.86 KCAL/MOL
REMARK 924 INTRA-LIGAND FREE ENERGY PREDICTED BY IDOCK:   -0.41 KCAL/MOL
REMARK 927      BINDING AFFINITY PREDICTED BY RF-SCORE:    0.00 PKD
ROOT
HETATM    1  C   UNL     1     -11.230   9.024  71.022  1.00  0.00    -0.361 C  
HETATM    2  C   UNL     1     -12.056   9.755  69.972  1.00  0.00     0.062 C  
ENDROOT
BRANCH   2   3
HETATM    3  C   UNL     1     -11.408   9.771  68.580  1.00  0.00     0.024 C  
BRANCH   3   4
HETATM    4  C   UNL     1     -11.068  11.155  68.131  1.00  0.00    -0.264 A  
HETATM    5  N   UNL     1     -11.918  11.938  67.492  1.00  0.00    -0.588 NA 
HETATM    6  C   UNL     1     -11.224  13.068  67.150  1.00  0.00    -0.286 A  
HETATM    7  C   UNL     1      -9.924  12.992  67.626  1.00  0.00    -0.215 A  
HETATM    8  N   UNL     1      -9.853  11.792  68.303  1.00  0.00    -0.194 NA 
HETATM    9  C   UNL     1      -8.975  13.983  67.370  1.00  0.00    -0.208 A  
HETATM   10  C   UNL     1     -11.639  14.184  66.397  1.00  0.00    -0.380 A  
HETATM   11  C   UNL     1      -9.380  15.142  66.697  1.00  0.00    -0.291 A  
HETATM   12  C   UNL     1     -13.016  14.274  65.808  1.00  0.00    -0.149 C  
HETATM   13  C   UNL     1     -10.693  15.216  66.197  1.00  0.00    -0.327 A  
BRANCH   8  14
HETATM   14  C   UNL     1      -8.627  11.261  68.902  1.00  0.00    -0.051 C  
BRANCH  14  15
HETATM   15  C   UNL     1      -8.305   9.805  68.610  1.00  0.00    -0.111 A  
HETATM   16  C   UNL     1      -8.020   8.863  69.597  1.00  0.00    -0.092 A  
HETATM   17  C   UNL     1      -8.354   7.948  66.990  1.00  0.00    -0.117 A  
HETATM   18  C   UNL     1      -8.439   9.324  67.294  1.00  0.00    -0.125 A  
HETATM   19  C   UNL     1      -7.894   7.495  69.276  1.00  0.00    -0.118 A  
HETATM   20  C   UNL     1      -8.088   6.984  67.973  1.00  0.00    -0.119 A  
BRANCH  20  21
HETATM   21  C   UNL     1      -8.071   5.502  67.719  1.00  0.00    -0.101 A  
HETATM   22  C   UNL     1      -8.980   3.283  68.347  1.00  0.00    -0.184 A  
HETATM   23  C   UNL     1      -8.944   4.683  68.470  1.00  0.00    -0.139 A  
HETATM   24  C   UNL     1      -7.309   3.402  66.662  1.00  0.00    -0.075 A  
HETATM   25  C   UNL     1      -7.266   4.818  66.778  1.00  0.00    -0.080 A  
HETATM   26  C   UNL     1      -8.148   2.639  67.462  1.00  0.00    -0.071 A  
HETATM   27  C   UNL     1      -6.290   5.481  65.881  1.00  0.00    -0.035 C  
HETATM   28  O   UNL     1      -6.401   4.932  64.650  1.00  0.00    -0.032 OA 
HETATM   29  O   UNL     1      -5.453   6.309  66.182  1.00  0.00    -0.013 OA 
ENDBRANCH  20  21
ENDBRANCH  14  15
ENDBRANCH   8  14
BRANCH  11  30
HETATM   30  C   UNL     1      -8.451  16.265  66.484  1.00  0.00    -0.303 A  
HETATM   31  C   UNL     1      -7.522  19.560  65.590  1.00  0.00    -0.202 A  
HETATM   32  C   UNL     1      -6.248  20.138  65.660  1.00  0.00    -0.241 A  
HETATM   33  N   UNL     1      -8.817  17.454  66.031  1.00  0.00    -0.528 NA 
HETATM   34  C   UNL     1      -6.317  15.210  67.368  1.00  0.00     0.029 C  
HETATM   35  C   UNL     1      -7.685  18.226  65.994  1.00  0.00    -0.165 A  
HETATM   36  C   UNL     1      -5.157  19.401  66.118  1.00  0.00    -0.161 A  
HETATM   37  N   UNL     1      -7.091  16.271  66.766  1.00  0.00    -0.202 NA 
HETATM   38  C   UNL     1      -6.583  17.512  66.447  1.00  0.00    -0.255 A  
HETATM   39  C   UNL     1      -5.301  18.070  66.521  1.00  0.00    -0.189 A  
ENDBRANCH  11  30
ENDBRANCH   3   4
ENDBRANCH   2   3
TORSDOF 6
ENDMDL
MODEL      121
REMARK 921   NORMALIZED FREE ENERGY PREDICTED BY IDOCK:   -3.88 KCAL/MOL
REMARK 922        TOTAL FREE ENERGY PREDICTED BY IDOCK:   -7.24 KCAL/MOL
REMARK 923 INTER-LIGAND FREE ENERGY PREDICTED BY IDOCK:   -6.68 KCAL/MOL
REMARK 924 INTRA-LIGAND FREE ENERGY PREDICTED BY IDOCK:   -0.56 KCAL/MOL
REMARK 927      BINDING AFFINITY PREDICTED BY RF-SCORE:    0.00 PKD
ROOT
HETATM    1  C   UNL     1     -13.689   9.066  72.235  1.00  0.00    -0.550 C  
HETATM    2  C   UNL     1     -12.363   8.428  72.627  1.00  0.00    -0.278 C  
ENDROOT
BRANCH   2   3
HETATM    3  C   UNL     1     -11.155   9.010  71.881  1.00  0.00    -0.433 C  
BRANCH   3   4
HETATM    4  C   UNL     1     -10.342   7.952  71.208  1.00  0.00    -0.191 A  
HETATM    5  N   UNL     1      -9.497   7.168  71.853  1.00  0.00    -0.146 NA 
HETATM    6  C   UNL     1      -8.863   6.414  70.903  1.00  0.00    -0.136 A  
HETATM    7  C   UNL     1      -9.361   6.715  69.644  1.00  0.00    -0.143 A  
HETATM    8  N   UNL     1     -10.348   7.656  69.857  1.00  0.00    -0.219 NA 
HETATM    9  C   UNL     1      -8.853   6.135  68.480  1.00  0.00    -0.113 A  
HETATM   10  C   UNL     1      -7.822   5.476  71.047  1.00  0.00    -0.105 A  
HETATM   11  C   UNL     1      -7.877   5.139  68.598  1.00  0.00    -0.079 A  
HETATM   12  C   UNL     1      -7.210   5.171  72.382  1.00  0.00    -0.091 C  
HETATM   13  C   UNL     1      -7.357   4.843  69.871  1.00  0.00    -0.055 A  
BRANCH   8  14
HETATM   14  C   UNL     1     -11.090   8.322  68.786  1.00  0.00     0.337 C  
BRANCH  14  15
HETATM   15  C   UNL     1     -10.848   9.812  68.617  1.00  0.00    -0.223 A  
HETATM   16  C   UNL     1      -9.926  10.349  67.721  1.00  0.00    -0.203 A  
HETATM   17  C   UNL     1     -11.653  12.108  69.011  1.00  0.00    -0.374 A  
HETATM   18  C   UNL     1     -11.691  10.723  69.281  1.00  0.00    -0.374 A  
HETATM   19  C   UNL     1      -9.867  11.740  67.490  1.00  0.00    -0.195 A  
HETATM   20  C   UNL     1     -10.745  12.664  68.098  1.00  0.00    -0.242 A  
BRANCH  20  21
HETATM   21  C   UNL     1     -10.719  14.117  67.711  1.00  0.00    -0.251 A  
HETATM   22  C   UNL     1     -10.201  15.781  65.950  1.00  0.00    -0.377 A  
HETATM   23  C   UNL     1     -10.306  14.454  66.403  1.00  0.00    -0.289 A  
HETATM   24  C   UNL     1     -10.973  16.550  68.061  1.00  0.00    -0.320 A  
HETATM   25  C   UNL     1     -11.084  15.212  68.529  1.00  0.00    -0.281 A  
HETATM   26  C   UNL     1     -10.511  16.830  66.782  1.00  0.00    -0.258 A  
HETATM   27  C   UNL     1     -11.555  15.086  69.928  1.00  0.00    -0.293 C  
HETATM   28  O   UNL     1     -12.601  15.925  70.104  1.00  0.00    -0.297 OA 
HETATM   29  O   UNL     1     -11.057  14.426  70.819  1.00  0.00     0.010 OA 
ENDBRANCH  20  21
ENDBRANCH  14  15
ENDBRANCH   8  14
BRANCH  11  30
HETATM   30  C   UNL     1      -7.373   4.420  67.415  1.00  0.00    -0.069 A  
HETATM   31  C   UNL     1      -5.176   3.788  64.716  1.00  0.00    -0.009 A  
HETATM   32  C   UNL     1      -5.221   2.722  63.807  1.00  0.00    -0.008 A  
HETATM   33  N   UNL     1      -6.305   4.786  66.724  1.00  0.00    -0.036 NA 
HETATM   34  C   UNL     1      -8.994   2.464  67.401  1.00  0.00    -0.154 C  
HETATM   35  C   UNL     1      -6.149   3.861  65.725  1.00  0.00    -0.027 A  
HETATM   36  C   UNL     1      -6.217   1.752  63.899  1.00  0.00    -0.014 A  
HETATM   37  N   UNL     1      -7.894   3.246  66.884  1.00  0.00    -0.079 NA 
HETATM   38  C   UNL     1      -7.132   2.883  65.795  1.00  0.00    -0.061 A  
HETATM   39  C   UNL     1      -7.196   1.811  64.896  1.00  0.00    -0.049 A  
ENDBRANCH  11  30
ENDBRANCH   3   4
ENDBRANCH   2   3
TORSDOF 6
ENDMDL
MODEL      122
REMARK 921   NORMALIZED FREE ENERGY PREDICTED BY IDOCK:   -3.87 KCAL/MOL
REMARK 922        TOTAL FREE ENERGY PREDICTED BY IDOCK:   -7.23 KCAL/MOL
REMARK 923 INTER-LIGAND FREE ENERGY PREDICTED BY IDOCK:   -9.41 KCAL/MOL
REMARK 924 INTRA-LIGAND FREE ENERGY PREDICTED BY IDOCK:    2.19 KCAL/MOL
REMARK 927      BINDING AFFINITY PREDICTED BY RF-SCORE:    0.00 PKD
ROOT
HETATM    1  C   UNL     1     -10.532   4.455  65.418  1.00  0.00    -0.219 C  
HETATM    2  C   UNL     1      -9.207   4.497  66.167  1.00  0.00    -0.139 C  
ENDROOT
BRANCH   2   3
HETATM    3  C   UNL     1      -9.173   5.529  67.303  1.00  0.00    -0.110 C  
BRANCH   3   4
HETATM    4  C   UNL     1      -9.245   6.933  66.796  1.00  0.00    -0.152 A  
HETATM    5  N   UNL     1      -9.100   7.250  65.522  1.00  0.00     0.118 NA 
HETATM    6  C   UNL     1      -9.115   8.617  65.458  1.00  0.00    -0.131 A  
HETATM    7  C   UNL     1      -9.314   9.152  66.722  1.00  0.00    -0.165 A  
HETATM    8  N   UNL     1      -9.455   8.065  67.560  1.00  0.00    -0.142 NA 
HETATM    9  C   UNL     1      -9.314  10.527  66.960  1.00  0.00    -0.176 A  
HETATM   10  C   UNL     1      -8.926   9.467  64.351  1.00  0.00    -0.255 A  
HETATM   11  C   UNL     1      -9.213  11.397  65.868  1.00  0.00    -0.231 A  
HETATM   12  C   UNL     1      -8.642   8.930  62.979  1.00  0.00    -0.136 C  
HETATM   13  C   UNL     1      -8.993  10.860  64.587  1.00  0.00    -0.147 A  
BRANCH   8  14
HETATM   14  C   UNL     1      -9.603   8.165  69.013  1.00  0.00    -0.156 C  
BRANCH  14  15
HETATM   15  C   UNL     1     -10.543   9.242  69.527  1.00  0.00    -0.236 A  
HETATM   16  C   UNL     1     -10.837   9.433  70.876  1.00  0.00    -0.392 A  
HETATM   17  C   UNL     1     -11.748  11.344  69.069  1.00  0.00    -0.409 A  
HETATM   18  C   UNL     1     -11.040  10.204  68.628  1.00  0.00    -0.254 A  
HETATM   19  C   UNL     1     -11.582  10.553  71.302  1.00  0.00    -0.121 A  
HETATM   20  C   UNL     1     -12.035  11.562  70.424  1.00  0.00    -0.459 A  
BRANCH  20  21
HETATM   21  C   UNL     1     -12.710  12.797  70.955  1.00  0.00    -0.331 A  
HETATM   22  C   UNL     1     -14.091  13.787  72.759  1.00  0.00    -0.045 A  
HETATM   23  C   UNL     1     -13.389  12.709  72.191  1.00  0.00    -0.570 A  
HETATM   24  C   UNL     1     -13.443  15.157  70.930  1.00  0.00    -0.432 A  
HETATM   25  C   UNL     1     -12.729  14.074  70.347  1.00  0.00    -0.316 A  
HETATM   26  C   UNL     1     -14.139  15.003  72.120  1.00  0.00    -0.629 A  
HETATM   27  C   UNL     1     -12.072  14.391  69.057  1.00  0.00    -0.263 C  
HETATM   28  O   UNL     1     -11.455  15.588  69.176  1.00  0.00    -0.300 OA 
HETATM   29  O   UNL     1     -12.134  13.759  68.021  1.00  0.00    -0.362 OA 
ENDBRANCH  20  21
ENDBRANCH  14  15
ENDBRANCH   8  14
BRANCH  11  30
HETATM   30  C   UNL     1      -9.306  12.857  66.044  1.00  0.00    -0.024 A  
HETATM   31  C   UNL     1     -10.719  16.074  65.627  1.00  0.00    -0.341 A  
HETATM   32  C   UNL     1     -10.278  17.281  66.185  1.00  0.00    -0.338 A  
HETATM   33  N   UNL     1     -10.254  13.609  65.506  1.00  0.00    -0.302 NA 
HETATM   34  C   UNL     1      -7.373  13.204  67.653  1.00  0.00    -0.154 C  
HETATM   35  C   UNL     1     -10.014  14.895  65.916  1.00  0.00    -0.331 A  
HETATM   36  C   UNL     1      -9.155  17.314  67.010  1.00  0.00    -0.247 A  
HETATM   37  N   UNL     1      -8.468  13.647  66.821  1.00  0.00    -0.052 NA 
HETATM   38  C   UNL     1      -8.898  14.953  66.740  1.00  0.00    -0.261 A  
HETATM   39  C   UNL     1      -8.439  16.149  67.306  1.00  0.00    -0.203 A  
ENDBRANCH  11  30
ENDBRANCH   3   4
ENDBRANCH   2   3
TORSDOF 6
ENDMDL
MODEL      123
REMARK 921   NORMALIZED FREE ENERGY PREDICTED BY IDOCK:   -3.82 KCAL/MOL
REMARK 922        TOTAL FREE ENERGY PREDICTED BY IDOCK:   -7.16 KCAL/MOL
REMARK 923 INTER-LIGAND FREE ENERGY PREDICTED BY IDOCK:   -5.33 KCAL/MOL
REMARK 924 INTRA-LIGAND FREE ENERGY PREDICTED BY IDOCK:   -1.83 KCAL/MOL
REMARK 927      BINDING AFFINITY PREDICTED BY RF-SCORE:    0.00 PKD
ROOT
HETATM    1  C   UNL     1      -6.265  15.302  67.893  1.00  0.00    -0.170 C  
HETATM    2  C   UNL     1      -6.477  13.805  67.709  1.00  0.00    -0.178 C  
ENDROOT
BRANCH   2   3
HETATM    3  C   UNL     1      -5.170  13.007  67.601  1.00  0.00    -0.071 C  
BRANCH   3   4
HETATM    4  C   UNL     1      -5.405  11.592  67.181  1.00  0.00    -0.090 A  
HETATM    5  N   UNL     1      -5.380  11.197  65.921  1.00  0.00    -0.196 NA 
HETATM    6  C   UNL     1      -5.745   9.878  65.920  1.00  0.00    -0.057 A  
HETATM    7  C   UNL     1      -5.962   9.441  67.218  1.00  0.00    -0.049 A  
HETATM    8  N   UNL     1      -5.683  10.529  68.020  1.00  0.00    -0.040 NA 
HETATM    9  C   UNL     1      -6.403   8.149  67.509  1.00  0.00    -0.056 A  
HETATM   10  C   UNL     1      -5.946   9.002  64.835  1.00  0.00    -0.064 A  
HETATM   11  C   UNL     1      -6.531   7.232  66.459  1.00  0.00    -0.052 A  
HETATM   12  C   UNL     1      -5.787   9.453  63.413  1.00  0.00    -0.089 C  
HETATM   13  C   UNL     1      -6.329   7.675  65.139  1.00  0.00    -0.038 A  
BRANCH   8  14
HETATM   14  C   UNL     1      -5.861  10.542  69.473  1.00  0.00    -0.040 C  
BRANCH  14  15
HETATM   15  C   UNL     1      -7.263  10.263  69.988  1.00  0.00    -0.164 A  
HETATM   16  C   UNL     1      -8.424  10.637  69.312  1.00  0.00    -0.102 A  
HETATM   17  C   UNL     1      -8.694   8.990  71.540  1.00  0.00    -0.145 A  
HETATM   18  C   UNL     1      -7.427   9.455  71.129  1.00  0.00     0.027 A  
HETATM   19  C   UNL     1      -9.690  10.202  69.756  1.00  0.00    -0.232 A  
HETATM   20  C   UNL     1      -9.871   9.340  70.861  1.00  0.00    -0.363 A  
BRANCH  20  21
HETATM   21  C   UNL     1     -11.234   8.807  71.204  1.00  0.00    -0.339 A  
HETATM   22  C   UNL     1     -13.411   9.244  72.305  1.00  0.00    -0.547 A  
HETATM   23  C   UNL     1     -12.129   9.653  71.895  1.00  0.00    -0.380 A  
HETATM   24  C   UNL     1     -13.036   7.119  71.312  1.00  0.00    -0.378 A  
HETATM   25  C   UNL     1     -11.739   7.522  70.891  1.00  0.00    -0.307 A  
HETATM   26  C   UNL     1     -13.857   7.971  72.035  1.00  0.00    -0.350 A  
HETATM   27  C   UNL     1     -10.974   6.482  70.163  1.00  0.00    -0.317 C  
HETATM   28  O   UNL     1     -11.798   5.900  69.262  1.00  0.00     0.434 OA 
HETATM   29  O   UNL     1      -9.834   6.120  70.374  1.00  0.00    -0.173 OA 
ENDBRANCH  20  21
ENDBRANCH  14  15
ENDBRANCH   8  14
BRANCH  11  30
HETATM   30  C   UNL     1      -6.896   5.827  66.712  1.00  0.00    -0.063 A  
HETATM   31  C   UNL     1      -6.425   2.540  67.930  1.00  0.00    -0.032 A  
HETATM   32  C   UNL     1      -7.334   1.474  67.889  1.00  0.00    -0.046 A  
HETATM   33  N   UNL     1      -6.108   4.955  67.321  1.00  0.00    -0.030 NA 
HETATM   34  C   UNL     1      -9.278   5.855  65.831  1.00  0.00    -0.092 C  
HETATM   35  C   UNL     1      -6.805   3.777  67.387  1.00  0.00    -0.054 A  
HETATM   36  C   UNL     1      -8.593   1.635  67.313  1.00  0.00    -0.109 A  
HETATM   37  N   UNL     1      -8.111   5.227  66.406  1.00  0.00    -0.108 NA 
HETATM   38  C   UNL     1      -8.066   3.913  66.819  1.00  0.00    -0.096 A  
HETATM   39  C   UNL     1      -8.987   2.860  66.765  1.00  0.00    -0.174 A  
ENDBRANCH  11  30
ENDBRANCH   3   4
ENDBRANCH   2   3
TORSDOF 6
ENDMDL
MODEL      124
REMARK 921   NORMALIZED FREE ENERGY PREDICTED BY IDOCK:   -3.73 KCAL/MOL
REMARK 922        TOTAL FREE ENERGY PREDICTED BY IDOCK:   -7.04 KCAL/MOL
REMARK 923 INTER-LIGAND FREE ENERGY PREDICTED BY IDOCK:   -5.48 KCAL/MOL
REMARK 924 INTRA-LIGAND FREE ENERGY PREDICTED BY IDOCK:   -1.57 KCAL/MOL
REMARK 927      BINDING AFFINITY PREDICTED BY RF-SCORE:    0.00 PKD
ROOT
HETATM    1  C   UNL     1     -11.516  11.956  63.805  1.00  0.00    -0.542 C  
HETATM    2  C   UNL     1     -10.256  11.877  64.656  1.00  0.00    -0.316 C  
ENDROOT
BRANCH   2   3
HETATM    3  C   UNL     1     -10.349  12.663  65.971  1.00  0.00    -0.287 C  
BRANCH   3   4
HETATM    4  C   UNL     1      -9.562  12.025  67.070  1.00  0.00    -0.195 A  
HETATM    5  N   UNL     1      -8.516  12.598  67.637  1.00  0.00    -0.161 NA 
HETATM    6  C   UNL     1      -7.996  11.680  68.509  1.00  0.00    -0.144 A  
HETATM    7  C   UNL     1      -8.767  10.527  68.504  1.00  0.00    -0.140 A  
HETATM    8  N   UNL     1      -9.800  10.782  67.625  1.00  0.00    -0.169 NA 
HETATM    9  C   UNL     1      -8.432   9.400  69.258  1.00  0.00    -0.141 A  
HETATM   10  C   UNL     1      -6.840  11.756  69.310  1.00  0.00    -0.093 A  
HETATM   11  C   UNL     1      -7.337   9.476  70.127  1.00  0.00    -0.124 A  
HETATM   12  C   UNL     1      -5.943  12.958  69.294  1.00  0.00    -0.093 C  
HETATM   13  C   UNL     1      -6.543  10.636  70.122  1.00  0.00    -0.151 A  
BRANCH   8  14
HETATM   14  C   UNL     1     -10.816   9.798  67.248  1.00  0.00    -0.177 C  
BRANCH  14  15
HETATM   15  C   UNL     1     -10.308   8.453  66.756  1.00  0.00    -0.357 A  
HETATM   16  C   UNL     1      -9.136   8.291  66.018  1.00  0.00    -0.228 A  
HETATM   17  C   UNL     1     -10.422   5.997  66.929  1.00  0.00    -0.344 A  
HETATM   18  C   UNL     1     -10.957   7.278  67.180  1.00  0.00    -0.285 A  
HETATM   19  C   UNL     1      -8.632   7.004  65.736  1.00  0.00    -0.138 A  
HETATM   20  C   UNL     1      -9.233   5.816  66.206  1.00  0.00    -0.168 A  
BRANCH  20  21
HETATM   21  C   UNL     1      -8.575   4.482  65.984  1.00  0.00    -0.114 A  
HETATM   22  C   UNL     1      -7.938   2.736  64.344  1.00  0.00    -0.082 A  
HETATM   23  C   UNL     1      -8.492   3.989  64.663  1.00  0.00    -0.107 A  
HETATM   24  C   UNL     1      -7.447   2.384  66.642  1.00  0.00    -0.069 A  
HETATM   25  C   UNL     1      -8.003   3.650  66.975  1.00  0.00    -0.087 A  
HETATM   26  C   UNL     1      -7.437   1.923  65.333  1.00  0.00    -0.069 A  
HETATM   27  C   UNL     1      -7.971   3.977  68.419  1.00  0.00    -0.072 C  
HETATM   28  O   UNL     1      -6.750   3.656  68.902  1.00  0.00    -0.043 OA 
HETATM   29  O   UNL     1      -8.890   4.376  69.107  1.00  0.00    -0.085 OA 
ENDBRANCH  20  21
ENDBRANCH  14  15
ENDBRANCH   8  14
BRANCH  11  30
HETATM   30  C   UNL     1      -6.993   8.356  71.021  1.00  0.00    -0.056 A  
HETATM   31  C   UNL     1      -6.979   6.535  74.053  1.00  0.00    -0.081 A  
HETATM   32  C   UNL     1      -6.400   5.282  74.296  1.00  0.00    -0.068 A  
HETATM   33  N   UNL     1      -7.361   8.282  72.291  1.00  0.00    -0.101 NA 
HETATM   34  C   UNL     1      -5.804   6.850  69.357  1.00  0.00    -0.018 C  
HETATM   35  C   UNL     1      -6.873   7.094  72.770  1.00  0.00    -0.068 A  
HETATM   36  C   UNL     1      -5.726   4.603  73.284  1.00  0.00    -0.009 A  
HETATM   37  N   UNL     1      -6.293   7.209  70.669  1.00  0.00    -0.038 NA 
HETATM   38  C   UNL     1      -6.196   6.398  71.778  1.00  0.00    -0.042 A  
HETATM   39  C   UNL     1      -5.608   5.146  72.001  1.00  0.00    -0.012 A  
ENDBRANCH  11  30
ENDBRANCH   3   4
ENDBRANCH   2   3
TORSDOF 6
ENDMDL
MODEL      125
REMARK 921   NORMALIZED FREE ENERGY PREDICTED BY IDOCK:   -3.73 KCAL/MOL
REMARK 922        TOTAL FREE ENERGY PREDICTED BY IDOCK:   -7.04 KCAL/MOL
REMARK 923 INTER-LIGAND FREE ENERGY PREDICTED BY IDOCK:   -6.73 KCAL/MOL
REMARK 924 INTRA-LIGAND FREE ENERGY PREDICTED BY IDOCK:   -0.30 KCAL/MOL
REMARK 927      BINDING AFFINITY PREDICTED BY RF-SCORE:    0.00 PKD
ROOT
HETATM    1  C   UNL     1      -6.306  14.436  70.194  1.00  0.00    -0.158 C  
HETATM    2  C   UNL     1      -6.497  13.630  68.916  1.00  0.00    -0.101 C  
ENDROOT
BRANCH   2   3
HETATM    3  C   UNL     1      -7.900  13.024  68.773  1.00  0.00     0.033 C  
BRANCH   3   4
HETATM    4  C   UNL     1      -7.859  11.603  68.313  1.00  0.00    -0.136 A  
HETATM    5  N   UNL     1      -6.937  10.742  68.705  1.00  0.00    -0.069 NA 
HETATM    6  C   UNL     1      -7.156   9.590  67.998  1.00  0.00    -0.080 A  
HETATM    7  C   UNL     1      -8.266   9.735  67.180  1.00  0.00    -0.121 A  
HETATM    8  N   UNL     1      -8.743  11.005  67.434  1.00  0.00    -0.131 NA 
HETATM    9  C   UNL     1      -8.684   8.734  66.302  1.00  0.00    -0.169 A  
HETATM   10  C   UNL     1      -6.416   8.391  67.983  1.00  0.00    -0.057 A  
HETATM   11  C   UNL     1      -8.020   7.502  66.325  1.00  0.00    -0.109 A  
HETATM   12  C   UNL     1      -5.172   8.218  68.803  1.00  0.00    -0.028 C  
HETATM   13  C   UNL     1      -6.884   7.356  67.140  1.00  0.00    -0.074 A  
BRANCH   8  14
HETATM   14  C   UNL     1      -9.867  11.615  66.723  1.00  0.00    -0.200 C  
BRANCH  14  15
HETATM   15  C   UNL     1      -9.999  13.125  66.831  1.00  0.00    -0.245 A  
HETATM   16  C   UNL     1     -10.554  13.776  67.932  1.00  0.00    -0.257 A  
HETATM   17  C   UNL     1      -9.312  15.339  65.992  1.00  0.00    -0.346 A  
HETATM   18  C   UNL     1      -9.404  13.938  65.848  1.00  0.00     0.017 A  
HETATM   19  C   UNL     1     -10.496  15.181  68.046  1.00  0.00    -0.247 A  
HETATM   20  C   UNL     1      -9.847  16.009  67.103  1.00  0.00    -0.236 A  
BRANCH  20  21
HETATM   21  C   UNL     1      -9.704  17.486  67.347  1.00  0.00    -0.274 A  
HETATM   22  C   UNL     1     -10.802  19.707  67.303  1.00  0.00    -0.519 A  
HETATM   23  C   UNL     1     -10.834  18.310  67.147  1.00  0.00    -0.239 A  
HETATM   24  C   UNL     1      -8.515  19.572  67.932  1.00  0.00    -0.353 A  
HETATM   25  C   UNL     1      -8.537  18.158  67.779  1.00  0.00    -0.258 A  
HETATM   26  C   UNL     1      -9.640  20.342  67.672  1.00  0.00    -0.530 A  
HETATM   27  C   UNL     1      -7.245  17.488  68.058  1.00  0.00    -0.206 C  
HETATM   28  O   UNL     1      -6.729  18.011  69.194  1.00  0.00    -0.255 OA 
HETATM   29  O   UNL     1      -6.669  16.674  67.363  1.00  0.00    -0.138 OA 
ENDBRANCH  20  21
ENDBRANCH  14  15
ENDBRANCH   8  14
BRANCH  11  30
HETATM   30  C   UNL     1      -8.476   6.373  65.495  1.00  0.00    -0.139 A  
HETATM   31  C   UNL     1      -8.400   4.156  62.740  1.00  0.00    -0.085 A  
HETATM   32  C   UNL     1      -9.239   3.059  62.500  1.00  0.00    -0.090 A  
HETATM   33  N   UNL     1      -7.906   6.013  64.356  1.00  0.00    -0.108 NA 
HETATM   34  C   UNL     1     -10.325   5.481  66.992  1.00  0.00    -0.254 C  
HETATM   35  C   UNL     1      -8.595   4.919  63.902  1.00  0.00    -0.131 A  
HETATM   36  C   UNL     1     -10.254   2.732  63.398  1.00  0.00    -0.166 A  
HETATM   37  N   UNL     1      -9.515   5.500  65.794  1.00  0.00    -0.105 NA 
HETATM   38  C   UNL     1      -9.613   4.573  64.781  1.00  0.00    -0.095 A  
HETATM   39  C   UNL     1     -10.464   3.482  64.559  1.00  0.00    -0.074 A  
ENDBRANCH  11  30
ENDBRANCH   3   4
ENDBRANCH   2   3
TORSDOF 6
ENDMDL
MODEL      126
REMARK 921   NORMALIZED FREE ENERGY PREDICTED BY IDOCK:   -3.63 KCAL/MOL
REMARK 922        TOTAL FREE ENERGY PREDICTED BY IDOCK:   -6.91 KCAL/MOL
REMARK 923 INTER-LIGAND FREE ENERGY PREDICTED BY IDOCK:   -6.37 KCAL/MOL
REMARK 924 INTRA-LIGAND FREE ENERGY PREDICTED BY IDOCK:   -0.54 KCAL/MOL
REMARK 927      BINDING AFFINITY PREDICTED BY RF-SCORE:    0.00 PKD
ROOT
HETATM    1  C   UNL     1     -14.385   8.298  70.365  1.00  0.00     1.457 C  
HETATM    2  C   UNL     1     -13.771   7.474  71.488  1.00  0.00    -0.460 C  
ENDROOT
BRANCH   2   3
HETATM    3  C   UNL     1     -12.821   8.273  72.392  1.00  0.00    -0.261 C  
BRANCH   3   4
HETATM    4  C   UNL     1     -12.616   9.670  71.902  1.00  0.00    -0.396 A  
HETATM    5  N   UNL     1     -13.247  10.714  72.407  1.00  0.00    -0.124 NA 
HETATM    6  C   UNL     1     -12.892  11.791  71.641  1.00  0.00    -0.328 A  
HETATM    7  C   UNL     1     -11.987  11.404  70.663  1.00  0.00    -0.314 A  
HETATM    8  N   UNL     1     -11.772  10.058  70.877  1.00  0.00    -0.344 NA 
HETATM    9  C   UNL     1     -11.501  12.291  69.701  1.00  0.00    -0.285 A  
HETATM   10  C   UNL     1     -13.337  13.127  71.705  1.00  0.00    -0.393 A  
HETATM   11  C   UNL     1     -11.859  13.641  69.791  1.00  0.00    -0.392 A  
HETATM   12  C   UNL     1     -14.363  13.571  72.704  1.00  0.00     0.040 C  
HETATM   13  C   UNL     1     -12.789  14.035  70.769  1.00  0.00    -0.355 A  
BRANCH   8  14
HETATM   14  C   UNL     1     -10.941   9.214  70.017  1.00  0.00    -0.220 C  
BRANCH  14  15
HETATM   15  C   UNL     1     -10.266   8.026  70.681  1.00  0.00    -0.205 A  
HETATM   16  C   UNL     1     -10.510   6.700  70.327  1.00  0.00    -0.247 A  
HETATM   17  C   UNL     1      -8.424   7.205  72.100  1.00  0.00    -0.118 A  
HETATM   18  C   UNL     1      -9.227   8.255  71.603  1.00  0.00    -0.245 A  
HETATM   19  C   UNL     1      -9.730   5.654  70.862  1.00  0.00    -0.223 A  
HETATM   20  C   UNL     1      -8.642   5.868  71.738  1.00  0.00    -0.131 A  
BRANCH  20  21
HETATM   21  C   UNL     1      -7.768   4.723  72.170  1.00  0.00    -0.092 A  
HETATM   22  C   UNL     1      -7.375   2.934  73.839  1.00  0.00    -0.046 A  
HETATM   23  C   UNL     1      -8.140   3.993  73.321  1.00  0.00    -0.089 A  
HETATM   24  C   UNL     1      -5.821   3.204  72.063  1.00  0.00    -0.009 A  
HETATM   25  C   UNL     1      -6.589   4.275  71.528  1.00  0.00    -0.026 A  
HETATM   26  C   UNL     1      -6.204   2.553  73.227  1.00  0.00    -0.012 A  
HETATM   27  C   UNL     1      -6.024   4.889  70.304  1.00  0.00    -0.018 C  
HETATM   28  O   UNL     1      -5.627   3.897  69.475  1.00  0.00    -0.015 OA 
HETATM   29  O   UNL     1      -5.844   6.070  70.084  1.00  0.00    -0.016 OA 
ENDBRANCH  20  21
ENDBRANCH  14  15
ENDBRANCH   8  14
BRANCH  11  30
HETATM   30  C   UNL     1     -11.301  14.643  68.866  1.00  0.00    -0.283 A  
HETATM   31  C   UNL     1      -9.994  17.793  67.927  1.00  0.00    -0.322 A  
HETATM   32  C   UNL     1      -9.511  18.179  66.669  1.00  0.00    -0.303 A  
HETATM   33  N   UNL     1     -10.978  15.878  69.218  1.00  0.00    -0.269 NA 
HETATM   34  C   UNL     1     -11.084  13.206  66.783  1.00  0.00    -0.289 C  
HETATM   35  C   UNL     1     -10.475  16.486  68.097  1.00  0.00    -0.313 A  
HETATM   36  C   UNL     1      -9.514  17.282  65.602  1.00  0.00     0.251 A  
HETATM   37  N   UNL     1     -10.984  14.440  67.529  1.00  0.00    -0.286 NA 
HETATM   38  C   UNL     1     -10.467  15.611  67.019  1.00  0.00    -0.303 A  
HETATM   39  C   UNL     1      -9.993  15.977  65.753  1.00  0.00    -0.382 A  
ENDBRANCH  11  30
ENDBRANCH   3   4
ENDBRANCH   2   3
TORSDOF 6
ENDMDL
MODEL      127
REMARK 921   NORMALIZED FREE ENERGY PREDICTED BY IDOCK:   -3.62 KCAL/MOL
REMARK 922        TOTAL FREE ENERGY PREDICTED BY IDOCK:   -6.89 KCAL/MOL
REMARK 923 INTER-LIGAND FREE ENERGY PREDICTED BY IDOCK:   -6.07 KCAL/MOL
REMARK 924 INTRA-LIGAND FREE ENERGY PREDICTED BY IDOCK:   -0.82 KCAL/MOL
REMARK 927      BINDING AFFINITY PREDICTED BY RF-SCORE:    0.00 PKD
ROOT
HETATM    1  C   UNL     1      -8.073   6.437  74.448  1.00  0.00    -0.127 C  
HETATM    2  C   UNL     1      -8.847   5.138  74.269  1.00  0.00    -0.112 C  
ENDROOT
BRANCH   2   3
HETATM    3  C   UNL     1      -9.490   4.989  72.883  1.00  0.00    -0.153 C  
BRANCH   3   4
HETATM    4  C   UNL     1      -9.925   6.301  72.317  1.00  0.00    -0.165 A  
HETATM    5  N   UNL     1     -11.084   6.864  72.603  1.00  0.00    -0.262 NA 
HETATM    6  C   UNL     1     -11.176   7.985  71.821  1.00  0.00    -0.266 A  
HETATM    7  C   UNL     1     -10.024   8.133  71.064  1.00  0.00    -0.187 A  
HETATM    8  N   UNL     1      -9.206   7.085  71.432  1.00  0.00    -0.151 NA 
HETATM    9  C   UNL     1      -9.870   9.161  70.131  1.00  0.00    -0.229 A  
HETATM   10  C   UNL     1     -12.237   8.901  71.684  1.00  0.00    -0.409 A  
HETATM   11  C   UNL     1     -10.871  10.134  70.033  1.00  0.00    -0.361 A  
HETATM   12  C   UNL     1     -13.525   8.738  72.436  1.00  0.00    -0.446 C  
HETATM   13  C   UNL     1     -12.048   9.977  70.787  1.00  0.00    -0.418 A  
BRANCH   8  14
HETATM   14  C   UNL     1      -7.909   6.802  70.817  1.00  0.00    -0.101 C  
BRANCH  14  15
HETATM   15  C   UNL     1      -7.792   7.073  69.327  1.00  0.00    -0.114 A  
HETATM   16  C   UNL     1      -8.573   6.440  68.361  1.00  0.00    -0.115 A  
HETATM   17  C   UNL     1      -6.963   8.556  67.540  1.00  0.00    -0.079 A  
HETATM   18  C   UNL     1      -6.963   8.120  68.883  1.00  0.00    -0.062 A  
HETATM   19  C   UNL     1      -8.535   6.855  67.013  1.00  0.00    -0.121 A  
HETATM   20  C   UNL     1      -7.758   7.944  66.560  1.00  0.00    -0.097 A  
BRANCH  20  21
HETATM   21  C   UNL     1      -7.861   8.421  65.138  1.00  0.00    -0.118 A  
HETATM   22  C   UNL     1      -8.498  10.270  63.615  1.00  0.00    -0.183 A  
HETATM   23  C   UNL     1      -8.321   9.736  64.904  1.00  0.00    -0.152 A  
HETATM   24  C   UNL     1      -7.710   8.234  62.678  1.00  0.00    -0.126 A  
HETATM   25  C   UNL     1      -7.526   7.685  63.977  1.00  0.00    -0.107 A  
HETATM   26  C   UNL     1      -8.216   9.514  62.502  1.00  0.00    -0.148 A  
HETATM   27  C   UNL     1      -7.015   6.294  63.992  1.00  0.00    -0.040 C  
HETATM   28  O   UNL     1      -6.004   6.202  63.098  1.00  0.00    -0.021 OA 
HETATM   29  O   UNL     1      -7.460   5.350  64.614  1.00  0.00    -0.065 OA 
ENDBRANCH  20  21
ENDBRANCH  14  15
ENDBRANCH   8  14
BRANCH  11  30
HETATM   30  C   UNL     1     -10.722  11.296  69.140  1.00  0.00    -0.207 A  
HETATM   31  C   UNL     1     -10.084  12.955  66.082  1.00  0.00    -0.281 A  
HETATM   32  C   UNL     1     -10.155  14.331  65.824  1.00  0.00    -0.356 A  
HETATM   33  N   UNL     1     -10.388  11.211  67.862  1.00  0.00    -0.180 NA 
HETATM   34  C   UNL     1     -11.431  13.138  70.739  1.00  0.00     0.892 C  
HETATM   35  C   UNL     1     -10.376  12.492  67.374  1.00  0.00    -0.216 A  
HETATM   36  C   UNL     1     -10.506  15.226  66.833  1.00  0.00    -0.289 A  
HETATM   37  N   UNL     1     -10.952  12.624  69.476  1.00  0.00     0.014 NA 
HETATM   38  C   UNL     1     -10.723  13.403  68.363  1.00  0.00    -0.256 A  
HETATM   39  C   UNL     1     -10.798  14.782  68.126  1.00  0.00    -0.256 A  
ENDBRANCH  11  30
ENDBRANCH   3   4
ENDBRANCH   2   3
TORSDOF 6
ENDMDL
MODEL      128
REMARK 921   NORMALIZED FREE ENERGY PREDICTED BY IDOCK:   -3.62 KCAL/MOL
REMARK 922        TOTAL FREE ENERGY PREDICTED BY IDOCK:   -6.89 KCAL/MOL
REMARK 923 INTER-LIGAND FREE ENERGY PREDICTED BY IDOCK:   -5.99 KCAL/MOL
REMARK 924 INTRA-LIGAND FREE ENERGY PREDICTED BY IDOCK:   -0.89 KCAL/MOL
REMARK 927      BINDING AFFINITY PREDICTED BY RF-SCORE:    0.00 PKD
ROOT
HETATM    1  C   UNL     1      -6.035  13.655  67.455  1.00  0.00     0.003 C  
HETATM    2  C   UNL     1      -6.404  12.216  67.120  1.00  0.00    -0.139 C  
ENDROOT
BRANCH   2   3
HETATM    3  C   UNL     1      -5.192  11.323  66.816  1.00  0.00    -0.103 C  
BRANCH   3   4
HETATM    4  C   UNL     1      -5.438   9.894  67.175  1.00  0.00    -0.042 A  
HETATM    5  N   UNL     1      -5.289   8.898  66.320  1.00  0.00    -0.030 NA 
HETATM    6  C   UNL     1      -5.707   7.766  66.966  1.00  0.00    -0.032 A  
HETATM    7  C   UNL     1      -6.086   8.069  68.265  1.00  0.00    -0.042 A  
HETATM    8  N   UNL     1      -5.854   9.422  68.406  1.00  0.00    -0.041 NA 
HETATM    9  C   UNL     1      -6.611   7.112  69.135  1.00  0.00    -0.044 A  
HETATM   10  C   UNL     1      -5.823   6.447  66.485  1.00  0.00    -0.021 A  
HETATM   11  C   UNL     1      -6.660   5.778  68.713  1.00  0.00    -0.051 A  
HETATM   12  C   UNL     1      -5.486   6.089  65.067  1.00  0.00    -0.017 C  
HETATM   13  C   UNL     1      -6.293   5.468  67.391  1.00  0.00    -0.039 A  
BRANCH   8  14
HETATM   14  C   UNL     1      -6.192  10.191  69.605  1.00  0.00    -0.052 C  
BRANCH  14  15
HETATM   15  C   UNL     1      -7.624  10.079  70.101  1.00  0.00    -0.168 A  
HETATM   16  C   UNL     1      -8.728  10.545  69.389  1.00  0.00    -0.093 A  
HETATM   17  C   UNL     1      -9.205   9.022  71.670  1.00  0.00    -0.223 A  
HETATM   18  C   UNL     1      -7.889   9.337  71.267  1.00  0.00     0.032 A  
HETATM   19  C   UNL     1     -10.040  10.261  69.823  1.00  0.00    -0.244 A  
HETATM   20  C   UNL     1     -10.327   9.465  70.955  1.00  0.00    -0.380 A  
BRANCH  20  21
HETATM   21  C   UNL     1     -11.744   9.090  71.290  1.00  0.00    -0.382 A  
HETATM   22  C   UNL     1     -13.346   7.255  71.750  1.00  0.00    -0.367 A  
HETATM   23  C   UNL     1     -12.048   7.723  71.477  1.00  0.00    -0.336 A  
HETATM   24  C   UNL     1     -14.142   9.493  71.731  1.00  0.00    -0.121 A  
HETATM   25  C   UNL     1     -12.833   9.977  71.457  1.00  0.00    -0.537 A  
HETATM   26  C   UNL     1     -14.397   8.135  71.854  1.00  0.00    -0.566 A  
HETATM   27  C   UNL     1     -12.737  11.449  71.317  1.00  0.00    -0.393 C  
HETATM   28  O   UNL     1     -13.445  12.020  72.318  1.00  0.00    -0.465 OA 
HETATM   29  O   UNL     1     -12.204  12.073  70.421  1.00  0.00    -0.334 OA 
ENDBRANCH  20  21
ENDBRANCH  14  15
ENDBRANCH   8  14
BRANCH  11  30
HETATM   30  C   UNL     1      -7.110   4.707  69.618  1.00  0.00    -0.050 A  
HETATM   31  C   UNL     1      -6.792   2.345  72.232  1.00  0.00    -0.019 A  
HETATM   32  C   UNL     1      -7.782   1.492  72.741  1.00  0.00    -0.036 A  
HETATM   33  N   UNL     1      -6.342   4.140  70.536  1.00  0.00    -0.025 NA 
HETATM   34  C   UNL     1      -9.552   4.584  68.930  1.00  0.00    -0.166 C  
HETATM   35  C   UNL     1      -7.121   3.216  71.183  1.00  0.00    -0.033 A  
HETATM   36  C   UNL     1      -9.071   1.505  72.211  1.00  0.00    -0.103 A  
HETATM   37  N   UNL     1      -8.391   4.173  69.686  1.00  0.00    -0.058 NA 
HETATM   38  C   UNL     1      -8.412   3.210  70.672  1.00  0.00    -0.057 A  
HETATM   39  C   UNL     1      -9.415   2.364  71.163  1.00  0.00    -0.220 A  
ENDBRANCH  11  30
ENDBRANCH   3   4
ENDBRANCH   2   3
TORSDOF 6
ENDMDL
MODEL      129
REMARK 921   NORMALIZED FREE ENERGY PREDICTED BY IDOCK:   -3.58 KCAL/MOL
REMARK 922        TOTAL FREE ENERGY PREDICTED BY IDOCK:   -6.83 KCAL/MOL
REMARK 923 INTER-LIGAND FREE ENERGY PREDICTED BY IDOCK:   -6.00 KCAL/MOL
REMARK 924 INTRA-LIGAND FREE ENERGY PREDICTED BY IDOCK:   -0.83 KCAL/MOL
REMARK 927      BINDING AFFINITY PREDICTED BY RF-SCORE:    0.00 PKD
ROOT
HETATM    1  C   UNL     1     -12.286  13.536  64.806  1.00  0.00    -0.450 C  
HETATM    2  C   UNL     1     -10.782  13.553  65.047  1.00  0.00    -0.366 C  
ENDROOT
BRANCH   2   3
HETATM    3  C   UNL     1     -10.355  14.453  66.215  1.00  0.00    -0.300 C  
BRANCH   3   4
HETATM    4  C   UNL     1      -9.404  13.766  67.141  1.00  0.00    -0.240 A  
HETATM    5  N   UNL     1      -8.196  14.227  67.409  1.00  0.00    -0.191 NA 
HETATM    6  C   UNL     1      -7.587  13.286  68.195  1.00  0.00    -0.141 A  
HETATM    7  C   UNL     1      -8.459  12.238  68.448  1.00  0.00    -0.138 A  
HETATM    8  N   UNL     1      -9.637  12.584  67.818  1.00  0.00    -0.197 NA 
HETATM    9  C   UNL     1      -8.080  11.109  69.176  1.00  0.00    -0.030 A  
HETATM   10  C   UNL     1      -6.271  13.250  68.698  1.00  0.00    -0.084 A  
HETATM   11  C   UNL     1      -6.808  11.083  69.759  1.00  0.00    -0.116 A  
HETATM   12  C   UNL     1      -5.277  14.331  68.393  1.00  0.00    -0.105 C  
HETATM   13  C   UNL     1      -5.914  12.135  69.491  1.00  0.00    -0.105 A  
BRANCH   8  14
HETATM   14  C   UNL     1     -10.817  11.719  67.755  1.00  0.00    -0.213 C  
BRANCH  14  15
HETATM   15  C   UNL     1     -10.570  10.260  67.411  1.00  0.00    -0.324 A  
HETATM   16  C   UNL     1     -10.048   9.830  66.192  1.00  0.00    -0.315 A  
HETATM   17  C   UNL     1     -10.324   7.944  68.221  1.00  0.00    -0.239 A  
HETATM   18  C   UNL     1     -10.730   9.283  68.412  1.00  0.00    -0.192 A  
HETATM   19  C   UNL     1      -9.686   8.480  65.996  1.00  0.00    -0.195 A  
HETATM   20  C   UNL     1      -9.779   7.499  67.008  1.00  0.00    -0.257 A  
BRANCH  20  21
HETATM   21  C   UNL     1      -9.254   6.108  66.778  1.00  0.00    -0.143 A  
HETATM   22  C   UNL     1      -9.428   3.707  67.366  1.00  0.00    -0.238 A  
HETATM   23  C   UNL     1      -9.865   5.039  67.471  1.00  0.00    -0.201 A  
HETATM   24  C   UNL     1      -7.762   4.389  65.816  1.00  0.00    -0.090 A  
HETATM   25  C   UNL     1      -8.197   5.739  65.913  1.00  0.00    -0.121 A  
HETATM   26  C   UNL     1      -8.364   3.383  66.559  1.00  0.00    -0.102 A  
HETATM   27  C   UNL     1      -7.426   6.697  65.086  1.00  0.00    -0.087 C  
HETATM   28  O   UNL     1      -7.253   6.156  63.858  1.00  0.00    -0.053 OA 
HETATM   29  O   UNL     1      -6.936   7.751  65.439  1.00  0.00    -0.054 OA 
ENDBRANCH  20  21
ENDBRANCH  14  15
ENDBRANCH   8  14
BRANCH  11  30
HETATM   30  C   UNL     1      -6.386   9.965  70.621  1.00  0.00    -0.104 A  
HETATM   31  C   UNL     1      -5.395   8.417  73.644  1.00  0.00    -0.065 A  
HETATM   32  C   UNL     1      -5.125   7.059  73.861  1.00  0.00    -0.042 A  
HETATM   33  N   UNL     1      -6.100  10.088  71.908  1.00  0.00    -0.254 NA 
HETATM   34  C   UNL     1      -6.593   8.058  68.956  1.00  0.00    -0.048 C  
HETATM   35  C   UNL     1      -5.777   8.836  72.360  1.00  0.00    -0.067 A  
HETATM   36  C   UNL     1      -5.229   6.138  72.820  1.00  0.00    -0.031 A  
HETATM   37  N   UNL     1      -6.274   8.633  70.243  1.00  0.00    -0.037 NA 
HETATM   38  C   UNL     1      -5.873   7.899  71.339  1.00  0.00    -0.034 A  
HETATM   39  C   UNL     1      -5.605   6.539  71.534  1.00  0.00    -0.028 A  
ENDBRANCH  11  30
ENDBRANCH   3   4
ENDBRANCH   2   3
TORSDOF 6
ENDMDL
MODEL      130
REMARK 921   NORMALIZED FREE ENERGY PREDICTED BY IDOCK:   -3.57 KCAL/MOL
REMARK 922        TOTAL FREE ENERGY PREDICTED BY IDOCK:   -6.82 KCAL/MOL
REMARK 923 INTER-LIGAND FREE ENERGY PREDICTED BY IDOCK:   -5.72 KCAL/MOL
REMARK 924 INTRA-LIGAND FREE ENERGY PREDICTED BY IDOCK:   -1.11 KCAL/MOL
REMARK 927      BINDING AFFINITY PREDICTED BY RF-SCORE:    0.00 PKD
ROOT
HETATM    1  C   UNL     1      -7.035  14.949  70.706  1.00  0.00     0.617 C  
HETATM    2  C   UNL     1      -6.000  14.081  71.410  1.00  0.00    -0.114 C  
ENDROOT
BRANCH   2   3
HETATM    3  C   UNL     1      -5.156  13.229  70.452  1.00  0.00    -0.104 C  
BRANCH   3   4
HETATM    4  C   UNL     1      -5.845  11.960  70.067  1.00  0.00    -0.150 A  
HETATM    5  N   UNL     1      -6.195  11.033  70.940  1.00  0.00    -0.341 NA 
HETATM    6  C   UNL     1      -6.691   9.983  70.214  1.00  0.00    -0.137 A  
HETATM    7  C   UNL     1      -6.683  10.291  68.862  1.00  0.00    -0.057 A  
HETATM    8  N   UNL     1      -6.195  11.580  68.784  1.00  0.00    -0.049 NA 
HETATM    9  C   UNL     1      -7.081   9.378  67.884  1.00  0.00    -0.081 A  
HETATM   10  C   UNL     1      -7.134   8.719  70.650  1.00  0.00    -0.063 A  
HETATM   11  C   UNL     1      -7.604   8.145  68.291  1.00  0.00    -0.102 A  
HETATM   12  C   UNL     1      -7.098   8.322  72.096  1.00  0.00    -0.103 C  
HETATM   13  C   UNL     1      -7.599   7.822  69.660  1.00  0.00    -0.092 A  
BRANCH   8  14
HETATM   14  C   UNL     1      -5.938  12.284  67.527  1.00  0.00    -0.136 C  
BRANCH  14  15
HETATM   15  C   UNL     1      -6.635  13.622  67.344  1.00  0.00     0.011 A  
HETATM   16  C   UNL     1      -8.020  13.776  67.327  1.00  0.00    -0.135 A  
HETATM   17  C   UNL     1      -6.461  16.081  67.376  1.00  0.00    -0.214 A  
HETATM   18  C   UNL     1      -5.866  14.801  67.338  1.00  0.00     0.257 A  
HETATM   19  C   UNL     1      -8.605  15.060  67.322  1.00  0.00    -0.226 A  
HETATM   20  C   UNL     1      -7.852  16.254  67.380  1.00  0.00    -0.184 A  
BRANCH  20  21
HETATM   21  C   UNL     1      -8.537  17.588  67.505  1.00  0.00    -0.222 A  
HETATM   22  C   UNL     1     -10.438  18.857  68.462  1.00  0.00    -0.197 A  
HETATM   23  C   UNL     1      -9.694  17.673  68.309  1.00  0.00    -0.315 A  
HETATM   24  C   UNL     1      -8.891  19.993  67.061  1.00  0.00    -0.433 A  
HETATM   25  C   UNL     1      -8.131  18.801  66.902  1.00  0.00    -0.267 A  
HETATM   26  C   UNL     1     -10.052  20.010  67.821  1.00  0.00    -0.563 A  
HETATM   27  C   UNL     1      -6.942  18.941  66.029  1.00  0.00    -0.262 C  
HETATM   28  O   UNL     1      -6.299  20.082  66.363  1.00  0.00    -0.183 OA 
HETATM   29  O   UNL     1      -6.619  18.226  65.100  1.00  0.00    -0.438 OA 
ENDBRANCH  20  21
ENDBRANCH  14  15
ENDBRANCH   8  14
BRANCH  11  30
HETATM   30  C   UNL     1      -8.133   7.179  67.313  1.00  0.00    -0.115 A  
HETATM   31  C   UNL     1     -10.361   4.723  66.083  1.00  0.00    -0.337 A  
HETATM   32  C   UNL     1     -10.348   4.109  64.824  1.00  0.00    -0.206 A  
HETATM   33  N   UNL     1      -9.196   6.418  67.522  1.00  0.00    -0.113 NA 
HETATM   34  C   UNL     1      -6.561   7.654  65.375  1.00  0.00    -0.045 C  
HETATM   35  C   UNL     1      -9.381   5.681  66.381  1.00  0.00    -0.154 A  
HETATM   36  C   UNL     1      -9.375   4.440  63.882  1.00  0.00    -0.109 A  
HETATM   37  N   UNL     1      -7.644   6.957  66.031  1.00  0.00    -0.090 NA 
HETATM   38  C   UNL     1      -8.422   5.994  65.427  1.00  0.00    -0.145 A  
HETATM   39  C   UNL     1      -8.389   5.391  64.163  1.00  0.00    -0.118 A  
ENDBRANCH  11  30
ENDBRANCH   3   4
ENDBRANCH   2   3
TORSDOF 6
ENDMDL
MODEL      131
REMARK 921   NORMALIZED FREE ENERGY PREDICTED BY IDOCK:   -3.54 KCAL/MOL
REMARK 922        TOTAL FREE ENERGY PREDICTED BY IDOCK:   -6.79 KCAL/MOL
REMARK 923 INTER-LIGAND FREE ENERGY PREDICTED BY IDOCK:   -7.73 KCAL/MOL
REMARK 924 INTRA-LIGAND FREE ENERGY PREDICTED BY IDOCK:    0.94 KCAL/MOL
REMARK 927      BINDING AFFINITY PREDICTED BY RF-SCORE:    0.00 PKD
ROOT
HETATM    1  C   UNL     1      -9.039   7.339  73.891  1.00  0.00    -0.276 C  
HETATM    2  C   UNL     1      -9.756   5.997  73.945  1.00  0.00    -0.182 C  
ENDROOT
BRANCH   2   3
HETATM    3  C   UNL     1     -10.795   5.809  72.830  1.00  0.00    -0.298 C  
BRANCH   3   4
HETATM    4  C   UNL     1     -10.995   7.052  72.026  1.00  0.00    -0.232 A  
HETATM    5  N   UNL     1     -11.790   8.037  72.402  1.00  0.00    -0.366 NA 
HETATM    6  C   UNL     1     -11.803   8.940  71.373  1.00  0.00    -0.317 A  
HETATM    7  C   UNL     1     -10.962   8.516  70.355  1.00  0.00    -0.238 A  
HETATM    8  N   UNL     1     -10.405   7.338  70.809  1.00  0.00    -0.202 NA 
HETATM    9  C   UNL     1     -10.828   9.217  69.156  1.00  0.00    -0.154 A  
HETATM   10  C   UNL     1     -12.545  10.129  71.230  1.00  0.00    -0.508 A  
HETATM   11  C   UNL     1     -11.487  10.445  69.018  1.00  0.00    -0.258 A  
HETATM   12  C   UNL     1     -13.515  10.588  72.279  1.00  0.00    -0.140 C  
HETATM   13  C   UNL     1     -12.354  10.870  70.040  1.00  0.00    -0.385 A  
BRANCH   8  14
HETATM   14  C   UNL     1      -9.510   6.496  70.014  1.00  0.00    -0.156 C  
BRANCH  14  15
HETATM   15  C   UNL     1      -8.985   7.096  68.721  1.00  0.00    -0.128 A  
HETATM   16  C   UNL     1      -7.899   7.969  68.657  1.00  0.00    -0.118 A  
HETATM   17  C   UNL     1      -8.932   7.009  66.257  1.00  0.00    -0.175 A  
HETATM   18  C   UNL     1      -9.510   6.648  67.494  1.00  0.00    -0.135 A  
HETATM   19  C   UNL     1      -7.356   8.358  67.414  1.00  0.00    -0.089 A  
HETATM   20  C   UNL     1      -7.828   7.870  66.176  1.00  0.00    -0.094 A  
BRANCH  20  21
HETATM   21  C   UNL     1      -7.123   8.219  64.894  1.00  0.00    -0.079 A  
HETATM   22  C   UNL     1      -6.850   7.725  62.481  1.00  0.00    -0.080 A  
HETATM   23  C   UNL     1      -7.474   7.512  63.722  1.00  0.00    -0.108 A  
HETATM   24  C   UNL     1      -5.504   9.419  63.463  1.00  0.00    -0.071 A  
HETATM   25  C   UNL     1      -6.130   9.213  64.723  1.00  0.00    -0.066 A  
HETATM   26  C   UNL     1      -5.850   8.660  62.354  1.00  0.00    -0.087 A  
HETATM   27  C   UNL     1      -5.621  10.077  65.814  1.00  0.00    -0.061 C  
HETATM   28  O   UNL     1      -5.511  11.339  65.341  1.00  0.00    -0.198 OA 
HETATM   29  O   UNL     1      -5.263   9.733  66.923  1.00  0.00    -0.040 OA 
ENDBRANCH  20  21
ENDBRANCH  14  15
ENDBRANCH   8  14
BRANCH  11  30
HETATM   30  C   UNL     1     -11.306  11.278  67.818  1.00  0.00    -0.285 A  
HETATM   31  C   UNL     1     -11.380  12.014  64.358  1.00  0.00    -0.411 A  
HETATM   32  C   UNL     1     -11.066  13.229  63.735  1.00  0.00    -0.175 A  
HETATM   33  N   UNL     1     -11.549  10.864  66.584  1.00  0.00    -0.071 NA 
HETATM   34  C   UNL     1     -10.651  13.466  68.929  1.00  0.00    -0.155 C  
HETATM   35  C   UNL     1     -11.286  11.924  65.755  1.00  0.00    -0.299 A  
HETATM   36  C   UNL     1     -10.663  14.331  64.488  1.00  0.00    -0.280 A  
HETATM   37  N   UNL     1     -10.912  12.611  67.794  1.00  0.00    -0.225 NA 
HETATM   38  C   UNL     1     -10.882  13.035  66.484  1.00  0.00    -0.279 A  
HETATM   39  C   UNL     1     -10.562  14.258  65.880  1.00  0.00    -0.306 A  
ENDBRANCH  11  30
ENDBRANCH   3   4
ENDBRANCH   2   3
TORSDOF 6
ENDMDL
MODEL      132
REMARK 921   NORMALIZED FREE ENERGY PREDICTED BY IDOCK:   -3.52 KCAL/MOL
REMARK 922        TOTAL FREE ENERGY PREDICTED BY IDOCK:   -6.75 KCAL/MOL
REMARK 923 INTER-LIGAND FREE ENERGY PREDICTED BY IDOCK:   -6.02 KCAL/MOL
REMARK 924 INTRA-LIGAND FREE ENERGY PREDICTED BY IDOCK:   -0.73 KCAL/MOL
REMARK 927      BINDING AFFINITY PREDICTED BY RF-SCORE:    0.00 PKD
ROOT
HETATM    1  C   UNL     1      -6.722   9.123  71.589  1.00  0.00     0.017 C  
HETATM    2  C   UNL     1      -5.994   8.241  70.584  1.00  0.00    -0.032 C  
ENDROOT
BRANCH   2   3
HETATM    3  C   UNL     1      -5.233   9.028  69.508  1.00  0.00    -0.035 C  
BRANCH   3   4
HETATM    4  C   UNL     1      -5.613  10.474  69.490  1.00  0.00    -0.038 A  
HETATM    5  N   UNL     1      -5.282  11.320  70.448  1.00  0.00    -0.087 NA 
HETATM    6  C   UNL     1      -5.892  12.508  70.145  1.00  0.00    -0.160 A  
HETATM    7  C   UNL     1      -6.583  12.397  68.948  1.00  0.00    -0.095 A  
HETATM    8  N   UNL     1      -6.349  11.110  68.508  1.00  0.00    -0.046 NA 
HETATM    9  C   UNL     1      -7.348  13.442  68.427  1.00  0.00    -0.112 A  
HETATM   10  C   UNL     1      -5.925  13.713  70.873  1.00  0.00    -0.110 A  
HETATM   11  C   UNL     1      -7.332  14.678  69.084  1.00  0.00    -0.143 A  
HETATM   12  C   UNL     1      -5.245  13.853  72.203  1.00  0.00    -0.209 C  
HETATM   13  C   UNL     1      -6.647  14.790  70.307  1.00  0.00    -0.109 A  
BRANCH   8  14
HETATM   14  C   UNL     1      -6.959  10.530  67.312  1.00  0.00    -0.087 C  
BRANCH  14  15
HETATM   15  C   UNL     1      -7.481   9.108  67.438  1.00  0.00    -0.084 A  
HETATM   16  C   UNL     1      -6.762   7.982  67.038  1.00  0.00    -0.065 A  
HETATM   17  C   UNL     1      -9.122   7.578  68.457  1.00  0.00    -0.134 A  
HETATM   18  C   UNL     1      -8.686   8.879  68.127  1.00  0.00    -0.134 A  
HETATM   19  C   UNL     1      -7.229   6.684  67.335  1.00  0.00    -0.086 A  
HETATM   20  C   UNL     1      -8.403   6.434  68.080  1.00  0.00    -0.116 A  
BRANCH  20  21
HETATM   21  C   UNL     1      -8.776   5.032  68.477  1.00  0.00    -0.103 A  
HETATM   22  C   UNL     1      -9.526   2.797  67.716  1.00  0.00    -0.176 A  
HETATM   23  C   UNL     1      -9.119   4.117  67.457  1.00  0.00    -0.161 A  
HETATM   24  C   UNL     1      -9.226   3.174  70.042  1.00  0.00    -0.221 A  
HETATM   25  C   UNL     1      -8.811   4.511  69.791  1.00  0.00    -0.129 A  
HETATM   26  C   UNL     1      -9.603   2.330  69.007  1.00  0.00    -0.060 A  
HETATM   27  C   UNL     1      -8.480   5.292  71.006  1.00  0.00    -0.122 C  
HETATM   28  O   UNL     1      -7.724   4.518  71.818  1.00  0.00    -0.085 OA 
HETATM   29  O   UNL     1      -8.876   6.401  71.302  1.00  0.00    -0.138 OA 
ENDBRANCH  20  21
ENDBRANCH  14  15
ENDBRANCH   8  14
BRANCH  11  30
HETATM   30  C   UNL     1      -8.038  15.847  68.531  1.00  0.00    -0.157 A  
HETATM   31  C   UNL     1      -8.436  18.708  66.490  1.00  0.00    -0.302 A  
HETATM   32  C   UNL     1      -9.572  19.518  66.363  1.00  0.00    -0.469 A  
HETATM   33  N   UNL     1      -7.515  16.677  67.642  1.00  0.00    -0.145 NA 
HETATM   34  C   UNL     1     -10.298  15.529  69.645  1.00  0.00    -0.283 C  
HETATM   35  C   UNL     1      -8.479  17.609  67.362  1.00  0.00    -0.221 A  
HETATM   36  C   UNL     1     -10.726  19.242  67.094  1.00  0.00    -0.584 A  
HETATM   37  N   UNL     1      -9.346  16.223  68.808  1.00  0.00    -0.225 NA 
HETATM   38  C   UNL     1      -9.640  17.354  68.079  1.00  0.00    -0.276 A  
HETATM   39  C   UNL     1     -10.786  18.153  67.970  1.00  0.00    -0.297 A  
ENDBRANCH  11  30
ENDBRANCH   3   4
ENDBRANCH   2   3
TORSDOF 6
ENDMDL
MODEL      133
REMARK 921   NORMALIZED FREE ENERGY PREDICTED BY IDOCK:   -3.48 KCAL/MOL
REMARK 922        TOTAL FREE ENERGY PREDICTED BY IDOCK:   -6.71 KCAL/MOL
REMARK 923 INTER-LIGAND FREE ENERGY PREDICTED BY IDOCK:   -6.45 KCAL/MOL
REMARK 924 INTRA-LIGAND FREE ENERGY PREDICTED BY IDOCK:   -0.25 KCAL/MOL
REMARK 927      BINDING AFFINITY PREDICTED BY RF-SCORE:    0.00 PKD
ROOT
HETATM    1  C   UNL     1     -12.558   7.084  70.067  1.00  0.00     0.696 C  
HETATM    2  C   UNL     1     -12.547   7.087  71.590  1.00  0.00    -0.419 C  
ENDROOT
BRANCH   2   3
HETATM    3  C   UNL     1     -11.504   8.035  72.198  1.00  0.00    -0.393 C  
BRANCH   3   4
HETATM    4  C   UNL     1     -11.610   9.420  71.649  1.00  0.00    -0.396 A  
HETATM    5  N   UNL     1     -12.433  10.331  72.138  1.00  0.00    -0.120 NA 
HETATM    6  C   UNL     1     -12.333  11.424  71.319  1.00  0.00    -0.239 A  
HETATM    7  C   UNL     1     -11.395  11.191  70.324  1.00  0.00    -0.148 A  
HETATM    8  N   UNL     1     -10.896   9.930  70.580  1.00  0.00    -0.320 NA 
HETATM    9  C   UNL     1     -11.133  12.116  69.312  1.00  0.00    -0.229 A  
HETATM   10  C   UNL     1     -13.047  12.638  71.349  1.00  0.00    -0.308 A  
HETATM   11  C   UNL     1     -11.764  13.364  69.364  1.00  0.00    -0.382 A  
HETATM   12  C   UNL     1     -14.115  12.903  72.368  1.00  0.00    -0.205 C  
HETATM   13  C   UNL     1     -12.729  13.598  70.361  1.00  0.00    -0.210 A  
BRANCH   8  14
HETATM   14  C   UNL     1      -9.931   9.241  69.723  1.00  0.00    -0.199 C  
BRANCH  14  15
HETATM   15  C   UNL     1      -9.150   8.103  70.359  1.00  0.00    -0.150 A  
HETATM   16  C   UNL     1      -8.441   8.225  71.553  1.00  0.00    -0.179 A  
HETATM   17  C   UNL     1      -8.721   5.678  70.466  1.00  0.00    -0.140 A  
HETATM   18  C   UNL     1      -9.252   6.811  69.812  1.00  0.00    -0.146 A  
HETATM   19  C   UNL     1      -7.877   7.092  72.177  1.00  0.00    -0.091 A  
HETATM   20  C   UNL     1      -8.023   5.779  71.678  1.00  0.00    -0.117 A  
BRANCH  20  21
HETATM   21  C   UNL     1      -7.511   4.600  72.458  1.00  0.00    -0.084 A  
HETATM   22  C   UNL     1      -5.529   3.304  73.190  1.00  0.00     0.000 A  
HETATM   23  C   UNL     1      -6.115   4.397  72.526  1.00  0.00    -0.017 A  
HETATM   24  C   UNL     1      -7.690   2.550  73.828  1.00  0.00    -0.050 A  
HETATM   25  C   UNL     1      -8.292   3.653  73.162  1.00  0.00    -0.087 A  
HETATM   26  C   UNL     1      -6.314   2.368  73.820  1.00  0.00    -0.016 A  
HETATM   27  C   UNL     1      -9.772   3.682  73.231  1.00  0.00    -0.114 C  
HETATM   28  O   UNL     1     -10.144   3.407  74.502  1.00  0.00    -0.136 OA 
HETATM   29  O   UNL     1     -10.553   3.828  72.312  1.00  0.00    -0.076 OA 
ENDBRANCH  20  21
ENDBRANCH  14  15
ENDBRANCH   8  14
BRANCH  11  30
HETATM   30  C   UNL     1     -11.454  14.418  68.383  1.00  0.00    -0.301 A  
HETATM   31  C   UNL     1     -11.205  15.854  65.160  1.00  0.00    -0.228 A  
HETATM   32  C   UNL     1     -10.802  17.155  64.831  1.00  0.00     0.196 A  
HETATM   33  N   UNL     1     -11.601  14.279  67.074  1.00  0.00    -0.367 NA 
HETATM   34  C   UNL     1     -10.834  16.296  69.977  1.00  0.00    -0.329 C  
HETATM   35  C   UNL     1     -11.236  15.474  66.510  1.00  0.00    -0.104 A  
HETATM   36  C   UNL     1     -10.433  18.057  65.828  1.00  0.00    -0.202 A  
HETATM   37  N   UNL     1     -11.021  15.706  68.670  1.00  0.00    -0.277 NA 
HETATM   38  C   UNL     1     -10.864  16.390  67.485  1.00  0.00    -0.249 A  
HETATM   39  C   UNL     1     -10.455  17.694  67.178  1.00  0.00    -0.319 A  
ENDBRANCH  11  30
ENDBRANCH   3   4
ENDBRANCH   2   3
TORSDOF 6
ENDMDL
MODEL      134
REMARK 921   NORMALIZED FREE ENERGY PREDICTED BY IDOCK:   -3.48 KCAL/MOL
REMARK 922        TOTAL FREE ENERGY PREDICTED BY IDOCK:   -6.70 KCAL/MOL
REMARK 923 INTER-LIGAND FREE ENERGY PREDICTED BY IDOCK:   -5.75 KCAL/MOL
REMARK 924 INTRA-LIGAND FREE ENERGY PREDICTED BY IDOCK:   -0.95 KCAL/MOL
REMARK 927      BINDING AFFINITY PREDICTED BY RF-SCORE:    0.00 PKD
ROOT
HETATM    1  C   UNL     1     -10.513   4.630  68.322  1.00  0.00     0.253 C  
HETATM    2  C   UNL     1     -10.616   5.833  67.393  1.00  0.00    -0.340 C  
ENDROOT
BRANCH   2   3
HETATM    3  C   UNL     1     -11.123   7.105  68.086  1.00  0.00    -0.027 C  
BRANCH   3   4
HETATM    4  C   UNL     1     -10.063   8.154  68.191  1.00  0.00    -0.198 A  
HETATM    5  N   UNL     1      -8.771   7.882  68.164  1.00  0.00    -0.126 NA 
HETATM    6  C   UNL     1      -8.121   9.064  68.395  1.00  0.00    -0.108 A  
HETATM    7  C   UNL     1      -9.038  10.096  68.528  1.00  0.00    -0.134 A  
HETATM    8  N   UNL     1     -10.274   9.513  68.336  1.00  0.00    -0.186 NA 
HETATM    9  C   UNL     1      -8.654  11.404  68.829  1.00  0.00    -0.085 A  
HETATM   10  C   UNL     1      -6.743   9.318  68.541  1.00  0.00    -0.058 A  
HETATM   11  C   UNL     1      -7.288  11.703  68.896  1.00  0.00    -0.107 A  
HETATM   12  C   UNL     1      -5.723   8.219  68.471  1.00  0.00    -0.037 C  
HETATM   13  C   UNL     1      -6.355  10.657  68.780  1.00  0.00    -0.047 A  
BRANCH   8  14
HETATM   14  C   UNL     1     -11.545  10.225  68.470  1.00  0.00    -0.003 C  
BRANCH  14  15
HETATM   15  C   UNL     1     -11.550  11.687  68.056  1.00  0.00    -0.383 A  
HETATM   16  C   UNL     1     -12.028  12.718  68.863  1.00  0.00    -0.286 A  
HETATM   17  C   UNL     1     -10.700  13.417  66.519  1.00  0.00    -0.287 A  
HETATM   18  C   UNL     1     -10.909  12.064  66.861  1.00  0.00    -0.302 A  
HETATM   19  C   UNL     1     -11.852  14.068  68.492  1.00  0.00    -0.399 A  
HETATM   20  C   UNL     1     -11.156  14.468  67.330  1.00  0.00    -0.317 A  
BRANCH  20  21
HETATM   21  C   UNL     1     -10.887  15.922  67.058  1.00  0.00    -0.252 A  
HETATM   22  C   UNL     1     -10.043  18.073  67.952  1.00  0.00    -0.360 A  
HETATM   23  C   UNL     1     -10.298  16.697  68.081  1.00  0.00    -0.303 A  
HETATM   24  C   UNL     1     -10.893  18.009  65.735  1.00  0.00     0.039 A  
HETATM   25  C   UNL     1     -11.153  16.616  65.854  1.00  0.00     0.210 A  
HETATM   26  C   UNL     1     -10.361  18.736  66.790  1.00  0.00    -0.464 A  
HETATM   27  C   UNL     1     -11.758  15.996  64.652  1.00  0.00    -0.073 C  
HETATM   28  O   UNL     1     -11.093  16.443  63.562  1.00  0.00     0.049 OA 
HETATM   29  O   UNL     1     -12.740  15.282  64.603  1.00  0.00    -0.147 OA 
ENDBRANCH  20  21
ENDBRANCH  14  15
ENDBRANCH   8  14
BRANCH  11  30
HETATM   30  C   UNL     1      -6.818  13.083  69.111  1.00  0.00    -0.058 A  
HETATM   31  C   UNL     1      -6.533  16.540  68.417  1.00  0.00    -0.133 A  
HETATM   32  C   UNL     1      -5.845  17.508  69.161  1.00  0.00    -0.202 A  
HETATM   33  N   UNL     1      -7.126  14.102  68.324  1.00  0.00    -0.100 NA 
HETATM   34  C   UNL     1      -5.578  12.759  71.304  1.00  0.00    -0.004 C  
HETATM   35  C   UNL     1      -6.525  15.209  68.864  1.00  0.00    -0.098 A  
HETATM   36  C   UNL     1      -5.158  17.157  70.322  1.00  0.00    -0.217 A  
HETATM   37  N   UNL     1      -6.041  13.530  70.172  1.00  0.00    -0.142 NA 
HETATM   38  C   UNL     1      -5.834  14.884  70.023  1.00  0.00    -0.134 A  
HETATM   39  C   UNL     1      -5.137  15.835  70.779  1.00  0.00    -0.178 A  
ENDBRANCH  11  30
ENDBRANCH   3   4
ENDBRANCH   2   3
TORSDOF 6
ENDMDL
MODEL      135
REMARK 921   NORMALIZED FREE ENERGY PREDICTED BY IDOCK:   -3.43 KCAL/MOL
REMARK 922        TOTAL FREE ENERGY PREDICTED BY IDOCK:   -6.63 KCAL/MOL
REMARK 923 INTER-LIGAND FREE ENERGY PREDICTED BY IDOCK:   -6.52 KCAL/MOL
REMARK 924 INTRA-LIGAND FREE ENERGY PREDICTED BY IDOCK:   -0.11 KCAL/MOL
REMARK 927      BINDING AFFINITY PREDICTED BY RF-SCORE:    0.00 PKD
ROOT
HETATM    1  C   UNL     1     -12.269  15.286  72.258  1.00  0.00    -0.466 C  
HETATM    2  C   UNL     1     -12.660  14.111  71.371  1.00  0.00    -0.445 C  
ENDROOT
BRANCH   2   3
HETATM    3  C   UNL     1     -13.588  13.101  72.060  1.00  0.00    -0.554 C  
BRANCH   3   4
HETATM    4  C   UNL     1     -13.260  11.689  71.694  1.00  0.00    -0.272 A  
HETATM    5  N   UNL     1     -13.814  10.643  72.280  1.00  0.00     0.128 NA 
HETATM    6  C   UNL     1     -13.192   9.537  71.766  1.00  0.00    -0.422 A  
HETATM    7  C   UNL     1     -12.260   9.913  70.811  1.00  0.00    -0.291 A  
HETATM    8  N   UNL     1     -12.354  11.287  70.730  1.00  0.00    -0.386 NA 
HETATM    9  C   UNL     1     -11.436   8.989  70.165  1.00  0.00    -0.078 A  
HETATM   10  C   UNL     1     -13.353   8.178  72.102  1.00  0.00    -0.249 A  
HETATM   11  C   UNL     1     -11.631   7.626  70.416  1.00  0.00    -0.138 A  
HETATM   12  C   UNL     1     -14.302   7.735  73.175  1.00  0.00     1.174 C  
HETATM   13  C   UNL     1     -12.563   7.241  71.396  1.00  0.00    -0.423 A  
BRANCH   8  14
HETATM   14  C   UNL     1     -11.487  12.121  69.896  1.00  0.00    -0.133 C  
BRANCH  14  15
HETATM   15  C   UNL     1     -10.858  11.448  68.687  1.00  0.00    -0.249 A  
HETATM   16  C   UNL     1     -11.530  11.237  67.484  1.00  0.00    -0.324 A  
HETATM   17  C   UNL     1      -8.797  10.714  67.552  1.00  0.00    -0.132 A  
HETATM   18  C   UNL     1      -9.484  11.148  68.707  1.00  0.00    -0.173 A  
HETATM   19  C   UNL     1     -10.843  10.762  66.347  1.00  0.00    -0.172 A  
HETATM   20  C   UNL     1      -9.452  10.515  66.328  1.00  0.00    -0.217 A  
BRANCH  20  21
HETATM   21  C   UNL     1      -8.756  10.136  65.050  1.00  0.00    -0.190 A  
HETATM   22  C   UNL     1      -8.308  10.724  62.685  1.00  0.00    -0.212 A  
HETATM   23  C   UNL     1      -8.879  11.001  63.939  1.00  0.00     0.017 A  
HETATM   24  C   UNL     1      -7.389   8.716  63.560  1.00  0.00    -0.101 A  
HETATM   25  C   UNL     1      -7.960   8.987  64.834  1.00  0.00    -0.126 A  
HETATM   26  C   UNL     1      -7.584   9.572  62.486  1.00  0.00    -0.112 A  
HETATM   27  C   UNL     1      -7.691   7.955  65.863  1.00  0.00    -0.093 C  
HETATM   28  O   UNL     1      -6.384   7.617  65.795  1.00  0.00    -0.041 OA 
HETATM   29  O   UNL     1      -8.496   7.413  66.594  1.00  0.00    -0.116 OA 
ENDBRANCH  20  21
ENDBRANCH  14  15
ENDBRANCH   8  14
BRANCH  11  30
HETATM   30  C   UNL     1     -10.862   6.599  69.692  1.00  0.00    -0.286 A  
HETATM   31  C   UNL     1     -10.011   4.549  66.938  1.00  0.00    -0.229 A  
HETATM   32  C   UNL     1      -8.952   3.636  66.846  1.00  0.00    -0.156 A  
HETATM   33  N   UNL     1     -11.120   6.217  68.451  1.00  0.00    -0.323 NA 
HETATM   34  C   UNL     1      -9.074   6.120  71.431  1.00  0.00    -0.143 C  
HETATM   35  C   UNL     1     -10.182   5.272  68.128  1.00  0.00    -0.140 A  
HETATM   36  C   UNL     1      -8.084   3.443  67.920  1.00  0.00    -0.082 A  
HETATM   37  N   UNL     1      -9.744   5.924  70.166  1.00  0.00    -0.164 NA 
HETATM   38  C   UNL     1      -9.304   5.063  69.184  1.00  0.00    -0.122 A  
HETATM   39  C   UNL     1      -8.242   4.153  69.114  1.00  0.00    -0.078 A  
ENDBRANCH  11  30
ENDBRANCH   3   4
ENDBRANCH   2   3
TORSDOF 6
ENDMDL
MODEL      136
REMARK 921   NORMALIZED FREE ENERGY PREDICTED BY IDOCK:   -3.39 KCAL/MOL
REMARK 922        TOTAL FREE ENERGY PREDICTED BY IDOCK:   -6.58 KCAL/MOL
REMARK 923 INTER-LIGAND FREE ENERGY PREDICTED BY IDOCK:   -5.67 KCAL/MOL
REMARK 924 INTRA-LIGAND FREE ENERGY PREDICTED BY IDOCK:   -0.91 KCAL/MOL
REMARK 927      BINDING AFFINITY PREDICTED BY RF-SCORE:    0.00 PKD
ROOT
HETATM    1  C   UNL     1     -10.881   4.862  68.082  1.00  0.00     0.650 C  
HETATM    2  C   UNL     1      -9.895   5.744  67.330  1.00  0.00    -0.158 C  
ENDROOT
BRANCH   2   3
HETATM    3  C   UNL     1     -10.427   7.154  67.038  1.00  0.00    -0.392 C  
BRANCH   3   4
HETATM    4  C   UNL     1      -9.445   8.218  67.411  1.00  0.00    -0.151 A  
HETATM    5  N   UNL     1      -8.141   8.016  67.453  1.00  0.00    -0.121 NA 
HETATM    6  C   UNL     1      -7.585   9.170  67.937  1.00  0.00    -0.085 A  
HETATM    7  C   UNL     1      -8.572  10.119  68.160  1.00  0.00    -0.118 A  
HETATM    8  N   UNL     1      -9.750   9.520  67.764  1.00  0.00    -0.143 NA 
HETATM    9  C   UNL     1      -8.294  11.371  68.709  1.00  0.00    -0.096 A  
HETATM   10  C   UNL     1      -6.241   9.460  68.244  1.00  0.00    -0.053 A  
HETATM   11  C   UNL     1      -6.959  11.719  68.946  1.00  0.00    -0.109 A  
HETATM   12  C   UNL     1      -5.153   8.440  68.079  1.00  0.00    -0.034 C  
HETATM   13  C   UNL     1      -5.957  10.755  68.738  1.00  0.00    -0.039 A  
BRANCH   8  14
HETATM   14  C   UNL     1     -11.070  10.137  67.903  1.00  0.00    -0.238 C  
BRANCH  14  15
HETATM   15  C   UNL     1     -11.164  11.618  67.578  1.00  0.00    -0.355 A  
HETATM   16  C   UNL     1     -11.586  12.585  68.490  1.00  0.00    -0.364 A  
HETATM   17  C   UNL     1     -10.532  13.461  66.067  1.00  0.00    -0.294 A  
HETATM   18  C   UNL     1     -10.662  12.084  66.348  1.00  0.00    -0.294 A  
HETATM   19  C   UNL     1     -11.492  13.958  68.182  1.00  0.00    -0.346 A  
HETATM   20  C   UNL     1     -10.933  14.447  66.980  1.00  0.00    -0.304 A  
BRANCH  20  21
HETATM   21  C   UNL     1     -10.740  15.923  66.768  1.00  0.00    -0.281 A  
HETATM   22  C   UNL     1     -10.687  17.790  65.140  1.00  0.00     0.400 A  
HETATM   23  C   UNL     1     -10.888  16.436  65.460  1.00  0.00    -0.224 A  
HETATM   24  C   UNL     1     -10.227  18.250  67.425  1.00  0.00    -0.385 A  
HETATM   25  C   UNL     1     -10.430  16.883  67.760  1.00  0.00    -0.340 A  
HETATM   26  C   UNL     1     -10.334  18.694  66.114  1.00  0.00    -0.481 A  
HETATM   27  C   UNL     1     -10.241  16.565  69.195  1.00  0.00    -0.298 C  
HETATM   28  O   UNL     1     -10.866  17.514  69.928  1.00  0.00     0.278 OA 
HETATM   29  O   UNL     1      -9.569  15.672  69.672  1.00  0.00    -0.277 OA 
ENDBRANCH  20  21
ENDBRANCH  14  15
ENDBRANCH   8  14
BRANCH  11  30
HETATM   30  C   UNL     1      -6.594  13.061  69.431  1.00  0.00    -0.063 A  
HETATM   31  C   UNL     1      -5.220  15.414  71.687  1.00  0.00    -0.018 A  
HETATM   32  C   UNL     1      -5.126  16.803  71.524  1.00  0.00     0.138 A  
HETATM   33  N   UNL     1      -5.996  13.294  70.590  1.00  0.00    -0.141 NA 
HETATM   34  C   UNL     1      -7.287  14.433  67.409  1.00  0.00    -0.142 C  
HETATM   35  C   UNL     1      -5.805  14.649  70.667  1.00  0.00    -0.167 A  
HETATM   36  C   UNL     1      -5.610  17.417  70.370  1.00  0.00    -0.200 A  
HETATM   37  N   UNL     1      -6.767  14.257  68.746  1.00  0.00    -0.089 NA 
HETATM   38  C   UNL     1      -6.281  15.283  69.527  1.00  0.00    -0.131 A  
HETATM   39  C   UNL     1      -6.199  16.670  69.345  1.00  0.00    -0.205 A  
ENDBRANCH  11  30
ENDBRANCH   3   4
ENDBRANCH   2   3
TORSDOF 6
ENDMDL
MODEL      137
REMARK 921   NORMALIZED FREE ENERGY PREDICTED BY IDOCK:   -3.35 KCAL/MOL
REMARK 922        TOTAL FREE ENERGY PREDICTED BY IDOCK:   -6.53 KCAL/MOL
REMARK 923 INTER-LIGAND FREE ENERGY PREDICTED BY IDOCK:   -7.02 KCAL/MOL
REMARK 924 INTRA-LIGAND FREE ENERGY PREDICTED BY IDOCK:    0.49 KCAL/MOL
REMARK 927      BINDING AFFINITY PREDICTED BY RF-SCORE:    0.00 PKD
ROOT
HETATM    1  C   UNL     1      -9.268  20.235  66.966  1.00  0.00    -0.503 C  
HETATM    2  C   UNL     1     -10.034  19.042  66.412  1.00  0.00    -0.447 C  
ENDROOT
BRANCH   2   3
HETATM    3  C   UNL     1     -10.647  18.144  67.496  1.00  0.00    -0.419 C  
BRANCH   3   4
HETATM    4  C   UNL     1      -9.695  17.090  67.962  1.00  0.00    -0.260 A  
HETATM    5  N   UNL     1      -8.514  17.362  68.485  1.00  0.00    -0.269 NA 
HETATM    6  C   UNL     1      -7.891  16.159  68.684  1.00  0.00    -0.188 A  
HETATM    7  C   UNL     1      -8.729  15.120  68.309  1.00  0.00    -0.171 A  
HETATM    8  N   UNL     1      -9.902  15.724  67.905  1.00  0.00    -0.217 NA 
HETATM    9  C   UNL     1      -8.328  13.783  68.351  1.00  0.00    -0.152 A  
HETATM   10  C   UNL     1      -6.589  15.887  69.149  1.00  0.00    -0.158 A  
HETATM   11  C   UNL     1      -7.072  13.476  68.887  1.00  0.00    -0.093 A  
HETATM   12  C   UNL     1      -5.629  16.984  69.501  1.00  0.00    -0.183 C  
HETATM   13  C   UNL     1      -6.212  14.527  69.252  1.00  0.00    -0.112 A  
BRANCH   8  14
HETATM   14  C   UNL     1     -11.045  15.002  67.346  1.00  0.00    -0.324 C  
BRANCH  14  15
HETATM   15  C   UNL     1     -11.041  13.491  67.512  1.00  0.00    -0.293 A  
HETATM   16  C   UNL     1     -11.046  12.595  66.444  1.00  0.00    -0.325 A  
HETATM   17  C   UNL     1     -10.656  11.563  68.999  1.00  0.00    -0.207 A  
HETATM   18  C   UNL     1     -10.872  12.943  68.798  1.00  0.00    -0.277 A  
HETATM   19  C   UNL     1     -10.872  11.212  66.660  1.00  0.00    -0.308 A  
HETATM   20  C   UNL     1     -10.638  10.650  67.935  1.00  0.00    -0.266 A  
BRANCH  20  21
HETATM   21  C   UNL     1     -10.329   9.186  68.083  1.00  0.00    -0.263 A  
HETATM   22  C   UNL     1     -10.583   7.147  69.468  1.00  0.00    -0.247 A  
HETATM   23  C   UNL     1     -10.846   8.503  69.207  1.00  0.00    -0.072 A  
HETATM   24  C   UNL     1      -9.308   7.021  67.468  1.00  0.00    -0.134 A  
HETATM   25  C   UNL     1      -9.568   8.392  67.193  1.00  0.00    -0.233 A  
HETATM   26  C   UNL     1      -9.796   6.411  68.614  1.00  0.00    -0.152 A  
HETATM   27  C   UNL     1      -8.943   8.901  65.950  1.00  0.00    -0.200 C  
HETATM   28  O   UNL     1      -9.142   7.991  64.969  1.00  0.00     0.175 OA 
HETATM   29  O   UNL     1      -8.278   9.909  65.817  1.00  0.00    -0.119 OA 
ENDBRANCH  20  21
ENDBRANCH  14  15
ENDBRANCH   8  14
BRANCH  11  30
HETATM   30  C   UNL     1      -6.631  12.080  69.050  1.00  0.00    -0.092 A  
HETATM   31  C   UNL     1      -6.189   9.014  70.757  1.00  0.00    -0.048 A  
HETATM   32  C   UNL     1      -5.631   7.829  70.258  1.00  0.00    -0.023 A  
HETATM   33  N   UNL     1      -6.785  11.379  70.162  1.00  0.00    -0.127 NA 
HETATM   34  C   UNL     1      -5.801  11.632  66.691  1.00  0.00    -0.108 C  
HETATM   35  C   UNL     1      -6.275  10.131  69.913  1.00  0.00    -0.063 A  
HETATM   36  C   UNL     1      -5.164   7.761  68.947  1.00  0.00    -0.022 A  
HETATM   37  N   UNL     1      -6.048  11.283  68.072  1.00  0.00    -0.049 NA 
HETATM   38  C   UNL     1      -5.802  10.039  68.610  1.00  0.00    -0.041 A  
HETATM   39  C   UNL     1      -5.239   8.866  68.093  1.00  0.00    -0.034 A  
ENDBRANCH  11  30
ENDBRANCH   3   4
ENDBRANCH   2   3
TORSDOF 6
ENDMDL
MODEL      138
REMARK 921   NORMALIZED FREE ENERGY PREDICTED BY IDOCK:   -3.27 KCAL/MOL
REMARK 922        TOTAL FREE ENERGY PREDICTED BY IDOCK:   -6.42 KCAL/MOL
REMARK 923 INTER-LIGAND FREE ENERGY PREDICTED BY IDOCK:   -8.04 KCAL/MOL
REMARK 924 INTRA-LIGAND FREE ENERGY PREDICTED BY IDOCK:    1.62 KCAL/MOL
REMARK 927      BINDING AFFINITY PREDICTED BY RF-SCORE:    0.00 PKD
ROOT
HETATM    1  C   UNL     1     -10.002   5.170  74.136  1.00  0.00    -0.216 C  
HETATM    2  C   UNL     1     -11.317   4.540  73.699  1.00  0.00    -0.288 C  
ENDROOT
BRANCH   2   3
HETATM    3  C   UNL     1     -11.817   5.038  72.336  1.00  0.00     0.279 C  
BRANCH   3   4
HETATM    4  C   UNL     1     -10.832   5.942  71.668  1.00  0.00    -0.263 A  
HETATM    5  N   UNL     1      -9.711   5.510  71.120  1.00  0.00    -0.169 NA 
HETATM    6  C   UNL     1      -9.024   6.623  70.713  1.00  0.00    -0.151 A  
HETATM    7  C   UNL     1      -9.762   7.765  70.984  1.00  0.00    -0.163 A  
HETATM    8  N   UNL     1     -10.942   7.314  71.540  1.00  0.00    -0.232 NA 
HETATM    9  C   UNL     1      -9.276   9.048  70.727  1.00  0.00    -0.299 A  
HETATM   10  C   UNL     1      -7.743   6.727  70.137  1.00  0.00    -0.101 A  
HETATM   11  C   UNL     1      -8.043   9.180  70.078  1.00  0.00    -0.130 A  
HETATM   12  C   UNL     1      -6.886   5.521  69.889  1.00  0.00    -0.060 C  
HETATM   13  C   UNL     1      -7.283   8.026  69.817  1.00  0.00    -0.065 A  
BRANCH   8  14
HETATM   14  C   UNL     1     -11.992   8.193  72.057  1.00  0.00    -0.340 C  
BRANCH  14  15
HETATM   15  C   UNL     1     -12.160   9.532  71.360  1.00  0.00    -0.459 A  
HETATM   16  C   UNL     1     -12.517  10.708  72.019  1.00  0.00    -0.009 A  
HETATM   17  C   UNL     1     -11.734  10.903  69.356  1.00  0.00    -0.397 A  
HETATM   18  C   UNL     1     -11.797   9.651  70.005  1.00  0.00    -0.009 A  
HETATM   19  C   UNL     1     -12.492  11.949  71.349  1.00  0.00    -0.261 A  
HETATM   20  C   UNL     1     -12.070  12.097  70.009  1.00  0.00    -0.352 A  
BRANCH  20  21
HETATM   21  C   UNL     1     -11.941  13.463  69.392  1.00  0.00    -0.369 A  
HETATM   22  C   UNL     1     -11.175  14.789  67.444  1.00  0.00    -0.346 A  
HETATM   23  C   UNL     1     -11.384  13.562  68.097  1.00  0.00    -0.319 A  
HETATM   24  C   UNL     1     -12.120  15.926  69.303  1.00  0.00    -0.166 A  
HETATM   25  C   UNL     1     -12.338  14.690  69.972  1.00  0.00    -0.365 A  
HETATM   26  C   UNL     1     -11.520  15.972  68.053  1.00  0.00    -0.199 A  
HETATM   27  C   UNL     1     -12.952  14.816  71.315  1.00  0.00    -0.346 C  
HETATM   28  O   UNL     1     -13.972  15.700  71.235  1.00  0.00    -0.570 OA 
HETATM   29  O   UNL     1     -12.576  14.304  72.351  1.00  0.00    -0.301 OA 
ENDBRANCH  20  21
ENDBRANCH  14  15
ENDBRANCH   8  14
BRANCH  11  30
HETATM   30  C   UNL     1      -7.522  10.503  69.690  1.00  0.00    -0.141 A  
HETATM   31  C   UNL     1      -5.455  13.361  69.955  1.00  0.00    -0.099 A  
HETATM   32  C   UNL     1      -5.402  14.462  69.089  1.00  0.00    -0.081 A  
HETATM   33  N   UNL     1      -6.575  11.150  70.352  1.00  0.00    -0.239 NA 
HETATM   34  C   UNL     1      -8.822  10.843  67.535  1.00  0.00    -0.133 C  
HETATM   35  C   UNL     1      -6.352  12.319  69.673  1.00  0.00    -0.111 A  
HETATM   36  C   UNL     1      -6.230  14.526  67.970  1.00  0.00    -0.162 A  
HETATM   37  N   UNL     1      -7.895  11.237  68.571  1.00  0.00    -0.131 NA 
HETATM   38  C   UNL     1      -7.167  12.406  68.552  1.00  0.00    -0.103 A  
HETATM   39  C   UNL     1      -7.132  13.499  67.676  1.00  0.00    -0.176 A  
ENDBRANCH  11  30
ENDBRANCH   3   4
ENDBRANCH   2   3
TORSDOF 6
ENDMDL
MODEL      139
REMARK 921   NORMALIZED FREE ENERGY PREDICTED BY IDOCK:   -3.19 KCAL/MOL
REMARK 922        TOTAL FREE ENERGY PREDICTED BY IDOCK:   -6.31 KCAL/MOL
REMARK 923 INTER-LIGAND FREE ENERGY PREDICTED BY IDOCK:   -5.16 KCAL/MOL
REMARK 924 INTRA-LIGAND FREE ENERGY PREDICTED BY IDOCK:   -1.15 KCAL/MOL
REMARK 927      BINDING AFFINITY PREDICTED BY RF-SCORE:    0.00 PKD
ROOT
HETATM    1  C   UNL     1     -10.790   5.622  72.502  1.00  0.00    -0.299 C  
HETATM    2  C   UNL     1     -11.104   6.876  71.697  1.00  0.00    -0.271 C  
ENDROOT
BRANCH   2   3
HETATM    3  C   UNL     1      -9.867   7.727  71.373  1.00  0.00    -0.195 C  
BRANCH   3   4
HETATM    4  C   UNL     1     -10.229   9.115  70.954  1.00  0.00    -0.282 A  
HETATM    5  N   UNL     1     -11.334   9.723  71.344  1.00  0.00    -0.367 NA 
HETATM    6  C   UNL     1     -11.375  10.918  70.677  1.00  0.00    -0.004 A  
HETATM    7  C   UNL     1     -10.245  11.064  69.888  1.00  0.00     0.405 A  
HETATM    8  N   UNL     1      -9.490   9.932  70.118  1.00  0.00    -0.218 NA 
HETATM    9  C   UNL     1     -10.053  12.165  69.052  1.00  0.00     0.094 A  
HETATM   10  C   UNL     1     -12.374  11.912  70.675  1.00  0.00    -0.405 A  
HETATM   11  C   UNL     1     -10.986  13.208  69.091  1.00  0.00    -0.194 A  
HETATM   12  C   UNL     1     -13.641  11.763  71.463  1.00  0.00     0.301 C  
HETATM   13  C   UNL     1     -12.143  13.057  69.877  1.00  0.00    -0.347 A  
BRANCH   8  14
HETATM   14  C   UNL     1      -8.240   9.625  69.422  1.00  0.00    -0.132 C  
BRANCH  14  15
HETATM   15  C   UNL     1      -8.319   8.595  68.308  1.00  0.00    -0.127 A  
HETATM   16  C   UNL     1      -7.301   7.687  68.020  1.00  0.00    -0.099 A  
HETATM   17  C   UNL     1      -9.735   7.362  66.711  1.00  0.00    -0.271 A  
HETATM   18  C   UNL     1      -9.531   8.430  67.611  1.00  0.00    -0.176 A  
HETATM   19  C   UNL     1      -7.501   6.649  67.086  1.00  0.00    -0.088 A  
HETATM   20  C   UNL     1      -8.729   6.428  66.424  1.00  0.00    -0.140 A  
BRANCH  20  21
HETATM   21  C   UNL     1      -8.920   5.226  65.540  1.00  0.00    -0.158 A  
HETATM   22  C   UNL     1     -10.093   3.069  65.205  1.00  0.00     0.319 A  
HETATM   23  C   UNL     1      -9.865   4.251  65.931  1.00  0.00    -0.230 A  
HETATM   24  C   UNL     1      -8.488   3.763  63.596  1.00  0.00    -0.092 A  
HETATM   25  C   UNL     1      -8.251   4.963  64.322  1.00  0.00    -0.121 A  
HETATM   26  C   UNL     1      -9.390   2.812  64.051  1.00  0.00    -0.120 A  
HETATM   27  C   UNL     1      -7.231   5.855  63.723  1.00  0.00    -0.056 C  
HETATM   28  O   UNL     1      -7.462   5.934  62.393  1.00  0.00    -0.052 OA 
HETATM   29  O   UNL     1      -6.280   6.368  64.279  1.00  0.00    -0.029 OA 
ENDBRANCH  20  21
ENDBRANCH  14  15
ENDBRANCH   8  14
BRANCH  11  30
HETATM   30  C   UNL     1     -10.789  14.440  68.308  1.00  0.00    -0.242 A  
HETATM   31  C   UNL     1     -10.947  16.497  65.435  1.00  0.00    -0.137 A  
HETATM   32  C   UNL     1     -10.562  17.840  65.321  1.00  0.00     0.227 A  
HETATM   33  N   UNL     1     -11.115  14.567  67.031  1.00  0.00    -0.313 NA 
HETATM   34  C   UNL     1      -9.912  15.960  70.144  1.00  0.00     0.091 C  
HETATM   35  C   UNL     1     -10.803  15.852  66.673  1.00  0.00    -0.213 A  
HETATM   36  C   UNL     1     -10.040  18.524  66.418  1.00  0.00    -0.430 A  
HETATM   37  N   UNL     1     -10.289  15.645  68.785  1.00  0.00    -0.211 NA 
HETATM   38  C   UNL     1     -10.280  16.555  67.750  1.00  0.00    -0.278 A  
HETATM   39  C   UNL     1      -9.886  17.896  67.658  1.00  0.00    -0.304 A  
ENDBRANCH  11  30
ENDBRANCH   3   4
ENDBRANCH   2   3
TORSDOF 6
ENDMDL
MODEL      140
REMARK 921   NORMALIZED FREE ENERGY PREDICTED BY IDOCK:   -3.16 KCAL/MOL
REMARK 922        TOTAL FREE ENERGY PREDICTED BY IDOCK:   -6.27 KCAL/MOL
REMARK 923 INTER-LIGAND FREE ENERGY PREDICTED BY IDOCK:   -5.27 KCAL/MOL
REMARK 924 INTRA-LIGAND FREE ENERGY PREDICTED BY IDOCK:   -1.01 KCAL/MOL
REMARK 927      BINDING AFFINITY PREDICTED BY RF-SCORE:    0.00 PKD
ROOT
HETATM    1  C   UNL     1     -10.811   3.311  63.589  1.00  0.00    -0.191 C  
HETATM    2  C   UNL     1     -10.291   4.193  64.716  1.00  0.00    -0.206 C  
ENDROOT
BRANCH   2   3
HETATM    3  C   UNL     1      -8.824   4.610  64.546  1.00  0.00    -0.153 C  
BRANCH   3   4
HETATM    4  C   UNL     1      -8.626   6.078  64.740  1.00  0.00     0.041 A  
HETATM    5  N   UNL     1      -7.789   6.798  64.015  1.00  0.00    -0.115 NA 
HETATM    6  C   UNL     1      -7.796   8.058  64.549  1.00  0.00    -0.138 A  
HETATM    7  C   UNL     1      -8.692   8.123  65.606  1.00  0.00    -0.145 A  
HETATM    8  N   UNL     1      -9.260   6.868  65.681  1.00  0.00     0.119 NA 
HETATM    9  C   UNL     1      -8.859   9.277  66.374  1.00  0.00    -0.169 A  
HETATM   10  C   UNL     1      -7.030   9.187  64.199  1.00  0.00    -0.092 A  
HETATM   11  C   UNL     1      -8.175  10.438  65.998  1.00  0.00    -0.144 A  
HETATM   12  C   UNL     1      -6.004   9.139  63.106  1.00  0.00    -0.089 C  
HETATM   13  C   UNL     1      -7.253  10.372  64.938  1.00  0.00    -0.051 A  
BRANCH   8  14
HETATM   14  C   UNL     1     -10.211   6.460  66.716  1.00  0.00    -0.195 C  
BRANCH  14  15
HETATM   15  C   UNL     1      -9.646   6.247  68.110  1.00  0.00    -0.115 A  
HETATM   16  C   UNL     1     -10.397   6.380  69.278  1.00  0.00    -0.248 A  
HETATM   17  C   UNL     1      -7.828   5.332  69.500  1.00  0.00    -0.084 A  
HETATM   18  C   UNL     1      -8.340   5.743  68.251  1.00  0.00    -0.107 A  
HETATM   19  C   UNL     1      -9.861   6.005  70.528  1.00  0.00    -0.222 A  
HETATM   20  C   UNL     1      -8.576   5.439  70.682  1.00  0.00    -0.130 A  
BRANCH  20  21
HETATM   21  C   UNL     1      -8.113   4.939  72.023  1.00  0.00    -0.111 A  
HETATM   22  C   UNL     1      -6.447   5.145  73.846  1.00  0.00    -0.068 A  
HETATM   23  C   UNL     1      -6.992   5.560  72.618  1.00  0.00    -0.083 A  
HETATM   24  C   UNL     1      -8.138   3.486  74.022  1.00  0.00    -0.075 A  
HETATM   25  C   UNL     1      -8.698   3.899  72.781  1.00  0.00    -0.104 A  
HETATM   26  C   UNL     1      -7.003   4.095  74.537  1.00  0.00    -0.065 A  
HETATM   27  C   UNL     1      -9.885   3.122  72.352  1.00  0.00    -0.157 C  
HETATM   28  O   UNL     1     -10.704   2.972  73.417  1.00  0.00    -0.166 OA 
HETATM   29  O   UNL     1     -10.081   2.611  71.267  1.00  0.00    -0.039 OA 
ENDBRANCH  20  21
ENDBRANCH  14  15
ENDBRANCH   8  14
BRANCH  11  30
HETATM   30  C   UNL     1      -8.385  11.713  66.707  1.00  0.00    -0.171 A  
HETATM   31  C   UNL     1      -7.598  14.314  68.972  1.00  0.00    -0.084 A  
HETATM   32  C   UNL     1      -8.316  15.495  69.201  1.00  0.00    -0.253 A  
HETATM   33  N   UNL     1      -7.558  12.199  67.620  1.00  0.00    -0.129 NA 
HETATM   34  C   UNL     1     -10.487  12.503  65.520  1.00  0.00    -0.279 C  
HETATM   35  C   UNL     1      -8.082  13.399  68.024  1.00  0.00    -0.160 A  
HETATM   36  C   UNL     1      -9.494  15.757  68.503  1.00  0.00    -0.201 A  
HETATM   37  N   UNL     1      -9.429  12.606  66.499  1.00  0.00    -0.246 NA 
HETATM   38  C   UNL     1      -9.258  13.683  67.341  1.00  0.00    -0.222 A  
HETATM   39  C   UNL     1      -9.992  14.856  67.557  1.00  0.00    -0.219 A  
ENDBRANCH  11  30
ENDBRANCH   3   4
ENDBRANCH   2   3
TORSDOF 6
ENDMDL
MODEL      141
REMARK 921   NORMALIZED FREE ENERGY PREDICTED BY IDOCK:   -3.16 KCAL/MOL
REMARK 922        TOTAL FREE ENERGY PREDICTED BY IDOCK:   -6.27 KCAL/MOL
REMARK 923 INTER-LIGAND FREE ENERGY PREDICTED BY IDOCK:   -5.62 KCAL/MOL
REMARK 924 INTRA-LIGAND FREE ENERGY PREDICTED BY IDOCK:   -0.65 KCAL/MOL
REMARK 927      BINDING AFFINITY PREDICTED BY RF-SCORE:    0.00 PKD
ROOT
HETATM    1  C   UNL     1      -9.309  10.566  64.389  1.00  0.00    -0.307 C  
HETATM    2  C   UNL     1      -8.235  10.703  63.318  1.00  0.00    -0.058 C  
ENDROOT
BRANCH   2   3
HETATM    3  C   UNL     1      -7.086   9.696  63.465  1.00  0.00    -0.108 C  
BRANCH   3   4
HETATM    4  C   UNL     1      -7.338   8.704  64.555  1.00  0.00    -0.099 A  
HETATM    5  N   UNL     1      -7.969   7.561  64.361  1.00  0.00    -0.135 NA 
HETATM    6  C   UNL     1      -8.107   6.980  65.593  1.00  0.00    -0.129 A  
HETATM    7  C   UNL     1      -7.510   7.770  66.563  1.00  0.00    -0.088 A  
HETATM    8  N   UNL     1      -6.969   8.840  65.881  1.00  0.00    -0.075 NA 
HETATM    9  C   UNL     1      -7.552   7.447  67.921  1.00  0.00    -0.114 A  
HETATM   10  C   UNL     1      -8.769   5.790  65.956  1.00  0.00    -0.146 A  
HETATM   11  C   UNL     1      -8.128   6.230  68.303  1.00  0.00    -0.112 A  
HETATM   12  C   UNL     1      -9.484   4.942  64.947  1.00  0.00    -0.001 C  
HETATM   13  C   UNL     1      -8.750   5.434  67.325  1.00  0.00    -0.107 A  
BRANCH   8  14
HETATM   14  C   UNL     1      -6.309   9.975  66.527  1.00  0.00    -0.072 C  
BRANCH  14  15
HETATM   15  C   UNL     1      -7.216  11.018  67.159  1.00  0.00    -0.112 A  
HETATM   16  C   UNL     1      -6.983  12.390  67.089  1.00  0.00    -0.079 A  
HETATM   17  C   UNL     1      -9.416  11.541  68.140  1.00  0.00    -0.184 A  
HETATM   18  C   UNL     1      -8.440  10.611  67.723  1.00  0.00    -0.116 A  
HETATM   19  C   UNL     1      -7.947  13.312  67.549  1.00  0.00    -0.186 A  
HETATM   20  C   UNL     1      -9.207  12.926  68.058  1.00  0.00    -0.212 A  
BRANCH  20  21
HETATM   21  C   UNL     1     -10.242  13.958  68.410  1.00  0.00    -0.243 A  
HETATM   22  C   UNL     1     -12.040  14.637  69.973  1.00  0.00    -0.383 A  
HETATM   23  C   UNL     1     -11.016  13.761  69.574  1.00  0.00    -0.081 A  
HETATM   24  C   UNL     1     -11.565  16.023  68.104  1.00  0.00    -0.183 A  
HETATM   25  C   UNL     1     -10.526  15.144  67.692  1.00  0.00    -0.253 A  
HETATM   26  C   UNL     1     -12.332  15.755  69.228  1.00  0.00     0.005 A  
HETATM   27  C   UNL     1      -9.828  15.552  66.450  1.00  0.00    -0.278 C  
HETATM   28  O   UNL     1      -9.567  16.877  66.524  1.00  0.00    -0.252 OA 
HETATM   29  O   UNL     1      -9.596  14.868  65.473  1.00  0.00    -0.296 OA 
ENDBRANCH  20  21
ENDBRANCH  14  15
ENDBRANCH   8  14
BRANCH  11  30
HETATM   30  C   UNL     1      -8.114   5.786  69.708  1.00  0.00    -0.104 A  
HETATM   31  C   UNL     1      -6.635   4.846  72.781  1.00  0.00    -0.056 A  
HETATM   32  C   UNL     1      -7.285   4.514  73.977  1.00  0.00    -0.073 A  
HETATM   33  N   UNL     1      -7.010   5.564  70.405  1.00  0.00    -0.055 NA 
HETATM   34  C   UNL     1     -10.611   5.818  70.175  1.00  0.00    -0.307 C  
HETATM   35  C   UNL     1      -7.409   5.194  71.663  1.00  0.00    -0.083 A  
HETATM   36  C   UNL     1      -8.677   4.523  74.056  1.00  0.00    -0.104 A  
HETATM   37  N   UNL     1      -9.226   5.586  70.517  1.00  0.00    -0.146 NA 
HETATM   38  C   UNL     1      -8.793   5.195  71.766  1.00  0.00    -0.134 A  
HETATM   39  C   UNL     1      -9.463   4.863  72.950  1.00  0.00    -0.152 A  
ENDBRANCH  11  30
ENDBRANCH   3   4
ENDBRANCH   2   3
TORSDOF 6
ENDMDL
MODEL      142
REMARK 921   NORMALIZED FREE ENERGY PREDICTED BY IDOCK:   -3.09 KCAL/MOL
REMARK 922        TOTAL FREE ENERGY PREDICTED BY IDOCK:   -6.17 KCAL/MOL
REMARK 923 INTER-LIGAND FREE ENERGY PREDICTED BY IDOCK:   -7.72 KCAL/MOL
REMARK 924 INTRA-LIGAND FREE ENERGY PREDICTED BY IDOCK:    1.55 KCAL/MOL
REMARK 927      BINDING AFFINITY PREDICTED BY RF-SCORE:    0.00 PKD
ROOT
HETATM    1  C   UNL     1     -11.489  15.888  69.056  1.00  0.00    -0.380 C  
HETATM    2  C   UNL     1     -12.514  15.438  70.089  1.00  0.00    -0.370 C  
ENDROOT
BRANCH   2   3
HETATM    3  C   UNL     1     -12.663  13.913  70.187  1.00  0.00    -0.182 C  
BRANCH   3   4
HETATM    4  C   UNL     1     -11.787  13.195  69.211  1.00  0.00    -0.323 A  
HETATM    5  N   UNL     1     -11.070  13.814  68.291  1.00  0.00    -0.245 NA 
HETATM    6  C   UNL     1     -10.495  12.837  67.524  1.00  0.00    -0.218 A  
HETATM    7  C   UNL     1     -10.838  11.585  68.011  1.00  0.00    -0.213 A  
HETATM    8  N   UNL     1     -11.616  11.826  69.125  1.00  0.00    -0.283 NA 
HETATM    9  C   UNL     1     -10.438  10.403  67.385  1.00  0.00    -0.299 A  
HETATM   10  C   UNL     1      -9.696  12.954  66.370  1.00  0.00    -0.263 A  
HETATM   11  C   UNL     1      -9.574  10.486  66.286  1.00  0.00    -0.232 A  
HETATM   12  C   UNL     1      -9.357  14.288  65.773  1.00  0.00     0.026 C  
HETATM   13  C   UNL     1      -9.238  11.754  65.778  1.00  0.00    -0.148 A  
BRANCH   8  14
HETATM   14  C   UNL     1     -12.269  10.779  69.912  1.00  0.00    -0.313 C  
BRANCH  14  15
HETATM   15  C   UNL     1     -11.381   9.990  70.860  1.00  0.00    -0.439 A  
HETATM   16  C   UNL     1     -11.866   9.253  71.940  1.00  0.00    -0.426 A  
HETATM   17  C   UNL     1      -9.174   8.977  71.286  1.00  0.00    -0.314 A  
HETATM   18  C   UNL     1     -10.011   9.857  70.566  1.00  0.00    -0.164 A  
HETATM   19  C   UNL     1     -11.012   8.409  72.680  1.00  0.00    -0.318 A  
HETATM   20  C   UNL     1      -9.649   8.214  72.363  1.00  0.00    -0.335 A  
BRANCH  20  21
HETATM   21  C   UNL     1      -8.824   7.200  73.108  1.00  0.00    -0.158 A  
HETATM   22  C   UNL     1      -6.752   6.760  74.393  1.00  0.00    -0.083 A  
HETATM   23  C   UNL     1      -7.621   7.629  73.711  1.00  0.00    -0.159 A  
HETATM   24  C   UNL     1      -8.247   4.961  73.979  1.00  0.00    -0.104 A  
HETATM   25  C   UNL     1      -9.134   5.832  73.288  1.00  0.00    -0.133 A  
HETATM   26  C   UNL     1      -7.051   5.423  74.508  1.00  0.00    -0.082 A  
HETATM   27  C   UNL     1     -10.349   5.175  72.750  1.00  0.00    -0.197 C  
HETATM   28  O   UNL     1     -10.850   4.359  73.705  1.00  0.00    -0.231 OA 
HETATM   29  O   UNL     1     -10.795   5.256  71.623  1.00  0.00    -0.203 OA 
ENDBRANCH  20  21
ENDBRANCH  14  15
ENDBRANCH   8  14
BRANCH  11  30
HETATM   30  C   UNL     1      -9.038   9.274  65.643  1.00  0.00    -0.216 A  
HETATM   31  C   UNL     1      -8.621   5.795  65.155  1.00  0.00    -0.110 A  
HETATM   32  C   UNL     1      -7.868   5.155  64.161  1.00  0.00    -0.098 A  
HETATM   33  N   UNL     1      -9.324   8.041  66.030  1.00  0.00    -0.139 NA 
HETATM   34  C   UNL     1      -7.748  10.353  63.740  1.00  0.00    -0.042 C  
HETATM   35  C   UNL     1      -8.658   7.198  65.179  1.00  0.00     0.068 A  
HETATM   36  C   UNL     1      -7.163   5.896  63.215  1.00  0.00    -0.050 A  
HETATM   37  N   UNL     1      -8.210   9.233  64.528  1.00  0.00    -0.142 NA 
HETATM   38  C   UNL     1      -7.948   7.915  64.226  1.00  0.00    -0.130 A  
HETATM   39  C   UNL     1      -7.187   7.295  63.227  1.00  0.00    -0.075 A  
ENDBRANCH  11  30
ENDBRANCH   3   4
ENDBRANCH   2   3
TORSDOF 6
ENDMDL
MODEL      143
REMARK 921   NORMALIZED FREE ENERGY PREDICTED BY IDOCK:   -3.08 KCAL/MOL
REMARK 922        TOTAL FREE ENERGY PREDICTED BY IDOCK:   -6.16 KCAL/MOL
REMARK 923 INTER-LIGAND FREE ENERGY PREDICTED BY IDOCK:   -6.45 KCAL/MOL
REMARK 924 INTRA-LIGAND FREE ENERGY PREDICTED BY IDOCK:    0.29 KCAL/MOL
REMARK 927      BINDING AFFINITY PREDICTED BY RF-SCORE:    0.00 PKD
ROOT
HETATM    1  C   UNL     1     -10.411   4.497  74.486  1.00  0.00    -0.298 C  
HETATM    2  C   UNL     1     -10.371   4.363  72.970  1.00  0.00    -0.241 C  
ENDROOT
BRANCH   2   3
HETATM    3  C   UNL     1      -9.008   4.714  72.356  1.00  0.00    -0.138 C  
BRANCH   3   4
HETATM    4  C   UNL     1      -9.128   5.182  70.942  1.00  0.00    -0.140 A  
HETATM    5  N   UNL     1      -9.365   4.368  69.928  1.00  0.00    -0.137 NA 
HETATM    6  C   UNL     1      -9.295   5.131  68.794  1.00  0.00    -0.125 A  
HETATM    7  C   UNL     1      -9.048   6.455  69.123  1.00  0.00    -0.131 A  
HETATM    8  N   UNL     1      -9.002   6.486  70.502  1.00  0.00    -0.151 NA 
HETATM    9  C   UNL     1      -8.869   7.445  68.155  1.00  0.00    -0.127 A  
HETATM   10  C   UNL     1      -9.398   4.744  67.443  1.00  0.00    -0.153 A  
HETATM   11  C   UNL     1      -9.048   7.108  66.809  1.00  0.00    -0.169 A  
HETATM   12  C   UNL     1      -9.599   3.312  67.043  1.00  0.00    -0.077 C  
HETATM   13  C   UNL     1      -9.282   5.763  66.469  1.00  0.00    -0.150 A  
BRANCH   8  14
HETATM   14  C   UNL     1      -8.680   7.681  71.284  1.00  0.00    -0.131 C  
BRANCH  14  15
HETATM   15  C   UNL     1      -8.775   9.012  70.559  1.00  0.00    -0.238 A  
HETATM   16  C   UNL     1      -7.702   9.613  69.901  1.00  0.00    -0.146 A  
HETATM   17  C   UNL     1     -10.224  10.744  69.569  1.00  0.00    -0.146 A  
HETATM   18  C   UNL     1     -10.035   9.619  70.401  1.00  0.00    -0.330 A  
HETATM   19  C   UNL     1      -7.894  10.763  69.106  1.00  0.00    -0.142 A  
HETATM   20  C   UNL     1      -9.160  11.349  68.884  1.00  0.00    -0.022 A  
BRANCH  20  21
HETATM   21  C   UNL     1      -9.317  12.494  67.921  1.00  0.00    -0.200 A  
HETATM   22  C   UNL     1     -10.887  13.909  66.628  1.00  0.00    -0.289 A  
HETATM   23  C   UNL     1     -10.624  12.884  67.553  1.00  0.00    -0.234 A  
HETATM   24  C   UNL     1      -8.553  14.287  66.402  1.00  0.00     0.246 A  
HETATM   25  C   UNL     1      -8.275  13.252  67.338  1.00  0.00    -0.185 A  
HETATM   26  C   UNL     1      -9.855  14.596  66.035  1.00  0.00    -0.347 A  
HETATM   27  C   UNL     1      -6.834  13.022  67.593  1.00  0.00    -0.154 C  
HETATM   28  O   UNL     1      -6.232  14.222  67.753  1.00  0.00    -0.154 OA 
HETATM   29  O   UNL     1      -6.241  11.961  67.575  1.00  0.00    -0.075 OA 
ENDBRANCH  20  21
ENDBRANCH  14  15
ENDBRANCH   8  14
BRANCH  11  30
HETATM   30  C   UNL     1      -8.971   8.128  65.749  1.00  0.00    -0.119 A  
HETATM   31  C   UNL     1      -9.983  11.008  63.962  1.00  0.00    -0.390 A  
HETATM   32  C   UNL     1      -9.348  11.601  62.863  1.00  0.00    -0.157 A  
HETATM   33  N   UNL     1      -9.840   9.117  65.607  1.00  0.00    -0.206 NA 
HETATM   34  C   UNL     1      -6.787   7.425  64.658  1.00  0.00    -0.047 C  
HETATM   35  C   UNL     1      -9.418   9.858  64.534  1.00  0.00    -0.264 A  
HETATM   36  C   UNL     1      -8.176  11.055  62.341  1.00  0.00    -0.246 A  
HETATM   37  N   UNL     1      -7.973   8.241  64.788  1.00  0.00    -0.139 NA 
HETATM   38  C   UNL     1      -8.250   9.333  63.996  1.00  0.00    -0.164 A  
HETATM   39  C   UNL     1      -7.601   9.908  62.896  1.00  0.00    -0.130 A  
ENDBRANCH  11  30
ENDBRANCH   3   4
ENDBRANCH   2   3
TORSDOF 6
ENDMDL
MODEL      144
REMARK 921   NORMALIZED FREE ENERGY PREDICTED BY IDOCK:   -3.04 KCAL/MOL
REMARK 922        TOTAL FREE ENERGY PREDICTED BY IDOCK:   -6.10 KCAL/MOL
REMARK 923 INTER-LIGAND FREE ENERGY PREDICTED BY IDOCK:   -5.66 KCAL/MOL
REMARK 924 INTRA-LIGAND FREE ENERGY PREDICTED BY IDOCK:   -0.45 KCAL/MOL
REMARK 927      BINDING AFFINITY PREDICTED BY RF-SCORE:    0.00 PKD
ROOT
HETATM    1  C   UNL     1     -10.483   2.804  74.423  1.00  0.00    -0.213 C  
HETATM    2  C   UNL     1     -11.006   3.976  73.603  1.00  0.00    -0.345 C  
ENDROOT
BRANCH   2   3
HETATM    3  C   UNL     1     -10.533   5.345  74.112  1.00  0.00    -0.310 C  
BRANCH   3   4
HETATM    4  C   UNL     1     -10.213   6.285  72.995  1.00  0.00    -0.197 A  
HETATM    5  N   UNL     1     -10.865   7.416  72.793  1.00  0.00    -0.296 NA 
HETATM    6  C   UNL     1     -10.374   7.944  71.630  1.00  0.00    -0.204 A  
HETATM    7  C   UNL     1      -9.366   7.135  71.126  1.00  0.00    -0.157 A  
HETATM    8  N   UNL     1      -9.231   6.109  72.039  1.00  0.00    -0.146 NA 
HETATM    9  C   UNL     1      -8.726   7.404  69.915  1.00  0.00    -0.141 A  
HETATM   10  C   UNL     1     -10.773   9.098  70.927  1.00  0.00    -0.343 A  
HETATM   11  C   UNL     1      -9.043   8.587  69.237  1.00  0.00    -0.153 A  
HETATM   12  C   UNL     1     -11.902   9.963  71.403  1.00  0.00    -0.476 C  
HETATM   13  C   UNL     1     -10.076   9.402  69.735  1.00  0.00    -0.229 A  
BRANCH   8  14
HETATM   14  C   UNL     1      -8.328   4.970  71.863  1.00  0.00    -0.120 C  
BRANCH  14  15
HETATM   15  C   UNL     1      -8.289   4.343  70.481  1.00  0.00    -0.086 A  
HETATM   16  C   UNL     1      -9.420   3.880  69.808  1.00  0.00    -0.264 A  
HETATM   17  C   UNL     1      -7.022   3.973  68.398  1.00  0.00    -0.048 A  
HETATM   18  C   UNL     1      -7.082   4.352  69.757  1.00  0.00    -0.049 A  
HETATM   19  C   UNL     1      -9.341   3.463  68.463  1.00  0.00    -0.231 A  
HETATM   20  C   UNL     1      -8.153   3.524  67.701  1.00  0.00    -0.081 A  
BRANCH  20  21
HETATM   21  C   UNL     1      -8.163   3.190  66.235  1.00  0.00    -0.090 A  
HETATM   22  C   UNL     1      -9.366   2.082  64.373  1.00  0.00    -0.132 A  
HETATM   23  C   UNL     1      -9.272   2.484  65.717  1.00  0.00    -0.054 A  
HETATM   24  C   UNL     1      -7.270   3.110  63.932  1.00  0.00    -0.054 A  
HETATM   25  C   UNL     1      -7.166   3.524  65.288  1.00  0.00    -0.067 A  
HETATM   26  C   UNL     1      -8.357   2.372  63.485  1.00  0.00    -0.085 A  
HETATM   27  C   UNL     1      -5.927   4.269  65.613  1.00  0.00    -0.023 C  
HETATM   28  O   UNL     1      -5.709   5.179  64.636  1.00  0.00    -0.016 OA 
HETATM   29  O   UNL     1      -5.161   4.064  66.533  1.00  0.00    -0.007 OA 
ENDBRANCH  20  21
ENDBRANCH  14  15
ENDBRANCH   8  14
BRANCH  11  30
HETATM   30  C   UNL     1      -8.332   8.976  68.007  1.00  0.00    -0.117 A  
HETATM   31  C   UNL     1      -6.057  10.847  66.048  1.00  0.00    -0.122 A  
HETATM   32  C   UNL     1      -5.749  10.671  64.692  1.00  0.00    -0.053 A  
HETATM   33  N   UNL     1      -7.447   9.959  67.940  1.00  0.00    -0.089 NA 
HETATM   34  C   UNL     1      -9.214   7.184  66.437  1.00  0.00    -0.157 C  
HETATM   35  C   UNL     1      -6.996   9.994  66.647  1.00  0.00    -0.087 A  
HETATM   36  C   UNL     1      -6.368   9.669  63.947  1.00  0.00    -0.110 A  
HETATM   37  N   UNL     1      -8.437   8.357  66.767  1.00  0.00    -0.112 NA 
HETATM   38  C   UNL     1      -7.600   9.003  65.883  1.00  0.00    -0.094 A  
HETATM   39  C   UNL     1      -7.309   8.812  64.527  1.00  0.00    -0.102 A  
ENDBRANCH  11  30
ENDBRANCH   3   4
ENDBRANCH   2   3
TORSDOF 6
ENDMDL
MODEL      145
REMARK 921   NORMALIZED FREE ENERGY PREDICTED BY IDOCK:   -3.03 KCAL/MOL
REMARK 922        TOTAL FREE ENERGY PREDICTED BY IDOCK:   -6.09 KCAL/MOL
REMARK 923 INTER-LIGAND FREE ENERGY PREDICTED BY IDOCK:   -6.63 KCAL/MOL
REMARK 924 INTRA-LIGAND FREE ENERGY PREDICTED BY IDOCK:    0.54 KCAL/MOL
REMARK 927      BINDING AFFINITY PREDICTED BY RF-SCORE:    0.00 PKD
ROOT
HETATM    1  C   UNL     1     -12.256  14.420  64.083  1.00  0.00    -0.393 C  
HETATM    2  C   UNL     1     -10.807  14.411  64.553  1.00  0.00    -0.271 C  
ENDROOT
BRANCH   2   3
HETATM    3  C   UNL     1     -10.587  15.135  65.889  1.00  0.00    -0.347 C  
BRANCH   3   4
HETATM    4  C   UNL     1      -9.656  14.389  66.790  1.00  0.00    -0.268 A  
HETATM    5  N   UNL     1      -8.392  14.729  66.964  1.00  0.00    -0.211 NA 
HETATM    6  C   UNL     1      -7.836  13.762  67.758  1.00  0.00    -0.172 A  
HETATM    7  C   UNL     1      -8.796  12.826  68.113  1.00  0.00    -0.194 A  
HETATM    8  N   UNL     1      -9.969  13.269  67.537  1.00  0.00    -0.220 NA 
HETATM    9  C   UNL     1      -8.492  11.695  68.873  1.00  0.00     0.052 A  
HETATM   10  C   UNL     1      -6.502  13.606  68.184  1.00  0.00    -0.125 A  
HETATM   11  C   UNL     1      -7.195  11.557  69.381  1.00  0.00     0.001 A  
HETATM   12  C   UNL     1      -5.422  14.560  67.768  1.00  0.00    -0.026 C  
HETATM   13  C   UNL     1      -6.215  12.494  69.010  1.00  0.00    -0.087 A  
BRANCH   8  14
HETATM   14  C   UNL     1     -11.234  12.535  67.586  1.00  0.00    -0.282 C  
BRANCH  14  15
HETATM   15  C   UNL     1     -11.148  11.058  67.933  1.00  0.00    -0.347 A  
HETATM   16  C   UNL     1     -10.516  10.110  67.129  1.00  0.00    -0.305 A  
HETATM   17  C   UNL     1     -11.355   9.311  69.660  1.00  0.00     0.024 A  
HETATM   18  C   UNL     1     -11.591  10.623  69.196  1.00  0.00    -0.342 A  
HETATM   19  C   UNL     1     -10.324   8.789  67.584  1.00  0.00    -0.317 A  
HETATM   20  C   UNL     1     -10.703   8.350  68.872  1.00  0.00    -0.095 A  
BRANCH  20  21
HETATM   21  C   UNL     1     -10.352   6.967  69.347  1.00  0.00    -0.220 A  
HETATM   22  C   UNL     1      -9.932   5.491  71.292  1.00  0.00    -0.249 A  
HETATM   23  C   UNL     1     -10.292   6.732  70.738  1.00  0.00    -0.227 A  
HETATM   24  C   UNL     1      -9.716   4.591  69.104  1.00  0.00    -0.250 A  
HETATM   25  C   UNL     1     -10.082   5.841  68.533  1.00  0.00    -0.226 A  
HETATM   26  C   UNL     1      -9.621   4.427  70.478  1.00  0.00    -0.269 A  
HETATM   27  C   UNL     1     -10.100   5.862  67.052  1.00  0.00    -0.183 C  
HETATM   28  O   UNL     1     -10.722   4.742  66.618  1.00  0.00    -0.181 OA 
HETATM   29  O   UNL     1      -9.575   6.675  66.317  1.00  0.00    -0.138 OA 
ENDBRANCH  20  21
ENDBRANCH  14  15
ENDBRANCH   8  14
BRANCH  11  30
HETATM   30  C   UNL     1      -6.839  10.438  70.271  1.00  0.00    -0.126 A  
HETATM   31  C   UNL     1      -6.889   7.098  71.435  1.00  0.00    -0.059 A  
HETATM   32  C   UNL     1      -6.168   6.554  72.507  1.00  0.00    -0.050 A  
HETATM   33  N   UNL     1      -7.307   9.207  70.138  1.00  0.00    -0.066 NA 
HETATM   34  C   UNL     1      -5.135  11.611  71.746  1.00  0.00     0.064 C  
HETATM   35  C   UNL     1      -6.730   8.459  71.131  1.00  0.00    -0.052 A  
HETATM   36  C   UNL     1      -5.309   7.351  73.262  1.00  0.00    -0.041 A  
HETATM   37  N   UNL     1      -5.940  10.485  71.330  1.00  0.00    -0.329 NA 
HETATM   38  C   UNL     1      -5.868   9.232  71.898  1.00  0.00    -0.048 A  
HETATM   39  C   UNL     1      -5.141   8.709  72.975  1.00  0.00    -0.054 A  
ENDBRANCH  11  30
ENDBRANCH   3   4
ENDBRANCH   2   3
TORSDOF 6
ENDMDL
MODEL      146
REMARK 921   NORMALIZED FREE ENERGY PREDICTED BY IDOCK:   -3.02 KCAL/MOL
REMARK 922        TOTAL FREE ENERGY PREDICTED BY IDOCK:   -6.08 KCAL/MOL
REMARK 923 INTER-LIGAND FREE ENERGY PREDICTED BY IDOCK:   -5.24 KCAL/MOL
REMARK 924 INTRA-LIGAND FREE ENERGY PREDICTED BY IDOCK:   -0.84 KCAL/MOL
REMARK 927      BINDING AFFINITY PREDICTED BY RF-SCORE:    0.00 PKD
ROOT
HETATM    1  C   UNL     1     -12.959   9.313  72.578  1.00  0.00    -0.384 C  
HETATM    2  C   UNL     1     -11.593   8.767  72.181  1.00  0.00    -0.434 C  
ENDROOT
BRANCH   2   3
HETATM    3  C   UNL     1     -11.179   7.514  72.964  1.00  0.00    -0.373 C  
BRANCH   3   4
HETATM    4  C   UNL     1     -10.328   6.593  72.150  1.00  0.00    -0.200 A  
HETATM    5  N   UNL     1      -9.323   5.902  72.655  1.00  0.00    -0.144 NA 
HETATM    6  C   UNL     1      -8.718   5.270  71.602  1.00  0.00    -0.134 A  
HETATM    7  C   UNL     1      -9.395   5.550  70.425  1.00  0.00    -0.159 A  
HETATM    8  N   UNL     1     -10.457   6.349  70.796  1.00  0.00    -0.215 NA 
HETATM    9  C   UNL     1      -8.961   5.083  69.183  1.00  0.00    -0.130 A  
HETATM   10  C   UNL     1      -7.560   4.468  71.580  1.00  0.00    -0.081 A  
HETATM   11  C   UNL     1      -7.863   4.216  69.139  1.00  0.00    -0.057 A  
HETATM   12  C   UNL     1      -6.762   4.195  72.821  1.00  0.00    -0.046 C  
HETATM   13  C   UNL     1      -7.163   3.942  70.328  1.00  0.00    -0.041 A  
BRANCH   8  14
HETATM   14  C   UNL     1     -11.397   6.953  69.850  1.00  0.00    -0.271 C  
BRANCH  14  15
HETATM   15  C   UNL     1     -10.791   7.709  68.680  1.00  0.00    -0.013 A  
HETATM   16  C   UNL     1      -9.969   8.825  68.823  1.00  0.00    -0.197 A  
HETATM   17  C   UNL     1     -10.226   7.722  66.281  1.00  0.00     0.142 A  
HETATM   18  C   UNL     1     -10.930   7.187  67.380  1.00  0.00    -0.296 A  
HETATM   19  C   UNL     1      -9.303   9.380  67.710  1.00  0.00    -0.144 A  
HETATM   20  C   UNL     1      -9.379   8.833  66.410  1.00  0.00    -0.264 A  
BRANCH  20  21
HETATM   21  C   UNL     1      -8.542   9.391  65.292  1.00  0.00    -0.182 A  
HETATM   22  C   UNL     1      -6.326   9.422  64.182  1.00  0.00    -0.093 A  
HETATM   23  C   UNL     1      -7.210   8.937  65.162  1.00  0.00    -0.087 A  
HETATM   24  C   UNL     1      -8.051  10.819  63.336  1.00  0.00     0.083 A  
HETATM   25  C   UNL     1      -8.954  10.334  64.321  1.00  0.00    -0.261 A  
HETATM   26  C   UNL     1      -6.736  10.379  63.284  1.00  0.00    -0.058 A  
HETATM   27  C   UNL     1     -10.308  10.933  64.265  1.00  0.00    -0.368 C  
HETATM   28  O   UNL     1     -10.708  10.961  62.974  1.00  0.00    -0.032 OA 
HETATM   29  O   UNL     1     -10.943  11.413  65.183  1.00  0.00    -0.267 OA 
ENDBRANCH  20  21
ENDBRANCH  14  15
ENDBRANCH   8  14
BRANCH  11  30
HETATM   30  C   UNL     1      -7.418   3.610  67.872  1.00  0.00    -0.062 A  
HETATM   31  C   UNL     1      -5.132   2.053  65.667  1.00  0.00    -0.005 A  
HETATM   32  C   UNL     1      -5.374   1.601  64.363  1.00  0.00    -0.005 A  
HETATM   33  N   UNL     1      -6.194   3.152  67.659  1.00  0.00    -0.031 NA 
HETATM   34  C   UNL     1      -9.619   3.642  66.605  1.00  0.00    -0.144 C  
HETATM   35  C   UNL     1      -6.181   2.650  66.383  1.00  0.00    -0.024 A  
HETATM   36  C   UNL     1      -6.633   1.745  63.783  1.00  0.00    -0.022 A  
HETATM   37  N   UNL     1      -8.204   3.384  66.749  1.00  0.00    -0.094 NA 
HETATM   38  C   UNL     1      -7.426   2.783  65.784  1.00  0.00    -0.072 A  
HETATM   39  C   UNL     1      -7.688   2.341  64.481  1.00  0.00    -0.072 A  
ENDBRANCH  11  30
ENDBRANCH   3   4
ENDBRANCH   2   3
TORSDOF 6
ENDMDL
MODEL      147
REMARK 921   NORMALIZED FREE ENERGY PREDICTED BY IDOCK:   -3.00 KCAL/MOL
REMARK 922        TOTAL FREE ENERGY PREDICTED BY IDOCK:   -6.06 KCAL/MOL
REMARK 923 INTER-LIGAND FREE ENERGY PREDICTED BY IDOCK:   -6.72 KCAL/MOL
REMARK 924 INTRA-LIGAND FREE ENERGY PREDICTED BY IDOCK:    0.67 KCAL/MOL
REMARK 927      BINDING AFFINITY PREDICTED BY RF-SCORE:    0.00 PKD
ROOT
HETATM    1  C   UNL     1     -10.064  19.728  67.474  1.00  0.00    -0.554 C  
HETATM    2  C   UNL     1     -10.055  18.388  68.197  1.00  0.00    -0.408 C  
ENDROOT
BRANCH   2   3
HETATM    3  C   UNL     1      -8.875  17.486  67.809  1.00  0.00    -0.241 C  
BRANCH   3   4
HETATM    4  C   UNL     1      -9.316  16.113  67.419  1.00  0.00    -0.217 A  
HETATM    5  N   UNL     1     -10.420  15.875  66.735  1.00  0.00    -0.306 NA 
HETATM    6  C   UNL     1     -10.549  14.513  66.667  1.00  0.00    -0.283 A  
HETATM    7  C   UNL     1      -9.474  13.900  67.292  1.00  0.00    -0.239 A  
HETATM    8  N   UNL     1      -8.662  14.932  67.717  1.00  0.00    -0.161 NA 
HETATM    9  C   UNL     1      -9.376  12.514  67.424  1.00  0.00    -0.187 A  
HETATM   10  C   UNL     1     -11.585  13.735  66.114  1.00  0.00    -0.369 A  
HETATM   11  C   UNL     1     -10.347  11.712  66.812  1.00  0.00    -0.257 A  
HETATM   12  C   UNL     1     -12.797  14.360  65.488  1.00  0.00    -0.243 C  
HETATM   13  C   UNL     1     -11.448  12.329  66.192  1.00  0.00    -0.429 A  
BRANCH   8  14
HETATM   14  C   UNL     1      -7.443  14.744  68.505  1.00  0.00    -0.117 C  
BRANCH  14  15
HETATM   15  C   UNL     1      -6.918  13.322  68.614  1.00  0.00    -0.101 A  
HETATM   16  C   UNL     1      -6.940  12.577  69.793  1.00  0.00     0.374 A  
HETATM   17  C   UNL     1      -6.219  11.267  67.445  1.00  0.00    -0.071 A  
HETATM   18  C   UNL     1      -6.521  12.646  67.445  1.00  0.00    -0.150 A  
HETATM   19  C   UNL     1      -6.595  11.209  69.790  1.00  0.00    -0.138 A  
HETATM   20  C   UNL     1      -6.255  10.498  68.617  1.00  0.00    -0.046 A  
BRANCH  20  21
HETATM   21  C   UNL     1      -6.025   9.012  68.660  1.00  0.00    -0.045 A  
HETATM   22  C   UNL     1      -5.375   6.982  67.397  1.00  0.00    -0.013 A  
HETATM   23  C   UNL     1      -5.579   8.370  67.484  1.00  0.00    -0.039 A  
HETATM   24  C   UNL     1      -5.989   6.763  69.682  1.00  0.00    -0.019 A  
HETATM   25  C   UNL     1      -6.197   8.166  69.780  1.00  0.00    -0.029 A  
HETATM   26  C   UNL     1      -5.601   6.174  68.487  1.00  0.00    -0.012 A  
HETATM   27  C   UNL     1      -6.647   8.631  71.113  1.00  0.00    -0.061 C  
HETATM   28  O   UNL     1      -5.894   8.017  72.055  1.00  0.00    -0.035 OA 
HETATM   29  O   UNL     1      -7.585   9.361  71.364  1.00  0.00    -0.340 OA 
ENDBRANCH  20  21
ENDBRANCH  14  15
ENDBRANCH   8  14
BRANCH  11  30
HETATM   30  C   UNL     1     -10.246  10.243  66.830  1.00  0.00    -0.228 A  
HETATM   31  C   UNL     1     -11.119   6.959  67.816  1.00  0.00    -0.223 A  
HETATM   32  C   UNL     1     -10.571   5.754  67.357  1.00  0.00    -0.340 A  
HETATM   33  N   UNL     1     -11.008   9.456  67.573  1.00  0.00    -0.139 NA 
HETATM   34  C   UNL     1      -8.473   9.929  65.038  1.00  0.00    -0.154 C  
HETATM   35  C   UNL     1     -10.630   8.168  67.296  1.00  0.00    -0.273 A  
HETATM   36  C   UNL     1      -9.554   5.753  66.404  1.00  0.00    -0.175 A  
HETATM   37  N   UNL     1      -9.393   9.468  66.053  1.00  0.00    -0.197 NA 
HETATM   38  C   UNL     1      -9.616   8.141  66.347  1.00  0.00    -0.216 A  
HETATM   39  C   UNL     1      -9.053   6.948  65.878  1.00  0.00    -0.045 A  
ENDBRANCH  11  30
ENDBRANCH   3   4
ENDBRANCH   2   3
TORSDOF 6
ENDMDL
MODEL      148
REMARK 921   NORMALIZED FREE ENERGY PREDICTED BY IDOCK:   -2.99 KCAL/MOL
REMARK 922        TOTAL FREE ENERGY PREDICTED BY IDOCK:   -6.04 KCAL/MOL
REMARK 923 INTER-LIGAND FREE ENERGY PREDICTED BY IDOCK:   -6.14 KCAL/MOL
REMARK 924 INTRA-LIGAND FREE ENERGY PREDICTED BY IDOCK:    0.10 KCAL/MOL
REMARK 927      BINDING AFFINITY PREDICTED BY RF-SCORE:    0.00 PKD
ROOT
HETATM    1  C   UNL     1      -6.748  13.293  69.868  1.00  0.00     0.200 C  
HETATM    2  C   UNL     1      -7.297  12.700  68.578  1.00  0.00    -0.115 C  
ENDROOT
BRANCH   2   3
HETATM    3  C   UNL     1      -8.609  11.925  68.764  1.00  0.00     0.046 C  
BRANCH   3   4
HETATM    4  C   UNL     1      -8.503  10.511  68.293  1.00  0.00    -0.123 A  
HETATM    5  N   UNL     1      -7.579   9.672  68.725  1.00  0.00    -0.075 NA 
HETATM    6  C   UNL     1      -7.727   8.522  67.997  1.00  0.00    -0.103 A  
HETATM    7  C   UNL     1      -8.795   8.646  67.121  1.00  0.00    -0.129 A  
HETATM    8  N   UNL     1      -9.321   9.899  67.361  1.00  0.00    -0.137 NA 
HETATM    9  C   UNL     1      -9.137   7.643  66.212  1.00  0.00    -0.204 A  
HETATM   10  C   UNL     1      -6.953   7.345  68.009  1.00  0.00    -0.075 A  
HETATM   11  C   UNL     1      -8.440   6.430  66.259  1.00  0.00    -0.131 A  
HETATM   12  C   UNL     1      -5.750   7.197  68.893  1.00  0.00    -0.019 C  
HETATM   13  C   UNL     1      -7.345   6.306  67.132  1.00  0.00    -0.083 A  
BRANCH   8  14
HETATM   14  C   UNL     1     -10.422  10.485  66.597  1.00  0.00    -0.228 C  
BRANCH  14  15
HETATM   15  C   UNL     1     -10.543  11.999  66.634  1.00  0.00    -0.266 A  
HETATM   16  C   UNL     1     -11.514  12.680  67.368  1.00  0.00    -0.397 A  
HETATM   17  C   UNL     1      -9.486  14.183  66.195  1.00  0.00    -0.229 A  
HETATM   18  C   UNL     1      -9.545  12.783  66.025  1.00  0.00    -0.182 A  
HETATM   19  C   UNL     1     -11.471  14.084  67.496  1.00  0.00    -0.369 A  
HETATM   20  C   UNL     1     -10.443  14.881  66.946  1.00  0.00    -0.280 A  
BRANCH  20  21
HETATM   21  C   UNL     1     -10.380  16.357  67.229  1.00  0.00    -0.287 A  
HETATM   22  C   UNL     1     -10.126  18.636  66.289  1.00  0.00    -0.431 A  
HETATM   23  C   UNL     1     -10.239  17.243  66.138  1.00  0.00    -0.338 A  
HETATM   24  C   UNL     1     -10.347  18.385  68.641  1.00  0.00    -0.286 A  
HETATM   25  C   UNL     1     -10.464  16.975  68.499  1.00  0.00    -0.373 A  
HETATM   26  C   UNL     1     -10.156  19.207  67.540  1.00  0.00    -0.463 A  
HETATM   27  C   UNL     1     -10.625  16.237  69.774  1.00  0.00    -0.316 C  
HETATM   28  O   UNL     1     -11.532  16.892  70.534  1.00  0.00     0.163 OA 
HETATM   29  O   UNL     1     -10.000  15.265  70.150  1.00  0.00    -0.216 OA 
ENDBRANCH  20  21
ENDBRANCH  14  15
ENDBRANCH   8  14
BRANCH  11  30
HETATM   30  C   UNL     1      -8.819   5.298  65.394  1.00  0.00    -0.152 A  
HETATM   31  C   UNL     1     -10.887   2.673  64.236  1.00  0.00     0.426 A  
HETATM   32  C   UNL     1     -10.664   1.827  63.141  1.00  0.00    -0.173 A  
HETATM   33  N   UNL     1      -9.937   4.602  65.531  1.00  0.00    -0.194 NA 
HETATM   34  C   UNL     1      -6.887   5.374  63.747  1.00  0.00    -0.046 C  
HETATM   35  C   UNL     1      -9.936   3.661  64.535  1.00  0.00    -0.190 A  
HETATM   36  C   UNL     1      -9.515   1.961  62.363  1.00  0.00    -0.086 A  
HETATM   37  N   UNL     1      -8.106   4.828  64.298  1.00  0.00    -0.104 NA 
HETATM   38  C   UNL     1      -8.800   3.774  63.744  1.00  0.00    -0.100 A  
HETATM   39  C   UNL     1      -8.557   2.938  62.648  1.00  0.00    -0.078 A  
ENDBRANCH  11  30
ENDBRANCH   3   4
ENDBRANCH   2   3
TORSDOF 6
ENDMDL
MODEL      149
REMARK 921   NORMALIZED FREE ENERGY PREDICTED BY IDOCK:   -2.97 KCAL/MOL
REMARK 922        TOTAL FREE ENERGY PREDICTED BY IDOCK:   -6.01 KCAL/MOL
REMARK 923 INTER-LIGAND FREE ENERGY PREDICTED BY IDOCK:   -6.26 KCAL/MOL
REMARK 924 INTRA-LIGAND FREE ENERGY PREDICTED BY IDOCK:    0.25 KCAL/MOL
REMARK 927      BINDING AFFINITY PREDICTED BY RF-SCORE:    0.00 PKD
ROOT
HETATM    1  C   UNL     1     -12.541  13.340  71.827  1.00  0.00    -0.195 C  
HETATM    2  C   UNL     1     -12.627  11.906  71.321  1.00  0.00    -0.383 C  
ENDROOT
BRANCH   2   3
HETATM    3  C   UNL     1     -11.795  11.647  70.057  1.00  0.00    -0.435 C  
BRANCH   3   4
HETATM    4  C   UNL     1     -11.363  10.221  69.946  1.00  0.00    -0.290 A  
HETATM    5  N   UNL     1     -12.052   9.215  70.454  1.00  0.00     0.025 NA 
HETATM    6  C   UNL     1     -11.298   8.089  70.255  1.00  0.00    -0.141 A  
HETATM    7  C   UNL     1     -10.134   8.408  69.573  1.00  0.00    -0.200 A  
HETATM    8  N   UNL     1     -10.214   9.764  69.328  1.00  0.00    -0.192 NA 
HETATM    9  C   UNL     1      -9.151   7.459  69.288  1.00  0.00    -0.135 A  
HETATM   10  C   UNL     1     -11.537   6.764  70.669  1.00  0.00    -0.422 A  
HETATM   11  C   UNL     1      -9.397   6.120  69.611  1.00  0.00    -0.156 A  
HETATM   12  C   UNL     1     -12.751   6.389  71.466  1.00  0.00     0.053 C  
HETATM   13  C   UNL     1     -10.568   5.794  70.318  1.00  0.00    -0.369 A  
BRANCH   8  14
HETATM   14  C   UNL     1      -9.150  10.546  68.697  1.00  0.00    -0.158 C  
BRANCH  14  15
HETATM   15  C   UNL     1      -9.478  11.992  68.365  1.00  0.00    -0.181 A  
HETATM   16  C   UNL     1      -9.142  13.069  69.184  1.00  0.00     0.689 A  
HETATM   17  C   UNL     1     -10.153  13.633  66.653  1.00  0.00    -0.277 A  
HETATM   18  C   UNL     1     -10.016  12.302  67.102  1.00  0.00    -0.213 A  
HETATM   19  C   UNL     1      -9.323  14.397  68.744  1.00  0.00    -0.150 A  
HETATM   20  C   UNL     1      -9.801  14.728  67.456  1.00  0.00    -0.218 A  
BRANCH  20  21
HETATM   21  C   UNL     1      -9.847  16.160  66.999  1.00  0.00    -0.248 A  
HETATM   22  C   UNL     1      -9.013  18.468  67.336  1.00  0.00    -0.280 A  
HETATM   23  C   UNL     1      -9.018  17.098  67.652  1.00  0.00    -0.226 A  
HETATM   24  C   UNL     1     -10.627  18.071  65.640  1.00  0.00    -0.104 A  
HETATM   25  C   UNL     1     -10.640  16.683  65.950  1.00  0.00    -0.257 A  
HETATM   26  C   UNL     1      -9.832  18.960  66.348  1.00  0.00    -0.412 A  
HETATM   27  C   UNL     1     -11.571  15.876  65.128  1.00  0.00     0.126 C  
HETATM   28  O   UNL     1     -11.436  16.252  63.836  1.00  0.00    -0.940 OA 
HETATM   29  O   UNL     1     -12.396  15.073  65.518  1.00  0.00     0.007 OA 
ENDBRANCH  20  21
ENDBRANCH  14  15
ENDBRANCH   8  14
BRANCH  11  30
HETATM   30  C   UNL     1      -8.443   5.058  69.247  1.00  0.00    -0.088 A  
HETATM   31  C   UNL     1      -5.722   2.854  69.747  1.00  0.00    -0.018 A  
HETATM   32  C   UNL     1      -5.245   1.871  68.870  1.00  0.00    -0.012 A  
HETATM   33  N   UNL     1      -7.470   4.632  70.037  1.00  0.00    -0.054 NA 
HETATM   34  C   UNL     1      -9.400   4.401  66.988  1.00  0.00    -0.154 C  
HETATM   35  C   UNL     1      -6.823   3.633  69.359  1.00  0.00    -0.041 A  
HETATM   36  C   UNL     1      -5.849   1.671  67.630  1.00  0.00    -0.019 A  
HETATM   37  N   UNL     1      -8.444   4.321  68.069  1.00  0.00    -0.094 NA 
HETATM   38  C   UNL     1      -7.408   3.415  68.118  1.00  0.00    -0.050 A  
HETATM   39  C   UNL     1      -6.945   2.439  67.226  1.00  0.00    -0.044 A  
ENDBRANCH  11  30
ENDBRANCH   3   4
ENDBRANCH   2   3
TORSDOF 6
ENDMDL
MODEL      150
REMARK 921   NORMALIZED FREE ENERGY PREDICTED BY IDOCK:   -2.96 KCAL/MOL
REMARK 922        TOTAL FREE ENERGY PREDICTED BY IDOCK:   -6.00 KCAL/MOL
REMARK 923 INTER-LIGAND FREE ENERGY PREDICTED BY IDOCK:   -4.97 KCAL/MOL
REMARK 924 INTRA-LIGAND FREE ENERGY PREDICTED BY IDOCK:   -1.03 KCAL/MOL
REMARK 927      BINDING AFFINITY PREDICTED BY RF-SCORE:    0.00 PKD
ROOT
HETATM    1  C   UNL     1      -5.298  10.468  74.079  1.00  0.00     0.379 C  
HETATM    2  C   UNL     1      -6.260   9.362  73.666  1.00  0.00     0.386 C  
ENDROOT
BRANCH   2   3
HETATM    3  C   UNL     1      -5.925   8.728  72.308  1.00  0.00    -0.076 C  
BRANCH   3   4
HETATM    4  C   UNL     1      -6.407   9.557  71.162  1.00  0.00    -0.054 A  
HETATM    5  N   UNL     1      -5.787  10.647  70.747  1.00  0.00    -0.216 NA 
HETATM    6  C   UNL     1      -6.573  11.190  69.766  1.00  0.00    -0.138 A  
HETATM    7  C   UNL     1      -7.684  10.391  69.547  1.00  0.00    -0.156 A  
HETATM    8  N   UNL     1      -7.537   9.318  70.403  1.00  0.00    -0.110 NA 
HETATM    9  C   UNL     1      -8.688  10.736  68.640  1.00  0.00    -0.152 A  
HETATM   10  C   UNL     1      -6.411  12.391  69.046  1.00  0.00    -0.092 A  
HETATM   11  C   UNL     1      -8.513  11.879  67.850  1.00  0.00    -0.154 A  
HETATM   12  C   UNL     1      -5.258  13.316  69.300  1.00  0.00    -0.074 C  
HETATM   13  C   UNL     1      -7.396  12.702  68.081  1.00  0.00    -0.112 A  
BRANCH   8  14
HETATM   14  C   UNL     1      -8.532   8.258  70.566  1.00  0.00    -0.129 C  
BRANCH  14  15
HETATM   15  C   UNL     1      -8.282   6.969  69.800  1.00  0.00    -0.131 A  
HETATM   16  C   UNL     1      -9.286   6.239  69.165  1.00  0.00    -0.128 A  
HETATM   17  C   UNL     1      -6.646   5.481  68.710  1.00  0.00    -0.048 A  
HETATM   18  C   UNL     1      -6.957   6.549  69.579  1.00  0.00    -0.067 A  
HETATM   19  C   UNL     1      -8.967   5.146  68.332  1.00  0.00    -0.118 A  
HETATM   20  C   UNL     1      -7.642   4.748  68.047  1.00  0.00    -0.082 A  
BRANCH  20  21
HETATM   21  C   UNL     1      -7.365   3.660  67.048  1.00  0.00    -0.068 A  
HETATM   22  C   UNL     1      -6.062   1.619  66.518  1.00  0.00    -0.019 A  
HETATM   23  C   UNL     1      -6.430   2.658  67.391  1.00  0.00    -0.036 A  
HETATM   24  C   UNL     1      -7.581   2.462  64.897  1.00  0.00    -0.072 A  
HETATM   25  C   UNL     1      -7.962   3.515  65.773  1.00  0.00    -0.093 A  
HETATM   26  C   UNL     1      -6.618   1.533  65.263  1.00  0.00    -0.023 A  
HETATM   27  C   UNL     1      -8.973   4.445  65.218  1.00  0.00    -0.140 C  
HETATM   28  O   UNL     1      -9.942   3.713  64.621  1.00  0.00    -0.179 OA 
HETATM   29  O   UNL     1      -8.929   5.659  65.198  1.00  0.00    -0.105 OA 
ENDBRANCH  20  21
ENDBRANCH  14  15
ENDBRANCH   8  14
BRANCH  11  30
HETATM   30  C   UNL     1      -9.487  12.242  66.806  1.00  0.00    -0.222 A  
HETATM   31  C   UNL     1     -12.075  14.149  65.331  1.00  0.00    -0.415 A  
HETATM   32  C   UNL     1     -12.647  13.980  64.062  1.00  0.00    -0.076 A  
HETATM   33  N   UNL     1     -10.337  13.252  66.905  1.00  0.00    -0.253 NA 
HETATM   34  C   UNL     1      -8.828  10.558  65.023  1.00  0.00    -0.191 C  
HETATM   35  C   UNL     1     -11.051  13.280  65.735  1.00  0.00    -0.279 A  
HETATM   36  C   UNL     1     -12.209  12.962  63.216  1.00  0.00    -0.481 A  
HETATM   37  N   UNL     1      -9.629  11.631  65.567  1.00  0.00    -0.227 NA 
HETATM   38  C   UNL     1     -10.632  12.273  64.874  1.00  0.00    -0.293 A  
HETATM   39  C   UNL     1     -11.192  12.085  63.604  1.00  0.00    -0.528 A  
ENDBRANCH  11  30
ENDBRANCH   3   4
ENDBRANCH   2   3
TORSDOF 6
ENDMDL
MODEL      151
REMARK 921   NORMALIZED FREE ENERGY PREDICTED BY IDOCK:   -2.85 KCAL/MOL
REMARK 922        TOTAL FREE ENERGY PREDICTED BY IDOCK:   -5.85 KCAL/MOL
REMARK 923 INTER-LIGAND FREE ENERGY PREDICTED BY IDOCK:   -6.71 KCAL/MOL
REMARK 924 INTRA-LIGAND FREE ENERGY PREDICTED BY IDOCK:    0.85 KCAL/MOL
REMARK 927      BINDING AFFINITY PREDICTED BY RF-SCORE:    0.00 PKD
ROOT
HETATM    1  C   UNL     1     -12.237  15.288  72.217  1.00  0.00    -0.466 C  
HETATM    2  C   UNL     1     -12.557  14.197  71.204  1.00  0.00    -0.439 C  
ENDROOT
BRANCH   2   3
HETATM    3  C   UNL     1     -13.457  13.084  71.759  1.00  0.00    -0.401 C  
BRANCH   3   4
HETATM    4  C   UNL     1     -12.948  11.721  71.418  1.00  0.00    -0.306 A  
HETATM    5  N   UNL     1     -13.436  10.614  71.946  1.00  0.00    -0.316 NA 
HETATM    6  C   UNL     1     -12.655   9.587  71.487  1.00  0.00    -0.373 A  
HETATM    7  C   UNL     1     -11.687  10.074  70.622  1.00  0.00    -0.337 A  
HETATM    8  N   UNL     1     -11.921  11.432  70.539  1.00  0.00    -0.365 NA 
HETATM    9  C   UNL     1     -10.714   9.253  70.050  1.00  0.00    -0.259 A  
HETATM   10  C   UNL     1     -12.699   8.215  71.801  1.00  0.00    -0.356 A  
HETATM   11  C   UNL     1     -10.783   7.874  70.277  1.00  0.00    -0.236 A  
HETATM   12  C   UNL     1     -13.689   7.658  72.781  1.00  0.00     0.711 C  
HETATM   13  C   UNL     1     -11.752   7.377  71.166  1.00  0.00    -0.322 A  
BRANCH   8  14
HETATM   14  C   UNL     1     -11.076  12.365  69.792  1.00  0.00     0.172 C  
BRANCH  14  15
HETATM   15  C   UNL     1     -10.317  11.792  68.607  1.00  0.00    -0.228 A  
HETATM   16  C   UNL     1     -10.895  11.548  67.362  1.00  0.00    -0.294 A  
HETATM   17  C   UNL     1      -8.131  11.299  67.578  1.00  0.00    -0.124 A  
HETATM   18  C   UNL     1      -8.921  11.630  68.699  1.00  0.00    -0.087 A  
HETATM   19  C   UNL     1     -10.102  11.175  66.257  1.00  0.00    -0.277 A  
HETATM   20  C   UNL     1      -8.694  11.069  66.313  1.00  0.00    -0.178 A  
BRANCH  20  21
HETATM   21  C   UNL     1      -7.894  10.797  65.070  1.00  0.00     0.112 A  
HETATM   22  C   UNL     1      -5.718  10.084  64.124  1.00  0.00    -0.119 A  
HETATM   23  C   UNL     1      -6.569  10.329  65.215  1.00  0.00    -0.119 A  
HETATM   24  C   UNL     1      -7.466  10.699  62.638  1.00  0.00    -0.084 A  
HETATM   25  C   UNL     1      -8.336  10.948  63.734  1.00  0.00     0.150 A  
HETATM   26  C   UNL     1      -6.155  10.291  62.837  1.00  0.00    -0.142 A  
HETATM   27  C   UNL     1      -9.690  11.416  63.354  1.00  0.00    -0.365 C  
HETATM   28  O   UNL     1     -10.134  10.649  62.332  1.00  0.00     0.028 OA 
HETATM   29  O   UNL     1     -10.291  12.376  63.793  1.00  0.00    -0.411 OA 
ENDBRANCH  20  21
ENDBRANCH  14  15
ENDBRANCH   8  14
BRANCH  11  30
HETATM   30  C   UNL     1      -9.846   6.944  69.622  1.00  0.00    -0.166 A  
HETATM   31  C   UNL     1      -7.106   4.714  69.447  1.00  0.00    -0.051 A  
HETATM   32  C   UNL     1      -6.668   3.981  68.336  1.00  0.00    -0.046 A  
HETATM   33  N   UNL     1      -8.839   6.347  70.241  1.00  0.00    -0.149 NA 
HETATM   34  C   UNL     1     -10.902   6.852  67.314  1.00  0.00    -0.356 C  
HETATM   35  C   UNL     1      -8.223   5.552  69.310  1.00  0.00    -0.095 A  
HETATM   36  C   UNL     1      -7.327   4.085  67.112  1.00  0.00    -0.068 A  
HETATM   37  N   UNL     1      -9.900   6.519  68.300  1.00  0.00    -0.130 NA 
HETATM   38  C   UNL     1      -8.862   5.639  68.081  1.00  0.00    -0.108 A  
HETATM   39  C   UNL     1      -8.439   4.918  66.957  1.00  0.00    -0.105 A  
ENDBRANCH  11  30
ENDBRANCH   3   4
ENDBRANCH   2   3
TORSDOF 6
ENDMDL
MODEL      152
REMARK 921   NORMALIZED FREE ENERGY PREDICTED BY IDOCK:   -2.76 KCAL/MOL
REMARK 922        TOTAL FREE ENERGY PREDICTED BY IDOCK:   -5.72 KCAL/MOL
REMARK 923 INTER-LIGAND FREE ENERGY PREDICTED BY IDOCK:   -4.85 KCAL/MOL
REMARK 924 INTRA-LIGAND FREE ENERGY PREDICTED BY IDOCK:   -0.87 KCAL/MOL
REMARK 927      BINDING AFFINITY PREDICTED BY RF-SCORE:    0.00 PKD
ROOT
HETATM    1  C   UNL     1     -10.248   4.422  63.921  1.00  0.00     0.115 C  
HETATM    2  C   UNL     1      -8.836   4.030  63.507  1.00  0.00    -0.111 C  
ENDROOT
BRANCH   2   3
HETATM    3  C   UNL     1      -8.235   2.901  64.357  1.00  0.00    -0.083 C  
BRANCH   3   4
HETATM    4  C   UNL     1      -7.978   3.329  65.765  1.00  0.00    -0.086 A  
HETATM    5  N   UNL     1      -8.404   2.652  66.816  1.00  0.00    -0.088 NA 
HETATM    6  C   UNL     1      -8.080   3.399  67.917  1.00  0.00    -0.079 A  
HETATM    7  C   UNL     1      -7.402   4.546  67.533  1.00  0.00    -0.073 A  
HETATM    8  N   UNL     1      -7.290   4.461  66.160  1.00  0.00    -0.076 NA 
HETATM    9  C   UNL     1      -7.002   5.521  68.449  1.00  0.00    -0.064 A  
HETATM   10  C   UNL     1      -8.371   3.170  69.276  1.00  0.00    -0.087 A  
HETATM   11  C   UNL     1      -7.202   5.281  69.813  1.00  0.00    -0.063 A  
HETATM   12  C   UNL     1      -9.159   1.976  69.727  1.00  0.00    -0.166 C  
HETATM   13  C   UNL     1      -7.905   4.128  70.206  1.00  0.00    -0.051 A  
BRANCH   8  14
HETATM   14  C   UNL     1      -6.709   5.509  65.319  1.00  0.00    -0.044 C  
BRANCH  14  15
HETATM   15  C   UNL     1      -7.549   6.758  65.115  1.00  0.00    -0.098 A  
HETATM   16  C   UNL     1      -8.709   7.037  65.837  1.00  0.00    -0.140 A  
HETATM   17  C   UNL     1      -7.698   9.037  64.187  1.00  0.00    -0.124 A  
HETATM   18  C   UNL     1      -7.074   7.774  64.264  1.00  0.00    -0.074 A  
HETATM   19  C   UNL     1      -9.350   8.289  65.721  1.00  0.00    -0.101 A  
HETATM   20  C   UNL     1      -8.853   9.342  64.921  1.00  0.00    -0.240 A  
BRANCH  20  21
HETATM   21  C   UNL     1      -9.509  10.696  64.941  1.00  0.00    -0.293 A  
HETATM   22  C   UNL     1     -10.962  12.309  63.747  1.00  0.00    -0.495 A  
HETATM   23  C   UNL     1     -10.336  11.055  63.854  1.00  0.00    -0.436 A  
HETATM   24  C   UNL     1     -10.033  12.936  65.841  1.00  0.00    -0.273 A  
HETATM   25  C   UNL     1      -9.397  11.670  65.960  1.00  0.00    -0.241 A  
HETATM   26  C   UNL     1     -10.793  13.259  64.727  1.00  0.00    -0.374 A  
HETATM   27  C   UNL     1      -8.591  11.498  67.191  1.00  0.00    -0.155 C  
HETATM   28  O   UNL     1      -9.306  11.967  68.239  1.00  0.00    -0.186 OA 
HETATM   29  O   UNL     1      -7.446  11.098  67.276  1.00  0.00    -0.106 OA 
ENDBRANCH  20  21
ENDBRANCH  14  15
ENDBRANCH   8  14
BRANCH  11  30
HETATM   30  C   UNL     1      -6.714   6.224  70.834  1.00  0.00    -0.058 A  
HETATM   31  C   UNL     1      -5.599   9.344  72.076  1.00  0.00    -0.053 A  
HETATM   32  C   UNL     1      -5.263   9.668  73.397  1.00  0.00    -0.026 A  
HETATM   33  N   UNL     1      -6.412   7.490  70.590  1.00  0.00    -0.038 NA 
HETATM   34  C   UNL     1      -6.861   4.729  72.882  1.00  0.00    -0.070 C  
HETATM   35  C   UNL     1      -6.022   8.038  71.784  1.00  0.00    -0.036 A  
HETATM   36  C   UNL     1      -5.342   8.710  74.406  1.00  0.00    -0.103 A  
HETATM   37  N   UNL     1      -6.546   5.957  72.187  1.00  0.00    -0.061 NA 
HETATM   38  C   UNL     1      -6.093   7.101  72.807  1.00  0.00    -0.051 A  
HETATM   39  C   UNL     1      -5.759   7.403  74.133  1.00  0.00    -0.061 A  
ENDBRANCH  11  30
ENDBRANCH   3   4
ENDBRANCH   2   3
TORSDOF 6
ENDMDL
MODEL      153
REMARK 921   NORMALIZED FREE ENERGY PREDICTED BY IDOCK:   -2.64 KCAL/MOL
REMARK 922        TOTAL FREE ENERGY PREDICTED BY IDOCK:   -5.56 KCAL/MOL
REMARK 923 INTER-LIGAND FREE ENERGY PREDICTED BY IDOCK:   -6.00 KCAL/MOL
REMARK 924 INTRA-LIGAND FREE ENERGY PREDICTED BY IDOCK:    0.44 KCAL/MOL
REMARK 927      BINDING AFFINITY PREDICTED BY RF-SCORE:    0.00 PKD
ROOT
HETATM    1  C   UNL     1     -11.043   9.059  68.579  1.00  0.00     0.160 C  
HETATM    2  C   UNL     1     -11.567  10.405  68.097  1.00  0.00    -0.056 C  
ENDROOT
BRANCH   2   3
HETATM    3  C   UNL     1     -10.941  10.874  66.776  1.00  0.00    -0.248 C  
BRANCH   3   4
HETATM    4  C   UNL     1     -10.576  12.323  66.805  1.00  0.00    -0.224 A  
HETATM    5  N   UNL     1     -11.163  13.233  66.050  1.00  0.00    -0.294 NA 
HETATM    6  C   UNL     1     -10.495  14.408  66.267  1.00  0.00    -0.290 A  
HETATM    7  C   UNL     1      -9.497  14.222  67.211  1.00  0.00    -0.220 A  
HETATM    8  N   UNL     1      -9.596  12.900  67.592  1.00  0.00    -0.190 NA 
HETATM    9  C   UNL     1      -8.619  15.242  67.583  1.00  0.00    -0.178 A  
HETATM   10  C   UNL     1     -10.670  15.667  65.659  1.00  0.00    -0.376 A  
HETATM   11  C   UNL     1      -8.821  16.525  67.059  1.00  0.00    -0.217 A  
HETATM   12  C   UNL     1     -11.695  15.893  64.587  1.00  0.00    -0.117 C  
HETATM   13  C   UNL     1      -9.821  16.714  66.088  1.00  0.00    -0.340 A  
BRANCH   8  14
HETATM   14  C   UNL     1      -8.675  12.243  68.521  1.00  0.00    -0.071 C  
BRANCH  14  15
HETATM   15  C   UNL     1      -8.058  10.935  68.053  1.00  0.00    -0.119 A  
HETATM   16  C   UNL     1      -7.853   9.836  68.886  1.00  0.00    -0.087 A  
HETATM   17  C   UNL     1      -7.433   9.491  66.156  1.00  0.00    -0.100 A  
HETATM   18  C   UNL     1      -7.810  10.746  66.681  1.00  0.00    -0.140 A  
HETATM   19  C   UNL     1      -7.433   8.597  68.357  1.00  0.00    -0.095 A  
HETATM   20  C   UNL     1      -7.241   8.369  66.976  1.00  0.00    -0.080 A  
BRANCH  20  21
HETATM   21  C   UNL     1      -6.922   6.992  66.462  1.00  0.00    -0.069 A  
HETATM   22  C   UNL     1      -6.697   4.584  66.999  1.00  0.00    -0.051 A  
HETATM   23  C   UNL     1      -7.014   5.905  67.359  1.00  0.00    -0.069 A  
HETATM   24  C   UNL     1      -6.222   5.314  64.789  1.00  0.00    -0.029 A  
HETATM   25  C   UNL     1      -6.542   6.654  65.142  1.00  0.00    -0.046 A  
HETATM   26  C   UNL     1      -6.279   4.289  65.723  1.00  0.00    -0.031 A  
HETATM   27  C   UNL     1      -6.394   7.634  64.041  1.00  0.00    -0.053 C  
HETATM   28  O   UNL     1      -6.945   7.107  62.924  1.00  0.00    -0.054 OA 
HETATM   29  O   UNL     1      -5.805   8.696  64.071  1.00  0.00    -0.068 OA 
ENDBRANCH  20  21
ENDBRANCH  14  15
ENDBRANCH   8  14
BRANCH  11  30
HETATM   30  C   UNL     1      -7.992  17.664  67.487  1.00  0.00    -0.203 A  
HETATM   31  C   UNL     1      -6.520  19.892  69.807  1.00  0.00    -0.391 A  
HETATM   32  C   UNL     1      -5.623  20.936  69.541  1.00  0.00    -0.372 A  
HETATM   33  N   UNL     1      -7.854  18.049  68.746  1.00  0.00    -0.289 NA 
HETATM   34  C   UNL     1      -6.991  18.312  65.244  1.00  0.00     0.245 C  
HETATM   35  C   UNL     1      -6.994  19.116  68.738  1.00  0.00    -0.321 A  
HETATM   36  C   UNL     1      -5.211  21.203  68.236  1.00  0.00    -0.317 A  
HETATM   37  N   UNL     1      -7.204  18.461  66.666  1.00  0.00    -0.205 NA 
HETATM   38  C   UNL     1      -6.569  19.402  67.447  1.00  0.00    -0.193 A  
HETATM   39  C   UNL     1      -5.676  20.442  67.159  1.00  0.00    -0.200 A  
ENDBRANCH  11  30
ENDBRANCH   3   4
ENDBRANCH   2   3
TORSDOF 6
ENDMDL
MODEL      154
REMARK 921   NORMALIZED FREE ENERGY PREDICTED BY IDOCK:   -2.57 KCAL/MOL
REMARK 922        TOTAL FREE ENERGY PREDICTED BY IDOCK:   -5.47 KCAL/MOL
REMARK 923 INTER-LIGAND FREE ENERGY PREDICTED BY IDOCK:   -5.12 KCAL/MOL
REMARK 924 INTRA-LIGAND FREE ENERGY PREDICTED BY IDOCK:   -0.35 KCAL/MOL
REMARK 927      BINDING AFFINITY PREDICTED BY RF-SCORE:    0.00 PKD
ROOT
HETATM    1  C   UNL     1     -12.246   7.276  69.132  1.00  0.00     1.762 C  
HETATM    2  C   UNL     1     -11.116   6.276  69.341  1.00  0.00    -0.477 C  
ENDROOT
BRANCH   2   3
HETATM    3  C   UNL     1      -9.753   6.772  68.840  1.00  0.00    -0.137 C  
BRANCH   3   4
HETATM    4  C   UNL     1      -9.820   8.164  68.301  1.00  0.00    -0.171 A  
HETATM    5  N   UNL     1      -9.828   8.440  67.009  1.00  0.00    -0.206 NA 
HETATM    6  C   UNL     1      -9.783   9.804  66.903  1.00  0.00    -0.192 A  
HETATM    7  C   UNL     1      -9.787  10.382  68.164  1.00  0.00    -0.151 A  
HETATM    8  N   UNL     1      -9.871   9.326  69.049  1.00  0.00    -0.162 NA 
HETATM    9  C   UNL     1      -9.687  11.761  68.356  1.00  0.00    -0.197 A  
HETATM   10  C   UNL     1      -9.699  10.614  65.754  1.00  0.00    -0.272 A  
HETATM   11  C   UNL     1      -9.687  12.596  67.232  1.00  0.00    -0.207 A  
HETATM   12  C   UNL     1      -9.626  10.027  64.375  1.00  0.00    -0.325 C  
HETATM   13  C   UNL     1      -9.666  12.014  65.952  1.00  0.00    -0.256 A  
BRANCH   8  14
HETATM   14  C   UNL     1      -9.821   9.471  70.505  1.00  0.00    -0.269 C  
BRANCH  14  15
HETATM   15  C   UNL     1      -9.050   8.406  71.266  1.00  0.00    -0.226 A  
HETATM   16  C   UNL     1      -9.655   7.431  72.058  1.00  0.00    -0.177 A  
HETATM   17  C   UNL     1      -6.924   7.196  71.573  1.00  0.00    -0.064 A  
HETATM   18  C   UNL     1      -7.663   8.284  71.060  1.00  0.00    -0.090 A  
HETATM   19  C   UNL     1      -8.899   6.371  72.602  1.00  0.00    -0.125 A  
HETATM   20  C   UNL     1      -7.519   6.196  72.355  1.00  0.00    -0.094 A  
BRANCH  20  21
HETATM   21  C   UNL     1      -6.799   4.974  72.855  1.00  0.00    -0.072 A  
HETATM   22  C   UNL     1      -5.149   4.057  74.461  1.00  0.00    -0.004 A  
HETATM   23  C   UNL     1      -5.908   5.120  73.941  1.00  0.00    -0.031 A  
HETATM   24  C   UNL     1      -6.154   2.589  72.886  1.00  0.00    -0.009 A  
HETATM   25  C   UNL     1      -6.927   3.657  72.354  1.00  0.00    -0.042 A  
HETATM   26  C   UNL     1      -5.253   2.797  73.921  1.00  0.00     0.000 A  
HETATM   27  C   UNL     1      -7.812   3.277  71.228  1.00  0.00    -0.055 C  
HETATM   28  O   UNL     1      -8.435   2.120  71.547  1.00  0.00    -0.059 OA 
HETATM   29  O   UNL     1      -7.917   3.830  70.152  1.00  0.00    -0.047 OA 
ENDBRANCH  20  21
ENDBRANCH  14  15
ENDBRANCH   8  14
BRANCH  11  30
HETATM   30  C   UNL     1      -9.683  14.062  67.370  1.00  0.00    -0.233 A  
HETATM   31  C   UNL     1      -8.684  17.372  66.622  1.00  0.00    -0.286 A  
HETATM   32  C   UNL     1      -9.174  18.561  67.179  1.00  0.00    -0.280 A  
HETATM   33  N   UNL     1      -8.914  14.872  66.660  1.00  0.00    -0.270 NA 
HETATM   34  C   UNL     1     -11.552  14.321  69.071  1.00  0.00    -0.305 C  
HETATM   35  C   UNL     1      -9.215  16.149  67.058  1.00  0.00    -0.211 A  
HETATM   36  C   UNL     1     -10.170  18.531  68.154  1.00  0.00    -0.412 A  
HETATM   37  N   UNL     1     -10.501  14.810  68.208  1.00  0.00    -0.237 NA 
HETATM   38  C   UNL     1     -10.207  16.144  68.030  1.00  0.00    -0.252 A  
HETATM   39  C   UNL     1     -10.708  17.320  68.602  1.00  0.00    -0.280 A  
ENDBRANCH  11  30
ENDBRANCH   3   4
ENDBRANCH   2   3
TORSDOF 6
ENDMDL
MODEL      155
REMARK 921   NORMALIZED FREE ENERGY PREDICTED BY IDOCK:   -2.50 KCAL/MOL
REMARK 922        TOTAL FREE ENERGY PREDICTED BY IDOCK:   -5.37 KCAL/MOL
REMARK 923 INTER-LIGAND FREE ENERGY PREDICTED BY IDOCK:   -5.34 KCAL/MOL
REMARK 924 INTRA-LIGAND FREE ENERGY PREDICTED BY IDOCK:   -0.04 KCAL/MOL
REMARK 927      BINDING AFFINITY PREDICTED BY RF-SCORE:    0.00 PKD
ROOT
HETATM    1  C   UNL     1      -7.852   2.727  63.117  1.00  0.00    -0.068 C  
HETATM    2  C   UNL     1      -6.386   3.118  62.994  1.00  0.00    -0.018 C  
ENDROOT
BRANCH   2   3
HETATM    3  C   UNL     1      -6.140   4.630  63.096  1.00  0.00    -0.018 C  
BRANCH   3   4
HETATM    4  C   UNL     1      -6.752   5.221  64.324  1.00  0.00    -0.046 A  
HETATM    5  N   UNL     1      -6.730   4.625  65.502  1.00  0.00    -0.051 NA 
HETATM    6  C   UNL     1      -7.475   5.404  66.346  1.00  0.00    -0.087 A  
HETATM    7  C   UNL     1      -7.935   6.528  65.676  1.00  0.00    -0.114 A  
HETATM    8  N   UNL     1      -7.417   6.431  64.401  1.00  0.00    -0.083 NA 
HETATM    9  C   UNL     1      -8.772   7.468  66.280  1.00  0.00    -0.165 A  
HETATM   10  C   UNL     1      -7.830   5.187  67.692  1.00  0.00    -0.095 A  
HETATM   11  C   UNL     1      -9.073   7.323  67.640  1.00  0.00    -0.124 A  
HETATM   12  C   UNL     1      -7.409   3.952  68.432  1.00  0.00    -0.055 C  
HETATM   13  C   UNL     1      -8.624   6.176  68.318  1.00  0.00    -0.116 A  
BRANCH   8  14
HETATM   14  C   UNL     1      -7.717   7.372  63.321  1.00  0.00    -0.121 C  
BRANCH  14  15
HETATM   15  C   UNL     1      -8.156   8.765  63.738  1.00  0.00    -0.165 A  
HETATM   16  C   UNL     1      -9.471   9.221  63.648  1.00  0.00     0.661 A  
HETATM   17  C   UNL     1      -7.631  10.828  64.982  1.00  0.00     0.162 A  
HETATM   18  C   UNL     1      -7.237   9.608  64.389  1.00  0.00    -0.122 A  
HETATM   19  C   UNL     1      -9.846  10.462  64.205  1.00  0.00    -0.388 A  
HETATM   20  C   UNL     1      -8.953  11.292  64.918  1.00  0.00     0.022 A  
BRANCH  20  21
HETATM   21  C   UNL     1      -9.443  12.539  65.602  1.00  0.00    -0.014 A  
HETATM   22  C   UNL     1     -10.945  14.506  65.490  1.00  0.00    -0.337 A  
HETATM   23  C   UNL     1     -10.445  13.302  64.964  1.00  0.00    -0.367 A  
HETATM   24  C   UNL     1      -9.522  14.258  67.375  1.00  0.00    -0.211 A  
HETATM   25  C   UNL     1      -9.010  13.038  66.853  1.00  0.00    -0.210 A  
HETATM   26  C   UNL     1     -10.469  14.998  66.682  1.00  0.00    -0.284 A  
HETATM   27  C   UNL     1      -7.978  12.391  67.696  1.00  0.00    -0.164 C  
HETATM   28  O   UNL     1      -8.395  12.424  68.982  1.00  0.00     0.166 OA 
HETATM   29  O   UNL     1      -6.891  11.977  67.345  1.00  0.00    -0.115 OA 
ENDBRANCH  20  21
ENDBRANCH  14  15
ENDBRANCH   8  14
BRANCH  11  30
HETATM   30  C   UNL     1      -9.868   8.334  68.358  1.00  0.00    -0.172 A  
HETATM   31  C   UNL     1     -11.664  11.359  68.731  1.00  0.00    -0.404 A  
HETATM   32  C   UNL     1     -12.354  11.811  69.864  1.00  0.00    -0.200 A  
HETATM   33  N   UNL     1     -10.289   9.467  67.817  1.00  0.00    -0.224 NA 
HETATM   34  C   UNL     1     -10.183   7.119  70.566  1.00  0.00    -0.196 C  
HETATM   35  C   UNL     1     -11.008  10.120  68.785  1.00  0.00    -0.223 A  
HETATM   36  C   UNL     1     -12.384  11.046  71.029  1.00  0.00    -0.490 A  
HETATM   37  N   UNL     1     -10.333   8.238  69.663  1.00  0.00    -0.214 NA 
HETATM   38  C   UNL     1     -11.053   9.376  69.957  1.00  0.00    -0.221 A  
HETATM   39  C   UNL     1     -11.733   9.810  71.101  1.00  0.00    -0.465 A  
ENDBRANCH  11  30
ENDBRANCH   3   4
ENDBRANCH   2   3
TORSDOF 6
ENDMDL
MODEL      156
REMARK 921   NORMALIZED FREE ENERGY PREDICTED BY IDOCK:   -2.46 KCAL/MOL
REMARK 922        TOTAL FREE ENERGY PREDICTED BY IDOCK:   -5.32 KCAL/MOL
REMARK 923 INTER-LIGAND FREE ENERGY PREDICTED BY IDOCK:   -4.82 KCAL/MOL
REMARK 924 INTRA-LIGAND FREE ENERGY PREDICTED BY IDOCK:   -0.50 KCAL/MOL
REMARK 927      BINDING AFFINITY PREDICTED BY RF-SCORE:    0.00 PKD
ROOT
HETATM    1  C   UNL     1     -10.049   2.868  63.674  1.00  0.00    -0.167 C  
HETATM    2  C   UNL     1      -9.020   2.600  64.765  1.00  0.00    -0.124 C  
ENDROOT
BRANCH   2   3
HETATM    3  C   UNL     1      -9.377   3.230  66.118  1.00  0.00    -0.130 C  
BRANCH   3   4
HETATM    4  C   UNL     1      -8.668   4.526  66.343  1.00  0.00    -0.112 A  
HETATM    5  N   UNL     1      -7.658   4.937  65.599  1.00  0.00    -0.085 NA 
HETATM    6  C   UNL     1      -7.201   6.096  66.168  1.00  0.00    -0.076 A  
HETATM    7  C   UNL     1      -7.978   6.425  67.269  1.00  0.00    -0.112 A  
HETATM    8  N   UNL     1      -8.949   5.447  67.336  1.00  0.00    -0.109 NA 
HETATM    9  C   UNL     1      -7.701   7.529  68.076  1.00  0.00    -0.116 A  
HETATM   10  C   UNL     1      -6.099   6.898  65.813  1.00  0.00    -0.036 A  
HETATM   11  C   UNL     1      -6.665   8.392  67.700  1.00  0.00    -0.066 A  
HETATM   12  C   UNL     1      -5.195   6.541  64.670  1.00  0.00    -0.022 C  
HETATM   13  C   UNL     1      -5.864   8.053  66.595  1.00  0.00    -0.044 A  
BRANCH   8  14
HETATM   14  C   UNL     1      -9.945   5.354  68.404  1.00  0.00    -0.161 C  
BRANCH  14  15
HETATM   15  C   UNL     1     -10.564   6.660  68.871  1.00  0.00    -0.264 A  
HETATM   16  C   UNL     1     -10.588   7.073  70.202  1.00  0.00    -0.249 A  
HETATM   17  C   UNL     1     -11.405   8.897  68.265  1.00  0.00     0.645 A  
HETATM   18  C   UNL     1     -11.011   7.589  67.912  1.00  0.00    -0.027 A  
HETATM   19  C   UNL     1     -11.025   8.369  70.550  1.00  0.00    -0.258 A  
HETATM   20  C   UNL     1     -11.416   9.336  69.597  1.00  0.00     0.122 A  
BRANCH  20  21
HETATM   21  C   UNL     1     -11.745  10.741  70.020  1.00  0.00    -0.417 A  
HETATM   22  C   UNL     1     -12.979  12.189  71.608  1.00  0.00    -0.427 A  
HETATM   23  C   UNL     1     -12.572  10.924  71.151  1.00  0.00    -0.532 A  
HETATM   24  C   UNL     1     -11.716  13.208  69.874  1.00  0.00    -0.327 A  
HETATM   25  C   UNL     1     -11.296  11.933  69.404  1.00  0.00    -0.327 A  
HETATM   26  C   UNL     1     -12.572  13.330  70.959  1.00  0.00    -0.408 A  
HETATM   27  C   UNL     1     -10.415  11.973  68.214  1.00  0.00    -0.204 C  
HETATM   28  O   UNL     1      -9.483  12.934  68.406  1.00  0.00    -0.215 OA 
HETATM   29  O   UNL     1     -10.533  11.338  67.185  1.00  0.00    -0.204 OA 
ENDBRANCH  20  21
ENDBRANCH  14  15
ENDBRANCH   8  14
BRANCH  11  30
HETATM   30  C   UNL     1      -6.387   9.627  68.455  1.00  0.00    -0.051 A  
HETATM   31  C   UNL     1      -5.782  11.577  71.343  1.00  0.00     0.353 A  
HETATM   32  C   UNL     1      -5.494  12.946  71.406  1.00  0.00    -0.072 A  
HETATM   33  N   UNL     1      -6.273   9.681  69.772  1.00  0.00    -0.043 NA 
HETATM   34  C   UNL     1      -6.089  11.237  66.513  1.00  0.00    -0.139 C  
HETATM   35  C   UNL     1      -5.993  10.985  70.089  1.00  0.00    -0.127 A  
HETATM   36  C   UNL     1      -5.421  13.711  70.243  1.00  0.00    -0.123 A  
HETATM   37  N   UNL     1      -6.157  10.885  67.914  1.00  0.00    -0.050 NA 
HETATM   38  C   UNL     1      -5.916  11.768  68.944  1.00  0.00    -0.051 A  
HETATM   39  C   UNL     1      -5.632  13.138  68.985  1.00  0.00    -0.071 A  
ENDBRANCH  11  30
ENDBRANCH   3   4
ENDBRANCH   2   3
TORSDOF 6
ENDMDL
MODEL      157
REMARK 921   NORMALIZED FREE ENERGY PREDICTED BY IDOCK:   -2.42 KCAL/MOL
REMARK 922        TOTAL FREE ENERGY PREDICTED BY IDOCK:   -5.27 KCAL/MOL
REMARK 923 INTER-LIGAND FREE ENERGY PREDICTED BY IDOCK:   -5.58 KCAL/MOL
REMARK 924 INTRA-LIGAND FREE ENERGY PREDICTED BY IDOCK:    0.31 KCAL/MOL
REMARK 927      BINDING AFFINITY PREDICTED BY RF-SCORE:    0.00 PKD
ROOT
HETATM    1  C   UNL     1     -10.267  20.615  65.485  1.00  0.00     0.504 C  
HETATM    2  C   UNL     1     -11.296  19.911  66.360  1.00  0.00     0.518 C  
ENDROOT
BRANCH   2   3
HETATM    3  C   UNL     1     -11.008  20.023  67.863  1.00  0.00     0.068 C  
BRANCH   3   4
HETATM    4  C   UNL     1      -9.998  19.022  68.323  1.00  0.00    -0.394 A  
HETATM    5  N   UNL     1      -8.735  19.326  68.562  1.00  0.00    -0.359 NA 
HETATM    6  C   UNL     1      -8.100  18.148  68.850  1.00  0.00    -0.156 A  
HETATM    7  C   UNL     1      -9.005  17.099  68.825  1.00  0.00    -0.233 A  
HETATM    8  N   UNL     1     -10.227  17.677  68.545  1.00  0.00    -0.367 NA 
HETATM    9  C   UNL     1      -8.619  15.772  69.024  1.00  0.00    -0.236 A  
HETATM   10  C   UNL     1      -6.736  17.902  69.107  1.00  0.00    -0.239 A  
HETATM   11  C   UNL     1      -7.287  15.506  69.365  1.00  0.00    -0.215 A  
HETATM   12  C   UNL     1      -5.714  19.000  69.079  1.00  0.00    -0.231 C  
HETATM   13  C   UNL     1      -6.362  16.565  69.375  1.00  0.00    -0.205 A  
BRANCH   8  14
HETATM   14  C   UNL     1     -11.463  16.921  68.341  1.00  0.00     0.171 C  
BRANCH  14  15
HETATM   15  C   UNL     1     -11.310  15.477  67.897  1.00  0.00    -0.309 A  
HETATM   16  C   UNL     1     -10.416  15.062  66.911  1.00  0.00    -0.279 A  
HETATM   17  C   UNL     1     -11.733  13.096  68.376  1.00  0.00    -0.386 A  
HETATM   18  C   UNL     1     -11.987  14.466  68.604  1.00  0.00    -0.332 A  
HETATM   19  C   UNL     1     -10.201  13.690  66.661  1.00  0.00    -0.276 A  
HETATM   20  C   UNL     1     -10.822  12.661  67.403  1.00  0.00    -0.272 A  
BRANCH  20  21
HETATM   21  C   UNL     1     -10.452  11.221  67.177  1.00  0.00    -0.259 A  
HETATM   22  C   UNL     1     -10.041   9.424  65.520  1.00  0.00     0.029 A  
HETATM   23  C   UNL     1     -10.338  10.759  65.847  1.00  0.00    -0.302 A  
HETATM   24  C   UNL     1      -9.886   8.906  67.833  1.00  0.00    -0.205 A  
HETATM   25  C   UNL     1     -10.184  10.254  68.175  1.00  0.00    -0.192 A  
HETATM   26  C   UNL     1      -9.838   8.492  66.510  1.00  0.00    -0.342 A  
HETATM   27  C   UNL     1     -10.235  10.525  69.631  1.00  0.00    -0.168 C  
HETATM   28  O   UNL     1      -9.172   9.926  70.213  1.00  0.00    -0.215 OA 
HETATM   29  O   UNL     1     -11.113  11.098  70.245  1.00  0.00    -0.160 OA 
ENDBRANCH  20  21
ENDBRANCH  14  15
ENDBRANCH   8  14
BRANCH  11  30
HETATM   30  C   UNL     1      -6.840  14.139  69.685  1.00  0.00    -0.056 A  
HETATM   31  C   UNL     1      -6.433  10.667  69.145  1.00  0.00    -0.056 A  
HETATM   32  C   UNL     1      -5.748   9.750  69.953  1.00  0.00    -0.041 A  
HETATM   33  N   UNL     1      -7.069  13.085  68.917  1.00  0.00    -0.093 NA 
HETATM   34  C   UNL     1      -5.537  14.619  71.812  1.00  0.00    -0.007 C  
HETATM   35  C   UNL     1      -6.481  12.013  69.537  1.00  0.00    -0.109 A  
HETATM   36  C   UNL     1      -5.129  10.164  71.131  1.00  0.00    -0.069 A  
HETATM   37  N   UNL     1      -6.084  13.759  70.787  1.00  0.00    -0.140 NA 
HETATM   38  C   UNL     1      -5.856  12.402  70.715  1.00  0.00    -0.002 A  
HETATM   39  C   UNL     1      -5.169  11.501  71.538  1.00  0.00     0.033 A  
ENDBRANCH  11  30
ENDBRANCH   3   4
ENDBRANCH   2   3
TORSDOF 6
ENDMDL
MODEL      158
REMARK 921   NORMALIZED FREE ENERGY PREDICTED BY IDOCK:   -2.41 KCAL/MOL
REMARK 922        TOTAL FREE ENERGY PREDICTED BY IDOCK:   -5.25 KCAL/MOL
REMARK 923 INTER-LIGAND FREE ENERGY PREDICTED BY IDOCK:   -6.12 KCAL/MOL
REMARK 924 INTRA-LIGAND FREE ENERGY PREDICTED BY IDOCK:    0.87 KCAL/MOL
REMARK 927      BINDING AFFINITY PREDICTED BY RF-SCORE:    0.00 PKD
ROOT
HETATM    1  C   UNL     1     -12.198   9.368  71.518  1.00  0.00    -0.448 C  
HETATM    2  C   UNL     1     -12.818   9.574  70.143  1.00  0.00     0.624 C  
ENDROOT
BRANCH   2   3
HETATM    3  C   UNL     1     -11.805   9.490  68.991  1.00  0.00     0.754 C  
BRANCH   3   4
HETATM    4  C   UNL     1     -11.406  10.839  68.490  1.00  0.00    -0.295 A  
HETATM    5  N   UNL     1     -12.176  11.580  67.714  1.00  0.00    -0.366 NA 
HETATM    6  C   UNL     1     -11.439  12.682  67.372  1.00  0.00    -0.337 A  
HETATM    7  C   UNL     1     -10.197  12.634  67.987  1.00  0.00    -0.230 A  
HETATM    8  N   UNL     1     -10.209  11.482  68.746  1.00  0.00    -0.211 NA 
HETATM    9  C   UNL     1      -9.216  13.603  67.767  1.00  0.00    -0.214 A  
HETATM   10  C   UNL     1     -11.761  13.746  66.507  1.00  0.00    -0.412 A  
HETATM   11  C   UNL     1      -9.537  14.715  66.979  1.00  0.00    -0.246 A  
HETATM   12  C   UNL     1     -13.068  13.801  65.772  1.00  0.00    -0.122 C  
HETATM   13  C   UNL     1     -10.788  14.759  66.340  1.00  0.00    -0.322 A  
BRANCH   8  14
HETATM   14  C   UNL     1      -9.059  10.989  69.505  1.00  0.00     0.377 C  
BRANCH  14  15
HETATM   15  C   UNL     1      -8.881   9.482  69.566  1.00  0.00    -0.185 A  
HETATM   16  C   UNL     1      -8.692   8.772  70.751  1.00  0.00    -0.224 A  
HETATM   17  C   UNL     1      -9.113   7.312  68.419  1.00  0.00    -0.135 A  
HETATM   18  C   UNL     1      -9.062   8.722  68.395  1.00  0.00    -0.141 A  
HETATM   19  C   UNL     1      -8.702   7.361  70.758  1.00  0.00    -0.145 A  
HETATM   20  C   UNL     1      -8.945   6.582  69.605  1.00  0.00    -0.141 A  
BRANCH  20  21
HETATM   21  C   UNL     1      -9.074   5.087  69.702  1.00  0.00    -0.151 A  
HETATM   22  C   UNL     1      -8.731   2.903  68.582  1.00  0.00    -0.137 A  
HETATM   23  C   UNL     1      -8.619   4.304  68.617  1.00  0.00    -0.111 A  
HETATM   24  C   UNL     1      -9.711   2.939  70.745  1.00  0.00    -0.121 A  
HETATM   25  C   UNL     1      -9.601   4.356  70.793  1.00  0.00    -0.259 A  
HETATM   26  C   UNL     1      -9.297   2.221  69.633  1.00  0.00    -0.163 A  
HETATM   27  C   UNL     1     -10.124   4.975  72.034  1.00  0.00    -0.196 C  
HETATM   28  O   UNL     1      -9.682   4.253  73.088  1.00  0.00    -0.125 OA 
HETATM   29  O   UNL     1     -10.894   5.909  72.126  1.00  0.00    -0.221 OA 
ENDBRANCH  20  21
ENDBRANCH  14  15
ENDBRANCH   8  14
BRANCH  11  30
HETATM   30  C   UNL     1      -8.579  15.819  66.791  1.00  0.00    -0.270 A  
HETATM   31  C   UNL     1      -7.559  19.094  65.925  1.00  0.00    -0.239 A  
HETATM   32  C   UNL     1      -6.275  19.645  66.027  1.00  0.00    -0.199 A  
HETATM   33  N   UNL     1      -8.909  17.016  66.331  1.00  0.00    -0.294 NA 
HETATM   34  C   UNL     1      -6.491  14.718  67.728  1.00  0.00    -0.164 C  
HETATM   35  C   UNL     1      -7.760  17.763  66.323  1.00  0.00    -0.273 A  
HETATM   36  C   UNL     1      -5.212  18.885  66.512  1.00  0.00    -0.150 A  
HETATM   37  N   UNL     1      -7.227  15.796  67.107  1.00  0.00    -0.213 NA 
HETATM   38  C   UNL     1      -6.685  17.026  66.803  1.00  0.00    -0.230 A  
HETATM   39  C   UNL     1      -5.393  17.557  66.910  1.00  0.00    -0.183 A  
ENDBRANCH  11  30
ENDBRANCH   3   4
ENDBRANCH   2   3
TORSDOF 6
ENDMDL
MODEL      159
REMARK 921   NORMALIZED FREE ENERGY PREDICTED BY IDOCK:   -2.39 KCAL/MOL
REMARK 922        TOTAL FREE ENERGY PREDICTED BY IDOCK:   -5.23 KCAL/MOL
REMARK 923 INTER-LIGAND FREE ENERGY PREDICTED BY IDOCK:   -4.45 KCAL/MOL
REMARK 924 INTRA-LIGAND FREE ENERGY PREDICTED BY IDOCK:   -0.78 KCAL/MOL
REMARK 927      BINDING AFFINITY PREDICTED BY RF-SCORE:    0.00 PKD
ROOT
HETATM    1  C   UNL     1     -11.329   7.172  69.509  1.00  0.00    -0.056 C  
HETATM    2  C   UNL     1     -11.095   8.533  68.869  1.00  0.00     0.236 C  
ENDROOT
BRANCH   2   3
HETATM    3  C   UNL     1      -9.634   9.001  68.929  1.00  0.00    -0.156 C  
BRANCH   3   4
HETATM    4  C   UNL     1      -9.514  10.490  68.898  1.00  0.00    -0.193 A  
HETATM    5  N   UNL     1     -10.554  11.297  68.788  1.00  0.00    -0.196 NA 
HETATM    6  C   UNL     1     -10.050  12.566  68.682  1.00  0.00    -0.130 A  
HETATM    7  C   UNL     1      -8.667  12.540  68.770  1.00  0.00     0.163 A  
HETATM    8  N   UNL     1      -8.339  11.214  68.968  1.00  0.00    -0.100 NA 
HETATM    9  C   UNL     1      -7.887  13.689  68.634  1.00  0.00    -0.096 A  
HETATM   10  C   UNL     1     -10.724  13.785  68.472  1.00  0.00    -0.274 A  
HETATM   11  C   UNL     1      -8.531  14.926  68.508  1.00  0.00    -0.163 A  
HETATM   12  C   UNL     1     -12.214  13.848  68.305  1.00  0.00    -0.185 C  
HETATM   13  C   UNL     1      -9.933  14.956  68.401  1.00  0.00    -0.222 A  
BRANCH   8  14
HETATM   14  C   UNL     1      -6.966  10.711  69.035  1.00  0.00    -0.080 C  
BRANCH  14  15
HETATM   15  C   UNL     1      -6.725   9.320  68.474  1.00  0.00    -0.058 A  
HETATM   16  C   UNL     1      -6.675   8.168  69.258  1.00  0.00    -0.040 A  
HETATM   17  C   UNL     1      -6.680   7.854  66.492  1.00  0.00    -0.058 A  
HETATM   18  C   UNL     1      -6.695   9.138  67.079  1.00  0.00    -0.072 A  
HETATM   19  C   UNL     1      -6.617   6.890  68.663  1.00  0.00    -0.054 A  
HETATM   20  C   UNL     1      -6.651   6.684  67.266  1.00  0.00    -0.054 A  
BRANCH  20  21
HETATM   21  C   UNL     1      -6.719   5.294  66.696  1.00  0.00    -0.061 A  
HETATM   22  C   UNL     1      -5.453   3.353  65.817  1.00  0.00    -0.013 A  
HETATM   23  C   UNL     1      -5.507   4.634  66.393  1.00  0.00    -0.013 A  
HETATM   24  C   UNL     1      -7.826   3.252  65.851  1.00  0.00    -0.085 A  
HETATM   25  C   UNL     1      -7.892   4.547  66.436  1.00  0.00    -0.099 A  
HETATM   26  C   UNL     1      -6.610   2.670  65.524  1.00  0.00    -0.032 A  
HETATM   27  C   UNL     1      -9.266   5.041  66.688  1.00  0.00    -0.129 C  
HETATM   28  O   UNL     1      -9.983   4.039  67.245  1.00  0.00    -0.149 OA 
HETATM   29  O   UNL     1      -9.733   6.119  66.377  1.00  0.00    -0.160 OA 
ENDBRANCH  20  21
ENDBRANCH  14  15
ENDBRANCH   8  14
BRANCH  11  30
HETATM   30  C   UNL     1      -7.766  16.184  68.461  1.00  0.00    -0.170 A  
HETATM   31  C   UNL     1      -5.609  18.698  69.702  1.00  0.00    -0.233 A  
HETATM   32  C   UNL     1      -5.144  19.835  69.029  1.00  0.00    -0.195 A  
HETATM   33  N   UNL     1      -7.035  16.646  69.464  1.00  0.00    -0.187 NA 
HETATM   34  C   UNL     1      -8.209  16.846  66.049  1.00  0.00    -0.143 C  
HETATM   35  C   UNL     1      -6.467  17.814  69.029  1.00  0.00    -0.233 A  
HETATM   36  C   UNL     1      -5.529  20.089  67.714  1.00  0.00    -0.208 A  
HETATM   37  N   UNL     1      -7.653  17.036  67.369  1.00  0.00    -0.162 NA 
HETATM   38  C   UNL     1      -6.836  18.089  67.719  1.00  0.00    -0.200 A  
HETATM   39  C   UNL     1      -6.385  19.221  67.029  1.00  0.00    -0.189 A  
ENDBRANCH  11  30
ENDBRANCH   3   4
ENDBRANCH   2   3
TORSDOF 6
ENDMDL
MODEL      160
REMARK 921   NORMALIZED FREE ENERGY PREDICTED BY IDOCK:   -2.32 KCAL/MOL
REMARK 922        TOTAL FREE ENERGY PREDICTED BY IDOCK:   -5.14 KCAL/MOL
REMARK 923 INTER-LIGAND FREE ENERGY PREDICTED BY IDOCK:   -3.69 KCAL/MOL
REMARK 924 INTRA-LIGAND FREE ENERGY PREDICTED BY IDOCK:   -1.44 KCAL/MOL
REMARK 927      BINDING AFFINITY PREDICTED BY RF-SCORE:    0.00 PKD
ROOT
HETATM    1  C   UNL     1     -14.236   8.553  70.369  1.00  0.00     1.311 C  
HETATM    2  C   UNL     1     -13.624   7.744  71.505  1.00  0.00    -0.391 C  
ENDROOT
BRANCH   2   3
HETATM    3  C   UNL     1     -12.758   8.579  72.459  1.00  0.00    -0.329 C  
BRANCH   3   4
HETATM    4  C   UNL     1     -12.444   9.930  71.903  1.00  0.00    -0.347 A  
HETATM    5  N   UNL     1     -13.195  10.994  72.120  1.00  0.00    -0.390 NA 
HETATM    6  C   UNL     1     -12.661  12.006  71.369  1.00  0.00    -0.275 A  
HETATM    7  C   UNL     1     -11.529  11.561  70.704  1.00  0.00     0.366 A  
HETATM    8  N   UNL     1     -11.365  10.249  71.100  1.00  0.00    -0.255 NA 
HETATM    9  C   UNL     1     -10.815  12.370  69.819  1.00  0.00     0.400 A  
HETATM   10  C   UNL     1     -13.120  13.325  71.182  1.00  0.00    -0.224 A  
HETATM   11  C   UNL     1     -11.197  13.710  69.677  1.00  0.00    -0.147 A  
HETATM   12  C   UNL     1     -14.377  13.826  71.830  1.00  0.00    -0.273 C  
HETATM   13  C   UNL     1     -12.355  14.161  70.335  1.00  0.00    -0.428 A  
BRANCH   8  14
HETATM   14  C   UNL     1     -10.330   9.358  70.574  1.00  0.00    -0.281 C  
BRANCH  14  15
HETATM   15  C   UNL     1      -9.938   9.557  69.120  1.00  0.00    -0.185 A  
HETATM   16  C   UNL     1     -10.798   9.318  68.048  1.00  0.00    -0.166 A  
HETATM   17  C   UNL     1      -8.362  10.552  67.506  1.00  0.00    -0.118 A  
HETATM   18  C   UNL     1      -8.700  10.154  68.817  1.00  0.00    -0.138 A  
HETATM   19  C   UNL     1     -10.433   9.680  66.734  1.00  0.00    -0.257 A  
HETATM   20  C   UNL     1      -9.223  10.337  66.419  1.00  0.00    -0.186 A  
BRANCH  20  21
HETATM   21  C   UNL     1      -8.950  10.815  65.019  1.00  0.00    -0.211 A  
HETATM   22  C   UNL     1      -9.568  12.399  63.216  1.00  0.00     0.598 A  
HETATM   23  C   UNL     1      -9.708  11.899  64.523  1.00  0.00    -0.132 A  
HETATM   24  C   UNL     1      -7.853  10.808  62.805  1.00  0.00    -0.053 A  
HETATM   25  C   UNL     1      -7.985  10.296  64.125  1.00  0.00    -0.126 A  
HETATM   26  C   UNL     1      -8.659  11.840  62.349  1.00  0.00     0.749 A  
HETATM   27  C   UNL     1      -7.077   9.169  64.444  1.00  0.00    -0.091 C  
HETATM   28  O   UNL     1      -5.842   9.474  63.985  1.00  0.00    -0.077 OA 
HETATM   29  O   UNL     1      -7.371   8.101  64.943  1.00  0.00    -0.080 OA 
ENDBRANCH  20  21
ENDBRANCH  14  15
ENDBRANCH   8  14
BRANCH  11  30
HETATM   30  C   UNL     1     -10.424  14.639  68.835  1.00  0.00    -0.248 A  
HETATM   31  C   UNL     1      -7.851  16.955  68.106  1.00  0.00    -0.189 A  
HETATM   32  C   UNL     1      -7.572  17.565  66.876  1.00  0.00    -0.245 A  
HETATM   33  N   UNL     1      -9.383  15.336  69.262  1.00  0.00    -0.237 NA 
HETATM   34  C   UNL     1     -11.594  14.253  66.614  1.00  0.00    -0.383 C  
HETATM   35  C   UNL     1      -8.927  16.057  68.190  1.00  0.00    -0.183 A  
HETATM   36  C   UNL     1      -8.351  17.289  65.753  1.00  0.00     0.210 A  
HETATM   37  N   UNL     1     -10.628  14.886  67.483  1.00  0.00    -0.262 NA 
HETATM   38  C   UNL     1      -9.688  15.799  67.058  1.00  0.00    -0.228 A  
HETATM   39  C   UNL     1      -9.428  16.400  65.819  1.00  0.00    -0.191 A  
ENDBRANCH  11  30
ENDBRANCH   3   4
ENDBRANCH   2   3
TORSDOF 6
ENDMDL
MODEL      161
REMARK 921   NORMALIZED FREE ENERGY PREDICTED BY IDOCK:   -2.31 KCAL/MOL
REMARK 922        TOTAL FREE ENERGY PREDICTED BY IDOCK:   -5.12 KCAL/MOL
REMARK 923 INTER-LIGAND FREE ENERGY PREDICTED BY IDOCK:   -8.52 KCAL/MOL
REMARK 924 INTRA-LIGAND FREE ENERGY PREDICTED BY IDOCK:    3.40 KCAL/MOL
REMARK 927      BINDING AFFINITY PREDICTED BY RF-SCORE:    0.00 PKD
ROOT
HETATM    1  C   UNL     1      -8.147   3.550  68.080  1.00  0.00    -0.082 C  
HETATM    2  C   UNL     1      -8.435   5.045  68.036  1.00  0.00    -0.103 C  
ENDROOT
BRANCH   2   3
HETATM    3  C   UNL     1      -9.875   5.384  67.629  1.00  0.00    -0.176 C  
BRANCH   3   4
HETATM    4  C   UNL     1     -10.465   6.463  68.478  1.00  0.00    -0.224 A  
HETATM    5  N   UNL     1     -11.331   6.229  69.448  1.00  0.00    -0.421 NA 
HETATM    6  C   UNL     1     -11.725   7.452  69.920  1.00  0.00     0.163 A  
HETATM    7  C   UNL     1     -11.053   8.462  69.248  1.00  0.00     0.162 A  
HETATM    8  N   UNL     1     -10.206   7.817  68.371  1.00  0.00    -0.196 NA 
HETATM    9  C   UNL     1     -11.305   9.815  69.487  1.00  0.00    -0.127 A  
HETATM   10  C   UNL     1     -12.686   7.770  70.900  1.00  0.00    -0.009 A  
HETATM   11  C   UNL     1     -12.192  10.161  70.513  1.00  0.00    -0.352 A  
HETATM   12  C   UNL     1     -13.482   6.709  71.601  1.00  0.00    -0.049 C  
HETATM   13  C   UNL     1     -12.889   9.141  71.184  1.00  0.00    -0.251 A  
BRANCH   8  14
HETATM   14  C   UNL     1      -9.359   8.504  67.395  1.00  0.00    -0.148 C  
BRANCH  14  15
HETATM   15  C   UNL     1      -9.618   9.988  67.198  1.00  0.00    -0.202 A  
HETATM   16  C   UNL     1      -8.730  10.988  67.592  1.00  0.00    -0.128 A  
HETATM   17  C   UNL     1     -10.925  11.738  66.055  1.00  0.00    -0.355 A  
HETATM   18  C   UNL     1     -10.737  10.395  66.448  1.00  0.00    -0.134 A  
HETATM   19  C   UNL     1      -8.950  12.334  67.231  1.00  0.00    -0.187 A  
HETATM   20  C   UNL     1     -10.031  12.753  66.425  1.00  0.00    -0.268 A  
BRANCH  20  21
HETATM   21  C   UNL     1     -10.138  14.181  65.965  1.00  0.00    -0.330 A  
HETATM   22  C   UNL     1     -11.197  15.774  64.390  1.00  0.00    -0.249 A  
HETATM   23  C   UNL     1     -11.048  14.484  64.928  1.00  0.00    -0.401 A  
HETATM   24  C   UNL     1      -9.578  16.588  65.926  1.00  0.00    -0.284 A  
HETATM   25  C   UNL     1      -9.420  15.287  66.478  1.00  0.00    -0.308 A  
HETATM   26  C   UNL     1     -10.448  16.822  64.871  1.00  0.00     0.247 A  
HETATM   27  C   UNL     1      -8.425  15.197  67.572  1.00  0.00    -0.170 C  
HETATM   28  O   UNL     1      -8.618  16.240  68.411  1.00  0.00    -0.185 OA 
HETATM   29  O   UNL     1      -7.517  14.397  67.682  1.00  0.00    -0.145 OA 
ENDBRANCH  20  21
ENDBRANCH  14  15
ENDBRANCH   8  14
BRANCH  11  30
HETATM   30  C   UNL     1     -12.424  11.569  70.879  1.00  0.00    -0.366 A  
HETATM   31  C   UNL     1     -13.370  14.239  72.998  1.00  0.00    -0.437 A  
HETATM   32  C   UNL     1     -13.312  15.612  72.723  1.00  0.00    -0.640 A  
HETATM   33  N   UNL     1     -12.895  11.962  72.052  1.00  0.00    -0.249 NA 
HETATM   34  C   UNL     1     -11.525  12.693  68.785  1.00  0.00    -0.306 C  
HETATM   35  C   UNL     1     -12.945  13.331  72.015  1.00  0.00    -0.300 A  
HETATM   36  C   UNL     1     -12.843  16.071  71.493  1.00  0.00    -0.176 A  
HETATM   37  N   UNL     1     -12.144  12.679  70.092  1.00  0.00    -0.334 NA 
HETATM   38  C   UNL     1     -12.483  13.813  70.798  1.00  0.00    -0.370 A  
HETATM   39  C   UNL     1     -12.418  15.181  70.502  1.00  0.00    -0.429 A  
ENDBRANCH  11  30
ENDBRANCH   3   4
ENDBRANCH   2   3
TORSDOF 6
ENDMDL
MODEL      162
REMARK 921   NORMALIZED FREE ENERGY PREDICTED BY IDOCK:   -2.28 KCAL/MOL
REMARK 922        TOTAL FREE ENERGY PREDICTED BY IDOCK:   -5.08 KCAL/MOL
REMARK 923 INTER-LIGAND FREE ENERGY PREDICTED BY IDOCK:   -6.76 KCAL/MOL
REMARK 924 INTRA-LIGAND FREE ENERGY PREDICTED BY IDOCK:    1.68 KCAL/MOL
REMARK 927      BINDING AFFINITY PREDICTED BY RF-SCORE:    0.00 PKD
ROOT
HETATM    1  C   UNL     1     -11.993   3.887  73.114  1.00  0.00     0.300 C  
HETATM    2  C   UNL     1     -10.921   4.891  72.712  1.00  0.00    -0.294 C  
ENDROOT
BRANCH   2   3
HETATM    3  C   UNL     1     -10.611   4.894  71.208  1.00  0.00    -0.093 C  
BRANCH   3   4
HETATM    4  C   UNL     1      -9.700   6.014  70.820  1.00  0.00    -0.175 A  
HETATM    5  N   UNL     1      -8.402   6.007  71.062  1.00  0.00    -0.122 NA 
HETATM    6  C   UNL     1      -7.927   7.230  70.670  1.00  0.00    -0.099 A  
HETATM    7  C   UNL     1      -8.955   7.993  70.138  1.00  0.00    -0.150 A  
HETATM    8  N   UNL     1     -10.072   7.183  70.184  1.00  0.00    -0.187 NA 
HETATM    9  C   UNL     1      -8.767   9.308  69.711  1.00  0.00    -0.168 A  
HETATM   10  C   UNL     1      -6.629   7.767  70.778  1.00  0.00    -0.038 A  
HETATM   11  C   UNL     1      -7.472   9.840  69.728  1.00  0.00    -0.127 A  
HETATM   12  C   UNL     1      -5.505   6.999  71.408  1.00  0.00    -0.028 C  
HETATM   13  C   UNL     1      -6.430   9.077  70.283  1.00  0.00    -0.043 A  
BRANCH   8  14
HETATM   14  C   UNL     1     -11.415   7.616  69.794  1.00  0.00     0.160 C  
BRANCH  14  15
HETATM   15  C   UNL     1     -11.668   9.114  69.785  1.00  0.00     0.322 A  
HETATM   16  C   UNL     1     -12.237   9.809  70.851  1.00  0.00    -0.390 A  
HETATM   17  C   UNL     1     -11.196  11.298  68.743  1.00  0.00    -0.311 A  
HETATM   18  C   UNL     1     -11.176   9.887  68.716  1.00  0.00    -0.122 A  
HETATM   19  C   UNL     1     -12.292  11.219  70.848  1.00  0.00    -0.490 A  
HETATM   20  C   UNL     1     -11.747  12.014  69.816  1.00  0.00    -0.390 A  
BRANCH  20  21
HETATM   21  C   UNL     1     -11.718  13.513  69.934  1.00  0.00    -0.341 A  
HETATM   22  C   UNL     1     -10.806  15.642  69.053  1.00  0.00    -0.254 A  
HETATM   23  C   UNL     1     -10.940  14.243  69.009  1.00  0.00    -0.282 A  
HETATM   24  C   UNL     1     -12.270  15.710  70.922  1.00  0.00    -0.466 A  
HETATM   25  C   UNL     1     -12.414  14.295  70.886  1.00  0.00    -0.424 A  
HETATM   26  C   UNL     1     -11.451  16.374  70.022  1.00  0.00    -0.097 A  
HETATM   27  C   UNL     1     -13.294  13.737  71.939  1.00  0.00    -0.414 C  
HETATM   28  O   UNL     1     -14.407  14.502  72.015  1.00  0.00    -0.491 OA 
HETATM   29  O   UNL     1     -13.053  12.813  72.690  1.00  0.00    -0.305 OA 
ENDBRANCH  20  21
ENDBRANCH  14  15
ENDBRANCH   8  14
BRANCH  11  30
HETATM   30  C   UNL     1      -7.193  11.186  69.198  1.00  0.00    -0.123 A  
HETATM   31  C   UNL     1      -7.798  14.080  67.256  1.00  0.00    -0.143 A  
HETATM   32  C   UNL     1      -7.037  15.256  67.213  1.00  0.00    -0.187 A  
HETATM   33  N   UNL     1      -7.962  11.813  68.321  1.00  0.00    -0.140 NA 
HETATM   34  C   UNL     1      -5.128  11.746  70.567  1.00  0.00    -0.107 C  
HETATM   35  C   UNL     1      -7.386  13.036  68.099  1.00  0.00    -0.118 A  
HETATM   36  C   UNL     1      -5.886  15.387  67.989  1.00  0.00    -0.150 A  
HETATM   37  N   UNL     1      -6.135  12.009  69.565  1.00  0.00    -0.101 NA 
HETATM   38  C   UNL     1      -6.236  13.190  68.862  1.00  0.00    -0.088 A  
HETATM   39  C   UNL     1      -5.460  14.356  68.831  1.00  0.00    -0.087 A  
ENDBRANCH  11  30
ENDBRANCH   3   4
ENDBRANCH   2   3
TORSDOF 6
ENDMDL
MODEL      163
REMARK 921   NORMALIZED FREE ENERGY PREDICTED BY IDOCK:   -2.26 KCAL/MOL
REMARK 922        TOTAL FREE ENERGY PREDICTED BY IDOCK:   -5.06 KCAL/MOL
REMARK 923 INTER-LIGAND FREE ENERGY PREDICTED BY IDOCK:   -4.19 KCAL/MOL
REMARK 924 INTRA-LIGAND FREE ENERGY PREDICTED BY IDOCK:   -0.87 KCAL/MOL
REMARK 927      BINDING AFFINITY PREDICTED BY RF-SCORE:    0.00 PKD
ROOT
HETATM    1  C   UNL     1     -10.296   4.482  63.430  1.00  0.00     0.307 C  
HETATM    2  C   UNL     1      -8.844   4.515  62.975  1.00  0.00    -0.121 C  
ENDROOT
BRANCH   2   3
HETATM    3  C   UNL     1      -7.960   3.460  63.656  1.00  0.00    -0.081 C  
BRANCH   3   4
HETATM    4  C   UNL     1      -7.899   3.645  65.138  1.00  0.00    -0.086 A  
HETATM    5  N   UNL     1      -8.527   2.856  65.991  1.00  0.00    -0.100 NA 
HETATM    6  C   UNL     1      -8.331   3.395  67.235  1.00  0.00    -0.092 A  
HETATM    7  C   UNL     1      -7.529   4.523  67.145  1.00  0.00    -0.081 A  
HETATM    8  N   UNL     1      -7.209   4.638  65.808  1.00  0.00    -0.074 NA 
HETATM    9  C   UNL     1      -7.215   5.307  68.256  1.00  0.00    -0.067 A  
HETATM   10  C   UNL     1      -8.845   2.989  68.482  1.00  0.00    -0.167 A  
HETATM   11  C   UNL     1      -7.641   4.882  69.520  1.00  0.00    -0.056 A  
HETATM   12  C   UNL     1      -9.770   1.815  68.612  1.00  0.00    -0.046 C  
HETATM   13  C   UNL     1      -8.469   3.749  69.613  1.00  0.00    -0.092 A  
BRANCH   8  14
HETATM   14  C   UNL     1      -6.438   5.746  65.243  1.00  0.00    -0.042 C  
BRANCH  14  15
HETATM   15  C   UNL     1      -6.939   7.147  65.549  1.00  0.00    -0.056 A  
HETATM   16  C   UNL     1      -8.288   7.497  65.581  1.00  0.00    -0.144 A  
HETATM   17  C   UNL     1      -6.441   9.381  66.465  1.00  0.00    -0.067 A  
HETATM   18  C   UNL     1      -6.021   8.127  65.972  1.00  0.00    -0.041 A  
HETATM   19  C   UNL     1      -8.695   8.769  66.035  1.00  0.00    -0.193 A  
HETATM   20  C   UNL     1      -7.795   9.742  66.523  1.00  0.00    -0.109 A  
BRANCH  20  21
HETATM   21  C   UNL     1      -8.301  11.028  67.116  1.00  0.00    -0.132 A  
HETATM   22  C   UNL     1      -7.757  13.345  67.805  1.00  0.00    -0.161 A  
HETATM   23  C   UNL     1      -7.404  12.113  67.227  1.00  0.00    -0.149 A  
HETATM   24  C   UNL     1      -9.961  12.533  68.158  1.00  0.00    -0.224 A  
HETATM   25  C   UNL     1      -9.615  11.283  67.574  1.00  0.00    -0.181 A  
HETATM   26  C   UNL     1      -9.026  13.549  68.292  1.00  0.00    -0.180 A  
HETATM   27  C   UNL     1     -10.716  10.292  67.541  1.00  0.00    -0.294 C  
HETATM   28  O   UNL     1     -11.840  10.917  67.123  1.00  0.00    -0.310 OA 
HETATM   29  O   UNL     1     -10.679   9.134  67.909  1.00  0.00    -0.230 OA 
ENDBRANCH  20  21
ENDBRANCH  14  15
ENDBRANCH   8  14
BRANCH  11  30
HETATM   30  C   UNL     1      -7.258   5.612  70.741  1.00  0.00    -0.079 A  
HETATM   31  C   UNL     1      -5.264   6.350  73.568  1.00  0.00    -0.037 A  
HETATM   32  C   UNL     1      -5.440   7.390  74.491  1.00  0.00    -0.066 A  
HETATM   33  N   UNL     1      -6.204   5.313  71.484  1.00  0.00    -0.029 NA 
HETATM   34  C   UNL     1      -9.023   7.438  70.700  1.00  0.00    -0.155 C  
HETATM   35  C   UNL     1      -6.173   6.225  72.506  1.00  0.00    -0.053 A  
HETATM   36  C   UNL     1      -6.501   8.284  74.361  1.00  0.00    -0.149 A  
HETATM   37  N   UNL     1      -7.896   6.730  71.263  1.00  0.00    -0.100 NA 
HETATM   38  C   UNL     1      -7.223   7.128  72.398  1.00  0.00    -0.068 A  
HETATM   39  C   UNL     1      -7.418   8.172  73.311  1.00  0.00    -0.189 A  
ENDBRANCH  11  30
ENDBRANCH   3   4
ENDBRANCH   2   3
TORSDOF 6
ENDMDL
MODEL      164
REMARK 921   NORMALIZED FREE ENERGY PREDICTED BY IDOCK:   -2.12 KCAL/MOL
REMARK 922        TOTAL FREE ENERGY PREDICTED BY IDOCK:   -4.87 KCAL/MOL
REMARK 923 INTER-LIGAND FREE ENERGY PREDICTED BY IDOCK:   -3.79 KCAL/MOL
REMARK 924 INTRA-LIGAND FREE ENERGY PREDICTED BY IDOCK:   -1.08 KCAL/MOL
REMARK 927      BINDING AFFINITY PREDICTED BY RF-SCORE:    0.00 PKD
ROOT
HETATM    1  C   UNL     1     -11.016  16.611  70.425  1.00  0.00    -0.014 C  
HETATM    2  C   UNL     1     -11.177  15.256  71.100  1.00  0.00    -0.378 C  
ENDROOT
BRANCH   2   3
HETATM    3  C   UNL     1     -12.189  14.336  70.403  1.00  0.00    -0.411 C  
BRANCH   3   4
HETATM    4  C   UNL     1     -11.538  13.425  69.414  1.00  0.00    -0.307 A  
HETATM    5  N   UNL     1     -10.905  13.858  68.339  1.00  0.00    -0.247 NA 
HETATM    6  C   UNL     1     -10.545  12.746  67.626  1.00  0.00    -0.219 A  
HETATM    7  C   UNL     1     -10.933  11.599  68.302  1.00  0.00    -0.226 A  
HETATM    8  N   UNL     1     -11.514  12.043  69.472  1.00  0.00    -0.291 NA 
HETATM    9  C   UNL     1     -10.744  10.320  67.775  1.00  0.00    -0.324 A  
HETATM   10  C   UNL     1      -9.914  12.649  66.370  1.00  0.00    -0.262 A  
HETATM   11  C   UNL     1     -10.045  10.188  66.569  1.00  0.00    -0.296 A  
HETATM   12  C   UNL     1      -9.537  13.865  65.577  1.00  0.00    -0.012 C  
HETATM   13  C   UNL     1      -9.665  11.348  65.872  1.00  0.00    -0.257 A  
BRANCH   8  14
HETATM   14  C   UNL     1     -12.145  11.166  70.458  1.00  0.00    -0.381 C  
BRANCH  14  15
HETATM   15  C   UNL     1     -11.455   9.838  70.724  1.00  0.00    -0.417 A  
HETATM   16  C   UNL     1     -11.856   8.630  70.153  1.00  0.00     0.284 A  
HETATM   17  C   UNL     1      -9.462   8.661  71.573  1.00  0.00    -0.320 A  
HETATM   18  C   UNL     1     -10.258   9.822  71.463  1.00  0.00     0.491 A  
HETATM   19  C   UNL     1     -11.076   7.465  70.305  1.00  0.00    -0.278 A  
HETATM   20  C   UNL     1      -9.840   7.443  70.988  1.00  0.00    -0.179 A  
BRANCH  20  21
HETATM   21  C   UNL     1      -8.992   6.201  71.003  1.00  0.00    -0.144 A  
HETATM   22  C   UNL     1      -8.287   4.192  72.269  1.00  0.00    -0.102 A  
HETATM   23  C   UNL     1      -9.066   5.353  72.130  1.00  0.00    -0.147 A  
HETATM   24  C   UNL     1      -7.330   4.593  70.132  1.00  0.00    -0.050 A  
HETATM   25  C   UNL     1      -8.115   5.769  69.980  1.00  0.00    -0.108 A  
HETATM   26  C   UNL     1      -7.402   3.822  71.284  1.00  0.00    -0.040 A  
HETATM   27  C   UNL     1      -7.892   6.500  68.711  1.00  0.00    -0.110 C  
HETATM   28  O   UNL     1      -7.865   5.601  67.701  1.00  0.00    -0.096 OA 
HETATM   29  O   UNL     1      -7.672   7.686  68.569  1.00  0.00    -0.113 OA 
ENDBRANCH  20  21
ENDBRANCH  14  15
ENDBRANCH   8  14
BRANCH  11  30
HETATM   30  C   UNL     1      -9.727   8.862  66.012  1.00  0.00    -0.238 A  
HETATM   31  C   UNL     1     -10.186   5.397  65.463  1.00  0.00     0.271 A  
HETATM   32  C   UNL     1      -9.424   4.552  64.645  1.00  0.00    -0.108 A  
HETATM   33  N   UNL     1     -10.429   7.766  66.258  1.00  0.00     0.278 NA 
HETATM   34  C   UNL     1      -7.770   9.498  64.524  1.00  0.00    -0.118 C  
HETATM   35  C   UNL     1      -9.838   6.754  65.548  1.00  0.00     1.097 A  
HETATM   36  C   UNL     1      -8.335   5.047  63.931  1.00  0.00    -0.132 A  
HETATM   37  N   UNL     1      -8.700   8.569  65.124  1.00  0.00    -0.159 NA 
HETATM   38  C   UNL     1      -8.748   7.224  64.827  1.00  0.00     0.360 A  
HETATM   39  C   UNL     1      -7.972   6.396  64.006  1.00  0.00    -0.090 A  
ENDBRANCH  11  30
ENDBRANCH   3   4
ENDBRANCH   2   3
TORSDOF 6
ENDMDL
MODEL      165
REMARK 921   NORMALIZED FREE ENERGY PREDICTED BY IDOCK:   -2.11 KCAL/MOL
REMARK 922        TOTAL FREE ENERGY PREDICTED BY IDOCK:   -4.86 KCAL/MOL
REMARK 923 INTER-LIGAND FREE ENERGY PREDICTED BY IDOCK:   -5.61 KCAL/MOL
REMARK 924 INTRA-LIGAND FREE ENERGY PREDICTED BY IDOCK:    0.76 KCAL/MOL
REMARK 927      BINDING AFFINITY PREDICTED BY RF-SCORE:    0.00 PKD
ROOT
HETATM    1  C   UNL     1      -7.845   2.713  63.119  1.00  0.00    -0.068 C  
HETATM    2  C   UNL     1      -6.466   3.341  62.970  1.00  0.00    -0.022 C  
ENDROOT
BRANCH   2   3
HETATM    3  C   UNL     1      -6.457   4.864  63.169  1.00  0.00    -0.026 C  
BRANCH   3   4
HETATM    4  C   UNL     1      -7.212   5.280  64.389  1.00  0.00    -0.055 A  
HETATM    5  N   UNL     1      -7.676   4.422  65.281  1.00  0.00    -0.085 NA 
HETATM    6  C   UNL     1      -8.399   5.154  66.184  1.00  0.00    -0.114 A  
HETATM    7  C   UNL     1      -8.345   6.501  65.859  1.00  0.00    -0.140 A  
HETATM    8  N   UNL     1      -7.535   6.576  64.745  1.00  0.00    -0.084 NA 
HETATM    9  C   UNL     1      -9.044   7.472  66.578  1.00  0.00    -0.201 A  
HETATM   10  C   UNL     1      -9.160   4.721  67.288  1.00  0.00    -0.127 A  
HETATM   11  C   UNL     1      -9.740   7.083  67.729  1.00  0.00    -0.156 A  
HETATM   12  C   UNL     1      -9.297   3.268  67.633  1.00  0.00    -0.245 C  
HETATM   13  C   UNL     1      -9.812   5.716  68.052  1.00  0.00    -0.162 A  
BRANCH   8  14
HETATM   14  C   UNL     1      -7.267   7.812  64.008  1.00  0.00    -0.080 C  
BRANCH  14  15
HETATM   15  C   UNL     1      -7.144   9.081  64.835  1.00  0.00    -0.091 A  
HETATM   16  C   UNL     1      -8.137  10.058  64.905  1.00  0.00    -0.154 A  
HETATM   17  C   UNL     1      -5.973  10.282  66.642  1.00  0.00    -0.062 A  
HETATM   18  C   UNL     1      -6.045   9.232  65.701  1.00  0.00    -0.059 A  
HETATM   19  C   UNL     1      -8.035  11.128  65.819  1.00  0.00     0.060 A  
HETATM   20  C   UNL     1      -6.972  11.262  66.740  1.00  0.00    -0.141 A  
BRANCH  20  21
HETATM   21  C   UNL     1      -6.987  12.352  67.776  1.00  0.00    -0.118 A  
HETATM   22  C   UNL     1      -7.520  14.717  68.285  1.00  0.00    -0.115 A  
HETATM   23  C   UNL     1      -7.498  13.617  67.411  1.00  0.00    -0.139 A  
HETATM   24  C   UNL     1      -6.571  13.364  69.992  1.00  0.00     0.138 A  
HETATM   25  C   UNL     1      -6.547  12.244  69.117  1.00  0.00    -0.105 A  
HETATM   26  C   UNL     1      -7.036  14.601  69.567  1.00  0.00    -0.165 A  
HETATM   27  C   UNL     1      -5.985  11.008  69.712  1.00  0.00    -0.086 C  
HETATM   28  O   UNL     1      -6.509  10.855  70.949  1.00  0.00    -0.316 OA 
HETATM   29  O   UNL     1      -5.131  10.284  69.242  1.00  0.00    -0.039 OA 
ENDBRANCH  20  21
ENDBRANCH  14  15
ENDBRANCH   8  14
BRANCH  11  30
HETATM   30  C   UNL     1     -10.414   8.074  68.585  1.00  0.00    -0.167 A  
HETATM   31  C   UNL     1     -11.403  11.312  69.611  1.00  0.00    -0.359 A  
HETATM   32  C   UNL     1     -12.237  11.652  70.685  1.00  0.00    -0.461 A  
HETATM   33  N   UNL     1     -10.365   9.382  68.386  1.00  0.00    -0.198 NA 
HETATM   34  C   UNL     1     -11.624   6.498  70.167  1.00  0.00    -0.402 C  
HETATM   35  C   UNL     1     -11.129   9.958  69.368  1.00  0.00    -0.199 A  
HETATM   36  C   UNL     1     -12.781  10.664  71.502  1.00  0.00    -0.549 A  
HETATM   37  N   UNL     1     -11.228   7.798  69.677  1.00  0.00    -0.035 NA 
HETATM   38  C   UNL     1     -11.683   8.991  70.197  1.00  0.00     0.102 A  
HETATM   39  C   UNL     1     -12.516   9.309  71.277  1.00  0.00    -0.389 A  
ENDBRANCH  11  30
ENDBRANCH   3   4
ENDBRANCH   2   3
TORSDOF 6
ENDMDL
MODEL      166
REMARK 921   NORMALIZED FREE ENERGY PREDICTED BY IDOCK:   -2.01 KCAL/MOL
REMARK 922        TOTAL FREE ENERGY PREDICTED BY IDOCK:   -4.71 KCAL/MOL
REMARK 923 INTER-LIGAND FREE ENERGY PREDICTED BY IDOCK:   -4.52 KCAL/MOL
REMARK 924 INTRA-LIGAND FREE ENERGY PREDICTED BY IDOCK:   -0.19 KCAL/MOL
REMARK 927      BINDING AFFINITY PREDICTED BY RF-SCORE:    0.00 PKD
ROOT
HETATM    1  C   UNL     1      -9.843   1.803  72.903  1.00  0.00    -0.150 C  
HETATM    2  C   UNL     1     -10.807   2.812  72.294  1.00  0.00     0.379 C  
ENDROOT
BRANCH   2   3
HETATM    3  C   UNL     1     -11.293   3.878  73.286  1.00  0.00    -0.206 C  
BRANCH   3   4
HETATM    4  C   UNL     1     -11.394   5.231  72.659  1.00  0.00    -0.231 A  
HETATM    5  N   UNL     1     -12.324   6.111  72.982  1.00  0.00     0.630 NA 
HETATM    6  C   UNL     1     -12.168   7.172  72.132  1.00  0.00    -0.218 A  
HETATM    7  C   UNL     1     -11.088   6.954  71.290  1.00  0.00    -0.258 A  
HETATM    8  N   UNL     1     -10.564   5.737  71.676  1.00  0.00    -0.238 NA 
HETATM    9  C   UNL     1     -10.734   7.850  70.280  1.00  0.00    -0.236 A  
HETATM   10  C   UNL     1     -12.943   8.341  72.002  1.00  0.00    -0.355 A  
HETATM   11  C   UNL     1     -11.433   9.059  70.181  1.00  0.00    -0.078 A  
HETATM   12  C   UNL     1     -14.158   8.584  72.848  1.00  0.00     0.069 C  
HETATM   13  C   UNL     1     -12.540   9.277  71.021  1.00  0.00    -0.248 A  
BRANCH   8  14
HETATM   14  C   UNL     1      -9.451   5.072  70.996  1.00  0.00    -0.162 C  
BRANCH  14  15
HETATM   15  C   UNL     1      -9.202   5.472  69.552  1.00  0.00    -0.151 A  
HETATM   16  C   UNL     1      -8.067   6.160  69.125  1.00  0.00    -0.109 A  
HETATM   17  C   UNL     1      -9.790   5.169  67.177  1.00  0.00    -0.191 A  
HETATM   18  C   UNL     1     -10.074   5.007  68.550  1.00  0.00    -0.184 A  
HETATM   19  C   UNL     1      -7.813   6.355  67.751  1.00  0.00    -0.104 A  
HETATM   20  C   UNL     1      -8.643   5.841  66.730  1.00  0.00    -0.112 A  
BRANCH  20  21
HETATM   21  C   UNL     1      -8.249   5.968  65.284  1.00  0.00    -0.138 A  
HETATM   22  C   UNL     1      -7.859   7.495  63.372  1.00  0.00    -0.124 A  
HETATM   23  C   UNL     1      -8.174   7.262  64.722  1.00  0.00    -0.055 A  
HETATM   24  C   UNL     1      -7.609   5.156  63.039  1.00  0.00    -0.065 A  
HETATM   25  C   UNL     1      -7.924   4.909  64.403  1.00  0.00    -0.104 A  
HETATM   26  C   UNL     1      -7.600   6.445  62.524  1.00  0.00    -0.078 A  
HETATM   27  C   UNL     1      -7.929   3.478  64.786  1.00  0.00    -0.089 C  
HETATM   28  O   UNL     1      -6.832   2.891  64.255  1.00  0.00    -0.035 OA 
HETATM   29  O   UNL     1      -8.796   2.877  65.389  1.00  0.00    -0.119 OA 
ENDBRANCH  20  21
ENDBRANCH  14  15
ENDBRANCH   8  14
BRANCH  11  30
HETATM   30  C   UNL     1     -11.044  10.088  69.201  1.00  0.00    -0.190 A  
HETATM   31  C   UNL     1     -10.005  13.295  68.129  1.00  0.00    -0.234 A  
HETATM   32  C   UNL     1      -9.710  13.707  66.822  1.00  0.00    -0.275 A  
HETATM   33  N   UNL     1     -10.729  11.334  69.519  1.00  0.00    -0.155 NA 
HETATM   34  C   UNL     1     -11.047   8.672  67.093  1.00  0.00     0.506 C  
HETATM   35  C   UNL     1     -10.405  11.968  68.348  1.00  0.00    -0.214 A  
HETATM   36  C   UNL     1      -9.817  12.816  65.756  1.00  0.00    -0.222 A  
HETATM   37  N   UNL     1     -10.900   9.905  67.831  1.00  0.00    -0.268 NA 
HETATM   38  C   UNL     1     -10.504  11.100  67.269  1.00  0.00    -0.226 A  
HETATM   39  C   UNL     1     -10.218  11.491  65.955  1.00  0.00    -0.283 A  
ENDBRANCH  11  30
ENDBRANCH   3   4
ENDBRANCH   2   3
TORSDOF 6
ENDMDL
MODEL      167
REMARK 921   NORMALIZED FREE ENERGY PREDICTED BY IDOCK:   -2.00 KCAL/MOL
REMARK 922        TOTAL FREE ENERGY PREDICTED BY IDOCK:   -4.71 KCAL/MOL
REMARK 923 INTER-LIGAND FREE ENERGY PREDICTED BY IDOCK:   -5.93 KCAL/MOL
REMARK 924 INTRA-LIGAND FREE ENERGY PREDICTED BY IDOCK:    1.22 KCAL/MOL
REMARK 927      BINDING AFFINITY PREDICTED BY RF-SCORE:    0.00 PKD
ROOT
HETATM    1  C   UNL     1     -13.473   9.354  72.563  1.00  0.00    -0.437 C  
HETATM    2  C   UNL     1     -12.098   8.803  72.209  1.00  0.00    -0.423 C  
ENDROOT
BRANCH   2   3
HETATM    3  C   UNL     1     -11.677   7.600  73.065  1.00  0.00    -0.081 C  
BRANCH   3   4
HETATM    4  C   UNL     1     -10.753   6.681  72.334  1.00  0.00    -0.223 A  
HETATM    5  N   UNL     1      -9.723   6.085  72.907  1.00  0.00    -0.155 NA 
HETATM    6  C   UNL     1      -9.056   5.422  71.912  1.00  0.00    -0.138 A  
HETATM    7  C   UNL     1      -9.717   5.583  70.704  1.00  0.00    -0.176 A  
HETATM    8  N   UNL     1     -10.834   6.340  70.997  1.00  0.00    -0.258 NA 
HETATM    9  C   UNL     1      -9.225   5.061  69.507  1.00  0.00    -0.167 A  
HETATM   10  C   UNL     1      -7.853   4.691  71.969  1.00  0.00    -0.099 A  
HETATM   11  C   UNL     1      -8.078   4.260  69.545  1.00  0.00    -0.062 A  
HETATM   12  C   UNL     1      -7.073   4.549  73.243  1.00  0.00    -0.078 C  
HETATM   13  C   UNL     1      -7.394   4.108  70.765  1.00  0.00    -0.041 A  
BRANCH   8  14
HETATM   14  C   UNL     1     -11.783   6.822  69.993  1.00  0.00    -0.272 C  
BRANCH  14  15
HETATM   15  C   UNL     1     -11.275   7.887  69.036  1.00  0.00     0.351 A  
HETATM   16  C   UNL     1     -10.637   7.603  67.829  1.00  0.00    -0.265 A  
HETATM   17  C   UNL     1     -11.322  10.252  68.340  1.00  0.00    -0.244 A  
HETATM   18  C   UNL     1     -11.584   9.238  69.286  1.00  0.00     0.450 A  
HETATM   19  C   UNL     1     -10.340   8.630  66.909  1.00  0.00    -0.355 A  
HETATM   20  C   UNL     1     -10.699   9.981  67.113  1.00  0.00    -0.279 A  
BRANCH  20  21
HETATM   21  C   UNL     1     -10.473  11.007  66.036  1.00  0.00    -0.304 A  
HETATM   22  C   UNL     1      -9.868  11.424  63.670  1.00  0.00    -0.380 A  
HETATM   23  C   UNL     1     -10.144  10.554  64.739  1.00  0.00    -0.406 A  
HETATM   24  C   UNL     1     -10.287  13.282  65.090  1.00  0.00    -0.336 A  
HETATM   25  C   UNL     1     -10.569  12.411  66.178  1.00  0.00    -0.283 A  
HETATM   26  C   UNL     1      -9.916  12.787  63.848  1.00  0.00    -0.010 A  
HETATM   27  C   UNL     1     -10.912  13.098  67.445  1.00  0.00    -0.264 C  
HETATM   28  O   UNL     1     -11.782  14.095  67.168  1.00  0.00    -0.361 OA 
HETATM   29  O   UNL     1     -10.442  12.894  68.547  1.00  0.00    -0.247 OA 
ENDBRANCH  20  21
ENDBRANCH  14  15
ENDBRANCH   8  14
BRANCH  11  30
HETATM   30  C   UNL     1      -7.566   3.600  68.332  1.00  0.00    -0.057 A  
HETATM   31  C   UNL     1      -7.615   2.593  64.941  1.00  0.00    -0.072 A  
HETATM   32  C   UNL     1      -6.626   1.886  64.244  1.00  0.00    -0.023 A  
HETATM   33  N   UNL     1      -8.205   3.581  67.172  1.00  0.00    -0.090 NA 
HETATM   34  C   UNL     1      -5.303   2.840  69.199  1.00  0.00    -0.013 C  
HETATM   35  C   UNL     1      -7.405   2.898  66.295  1.00  0.00    -0.067 A  
HETATM   36  C   UNL     1      -5.454   1.487  64.884  1.00  0.00    -0.005 A  
HETATM   37  N   UNL     1      -6.343   2.954  68.202  1.00  0.00    -0.032 NA 
HETATM   38  C   UNL     1      -6.229   2.489  66.910  1.00  0.00    -0.024 A  
HETATM   39  C   UNL     1      -5.229   1.779  66.233  1.00  0.00    -0.005 A  
ENDBRANCH  11  30
ENDBRANCH   3   4
ENDBRANCH   2   3
TORSDOF 6
ENDMDL
MODEL      168
REMARK 921   NORMALIZED FREE ENERGY PREDICTED BY IDOCK:   -1.99 KCAL/MOL
REMARK 922        TOTAL FREE ENERGY PREDICTED BY IDOCK:   -4.69 KCAL/MOL
REMARK 923 INTER-LIGAND FREE ENERGY PREDICTED BY IDOCK:   -5.60 KCAL/MOL
REMARK 924 INTRA-LIGAND FREE ENERGY PREDICTED BY IDOCK:    0.91 KCAL/MOL
REMARK 927      BINDING AFFINITY PREDICTED BY RF-SCORE:    0.00 PKD
ROOT
HETATM    1  C   UNL     1      -7.882   2.689  63.177  1.00  0.00    -0.068 C  
HETATM    2  C   UNL     1      -6.684   3.591  62.916  1.00  0.00    -0.031 C  
ENDROOT
BRANCH   2   3
HETATM    3  C   UNL     1      -6.967   5.079  63.164  1.00  0.00    -0.042 C  
BRANCH   3   4
HETATM    4  C   UNL     1      -7.567   5.325  64.511  1.00  0.00    -0.077 A  
HETATM    5  N   UNL     1      -7.572   4.423  65.476  1.00  0.00    -0.084 NA 
HETATM    6  C   UNL     1      -8.297   4.960  66.505  1.00  0.00    -0.107 A  
HETATM    7  C   UNL     1      -8.714   6.241  66.178  1.00  0.00    -0.145 A  
HETATM    8  N   UNL     1      -8.191   6.487  64.925  1.00  0.00    -0.126 NA 
HETATM    9  C   UNL     1      -9.523   7.003  67.023  1.00  0.00    -0.184 A  
HETATM   10  C   UNL     1      -8.668   4.387  67.738  1.00  0.00    -0.115 A  
HETATM   11  C   UNL     1      -9.838   6.494  68.288  1.00  0.00    -0.132 A  
HETATM   12  C   UNL     1      -8.293   2.981  68.102  1.00  0.00    -0.094 C  
HETATM   13  C   UNL     1      -9.432   5.189  68.618  1.00  0.00    -0.178 A  
BRANCH   8  14
HETATM   14  C   UNL     1      -8.453   7.701  64.151  1.00  0.00     0.228 C  
BRANCH  14  15
HETATM   15  C   UNL     1      -8.150   9.022  64.839  1.00  0.00    -0.137 A  
HETATM   16  C   UNL     1      -9.028  10.105  64.855  1.00  0.00    -0.230 A  
HETATM   17  C   UNL     1      -6.758  10.252  66.459  1.00  0.00    -0.090 A  
HETATM   18  C   UNL     1      -6.994   9.132  65.635  1.00  0.00    -0.081 A  
HETATM   19  C   UNL     1      -8.762  11.240  65.650  1.00  0.00    -0.078 A  
HETATM   20  C   UNL     1      -7.640  11.342  66.503  1.00  0.00    -0.080 A  
BRANCH  20  21
HETATM   21  C   UNL     1      -7.482  12.521  67.424  1.00  0.00    -0.153 A  
HETATM   22  C   UNL     1      -6.018  13.706  69.034  1.00  0.00    -0.084 A  
HETATM   23  C   UNL     1      -6.259  12.669  68.116  1.00  0.00    -0.083 A  
HETATM   24  C   UNL     1      -8.186  14.575  68.602  1.00  0.00    -0.152 A  
HETATM   25  C   UNL     1      -8.440  13.531  67.670  1.00  0.00    -0.184 A  
HETATM   26  C   UNL     1      -6.987  14.646  69.296  1.00  0.00    -0.147 A  
HETATM   27  C   UNL     1      -9.782  13.577  67.043  1.00  0.00    -0.251 C  
HETATM   28  O   UNL     1     -10.038  14.853  66.676  1.00  0.00    -0.248 OA 
HETATM   29  O   UNL     1     -10.582  12.668  66.944  1.00  0.00    -0.238 OA 
ENDBRANCH  20  21
ENDBRANCH  14  15
ENDBRANCH   8  14
BRANCH  11  30
HETATM   30  C   UNL     1     -10.604   7.290  69.263  1.00  0.00    -0.221 A  
HETATM   31  C   UNL     1     -12.264  10.163  70.489  1.00  0.00    -0.352 A  
HETATM   32  C   UNL     1     -12.962  10.299  71.696  1.00  0.00    -0.570 A  
HETATM   33  N   UNL     1     -10.956   8.553  69.075  1.00  0.00     0.016 NA 
HETATM   34  C   UNL     1     -11.037   5.499  71.010  1.00  0.00    -0.045 C  
HETATM   35  C   UNL     1     -11.669   8.930  70.183  1.00  0.00     0.134 A  
HETATM   36  C   UNL     1     -13.061   9.228  72.583  1.00  0.00    -0.305 A  
HETATM   37  N   UNL     1     -11.109   6.840  70.476  1.00  0.00    -0.278 NA 
HETATM   38  C   UNL     1     -11.781   7.878  71.083  1.00  0.00    -0.285 A  
HETATM   39  C   UNL     1     -12.471   7.993  72.296  1.00  0.00    -0.302 A  
ENDBRANCH  11  30
ENDBRANCH   3   4
ENDBRANCH   2   3
TORSDOF 6
ENDMDL
MODEL      169
REMARK 921   NORMALIZED FREE ENERGY PREDICTED BY IDOCK:   -1.94 KCAL/MOL
REMARK 922        TOTAL FREE ENERGY PREDICTED BY IDOCK:   -4.62 KCAL/MOL
REMARK 923 INTER-LIGAND FREE ENERGY PREDICTED BY IDOCK:   -5.61 KCAL/MOL
REMARK 924 INTRA-LIGAND FREE ENERGY PREDICTED BY IDOCK:    0.99 KCAL/MOL
REMARK 927      BINDING AFFINITY PREDICTED BY RF-SCORE:    0.00 PKD
ROOT
HETATM    1  C   UNL     1      -7.357  14.885  70.645  1.00  0.00     0.849 C  
HETATM    2  C   UNL     1      -5.916  14.750  70.172  1.00  0.00    -0.148 C  
ENDROOT
BRANCH   2   3
HETATM    3  C   UNL     1      -5.202  13.504  70.715  1.00  0.00    -0.129 C  
BRANCH   3   4
HETATM    4  C   UNL     1      -5.795  12.238  70.188  1.00  0.00    -0.161 A  
HETATM    5  N   UNL     1      -6.215  11.256  70.966  1.00  0.00    -0.217 NA 
HETATM    6  C   UNL     1      -6.583  10.233  70.135  1.00  0.00    -0.138 A  
HETATM    7  C   UNL     1      -6.422  10.611  68.811  1.00  0.00    -0.051 A  
HETATM    8  N   UNL     1      -5.975  11.915  68.856  1.00  0.00    -0.052 NA 
HETATM    9  C   UNL     1      -6.667   9.739  67.749  1.00  0.00    -0.069 A  
HETATM   10  C   UNL     1      -7.031   8.935  70.452  1.00  0.00    -0.052 A  
HETATM   11  C   UNL     1      -7.193   8.472  68.029  1.00  0.00    -0.087 A  
HETATM   12  C   UNL     1      -7.155   8.465  71.871  1.00  0.00    -0.103 C  
HETATM   13  C   UNL     1      -7.341   8.078  69.371  1.00  0.00    -0.080 A  
BRANCH   8  14
HETATM   14  C   UNL     1      -5.592  12.691  67.675  1.00  0.00    -0.130 C  
BRANCH  14  15
HETATM   15  C   UNL     1      -6.476  13.878  67.328  1.00  0.00     0.312 A  
HETATM   16  C   UNL     1      -7.855  13.787  67.142  1.00  0.00    -0.030 A  
HETATM   17  C   UNL     1      -6.722  16.328  67.223  1.00  0.00    -0.228 A  
HETATM   18  C   UNL     1      -5.921  15.171  67.334  1.00  0.00     0.116 A  
HETATM   19  C   UNL     1      -8.641  14.948  66.988  1.00  0.00    -0.265 A  
HETATM   20  C   UNL     1      -8.113  16.257  67.055  1.00  0.00    -0.244 A  
BRANCH  20  21
HETATM   21  C   UNL     1      -9.021  17.455  67.015  1.00  0.00    -0.253 A  
HETATM   22  C   UNL     1      -9.471  19.740  67.862  1.00  0.00    -0.458 A  
HETATM   23  C   UNL     1      -8.673  18.584  67.789  1.00  0.00    -0.290 A  
HETATM   24  C   UNL     1     -11.009  18.759  66.340  1.00  0.00     0.026 A  
HETATM   25  C   UNL     1     -10.209  17.585  66.258  1.00  0.00    -0.356 A  
HETATM   26  C   UNL     1     -10.649  19.820  67.158  1.00  0.00    -0.577 A  
HETATM   27  C   UNL     1     -10.752  16.529  65.372  1.00  0.00    -0.259 C  
HETATM   28  O   UNL     1     -11.174  17.110  64.226  1.00  0.00    -1.126 OA 
HETATM   29  O   UNL     1     -10.897  15.351  65.630  1.00  0.00    -0.331 OA 
ENDBRANCH  20  21
ENDBRANCH  14  15
ENDBRANCH   8  14
BRANCH  11  30
HETATM   30  C   UNL     1      -7.566   7.543  66.947  1.00  0.00    -0.102 A  
HETATM   31  C   UNL     1      -9.307   4.841  65.471  1.00  0.00    -0.163 A  
HETATM   32  C   UNL     1      -9.238   4.403  64.142  1.00  0.00    -0.140 A  
HETATM   33  N   UNL     1      -8.436   6.555  67.085  1.00  0.00    -0.112 NA 
HETATM   34  C   UNL     1      -6.236   8.573  65.044  1.00  0.00    -0.060 C  
HETATM   35  C   UNL     1      -8.529   5.941  65.864  1.00  0.00    -0.141 A  
HETATM   36  C   UNL     1      -8.408   5.045  63.224  1.00  0.00    -0.119 A  
HETATM   37  N   UNL     1      -7.114   7.588  65.634  1.00  0.00    -0.060 NA 
HETATM   38  C   UNL     1      -7.710   6.564  64.931  1.00  0.00    -0.105 A  
HETATM   39  C   UNL     1      -7.625   6.141  63.599  1.00  0.00    -0.082 A  
ENDBRANCH  11  30
ENDBRANCH   3   4
ENDBRANCH   2   3
TORSDOF 6
ENDMDL
MODEL      170
REMARK 921   NORMALIZED FREE ENERGY PREDICTED BY IDOCK:   -1.89 KCAL/MOL
REMARK 922        TOTAL FREE ENERGY PREDICTED BY IDOCK:   -4.56 KCAL/MOL
REMARK 923 INTER-LIGAND FREE ENERGY PREDICTED BY IDOCK:   -6.16 KCAL/MOL
REMARK 924 INTRA-LIGAND FREE ENERGY PREDICTED BY IDOCK:    1.60 KCAL/MOL
REMARK 927      BINDING AFFINITY PREDICTED BY RF-SCORE:    0.00 PKD
ROOT
HETATM    1  C   UNL     1      -9.514  15.037  69.477  1.00  0.00    -0.081 C  
HETATM    2  C   UNL     1     -11.030  15.079  69.339  1.00  0.00    -0.275 C  
ENDROOT
BRANCH   2   3
HETATM    3  C   UNL     1     -11.608  13.913  68.526  1.00  0.00    -0.367 C  
BRANCH   3   4
HETATM    4  C   UNL     1     -10.647  12.774  68.407  1.00  0.00    -0.248 A  
HETATM    5  N   UNL     1      -9.471  12.880  67.815  1.00  0.00    -0.195 NA 
HETATM    6  C   UNL     1      -8.929  11.622  67.801  1.00  0.00    -0.170 A  
HETATM    7  C   UNL     1      -9.779  10.730  68.437  1.00  0.00    -0.174 A  
HETATM    8  N   UNL     1     -10.846  11.488  68.873  1.00  0.00    -0.210 NA 
HETATM    9  C   UNL     1      -9.504   9.363  68.518  1.00  0.00    -0.150 A  
HETATM   10  C   UNL     1      -7.726  11.168  67.226  1.00  0.00    -0.130 A  
HETATM   11  C   UNL     1      -8.278   8.896  68.030  1.00  0.00    -0.110 A  
HETATM   12  C   UNL     1      -6.812  12.088  66.473  1.00  0.00     0.310 C  
HETATM   13  C   UNL     1      -7.421   9.794  67.369  1.00  0.00    -0.091 A  
BRANCH   8  14
HETATM   14  C   UNL     1     -12.031  10.934  69.530  1.00  0.00    -0.330 C  
BRANCH  14  15
HETATM   15  C   UNL     1     -11.790   9.828  70.542  1.00  0.00    -0.316 A  
HETATM   16  C   UNL     1     -12.792   8.983  71.018  1.00  0.00    -0.110 A  
HETATM   17  C   UNL     1     -10.160   8.382  71.696  1.00  0.00    -0.308 A  
HETATM   18  C   UNL     1     -10.470   9.522  70.923  1.00  0.00    -0.382 A  
HETATM   19  C   UNL     1     -12.476   7.870  71.827  1.00  0.00    -0.352 A  
HETATM   20  C   UNL     1     -11.153   7.510  72.167  1.00  0.00    -0.300 A  
BRANCH  20  21
HETATM   21  C   UNL     1     -10.873   6.240  72.921  1.00  0.00    -0.284 A  
HETATM   22  C   UNL     1     -11.609   3.928  73.426  1.00  0.00    -0.101 A  
HETATM   23  C   UNL     1     -11.750   5.147  72.739  1.00  0.00    -0.181 A  
HETATM   24  C   UNL     1      -9.661   4.769  74.494  1.00  0.00    -0.176 A  
HETATM   25  C   UNL     1      -9.793   6.006  73.804  1.00  0.00    -0.187 A  
HETATM   26  C   UNL     1     -10.581   3.745  74.320  1.00  0.00    -0.262 A  
HETATM   27  C   UNL     1      -8.752   7.008  74.130  1.00  0.00    -0.181 C  
HETATM   28  O   UNL     1      -7.550   6.389  74.131  1.00  0.00    -0.092 OA 
HETATM   29  O   UNL     1      -8.917   8.171  74.441  1.00  0.00     0.065 OA 
ENDBRANCH  20  21
ENDBRANCH  14  15
ENDBRANCH   8  14
BRANCH  11  30
HETATM   30  C   UNL     1      -7.886   7.483  68.176  1.00  0.00    -0.122 A  
HETATM   31  C   UNL     1      -7.074   4.525  69.936  1.00  0.00    -0.049 A  
HETATM   32  C   UNL     1      -6.779   3.264  69.400  1.00  0.00    -0.034 A  
HETATM   33  N   UNL     1      -7.700   6.882  69.340  1.00  0.00    -0.103 NA 
HETATM   34  C   UNL     1      -7.911   6.795  65.731  1.00  0.00    -0.102 C  
HETATM   35  C   UNL     1      -7.372   5.581  69.061  1.00  0.00    -0.077 A  
HETATM   36  C   UNL     1      -6.777   3.060  68.021  1.00  0.00    -0.044 A  
HETATM   37  N   UNL     1      -7.705   6.571  67.144  1.00  0.00    -0.099 NA 
HETATM   38  C   UNL     1      -7.364   5.353  67.691  1.00  0.00    -0.076 A  
HETATM   39  C   UNL     1      -7.070   4.102  67.135  1.00  0.00    -0.067 A  
ENDBRANCH  11  30
ENDBRANCH   3   4
ENDBRANCH   2   3
TORSDOF 6
ENDMDL
MODEL      171
REMARK 921   NORMALIZED FREE ENERGY PREDICTED BY IDOCK:   -1.87 KCAL/MOL
REMARK 922        TOTAL FREE ENERGY PREDICTED BY IDOCK:   -4.53 KCAL/MOL
REMARK 923 INTER-LIGAND FREE ENERGY PREDICTED BY IDOCK:   -4.41 KCAL/MOL
REMARK 924 INTRA-LIGAND FREE ENERGY PREDICTED BY IDOCK:   -0.12 KCAL/MOL
REMARK 927      BINDING AFFINITY PREDICTED BY RF-SCORE:    0.00 PKD
ROOT
HETATM    1  C   UNL     1      -6.574  21.043  67.554  1.00  0.00    -0.438 C  
HETATM    2  C   UNL     1      -5.605  20.644  66.448  1.00  0.00    -0.216 C  
ENDROOT
BRANCH   2   3
HETATM    3  C   UNL     1      -5.824  19.219  65.921  1.00  0.00    -0.191 C  
BRANCH   3   4
HETATM    4  C   UNL     1      -7.081  18.607  66.448  1.00  0.00    -0.235 A  
HETATM    5  N   UNL     1      -8.284  18.939  66.016  1.00  0.00    -0.472 NA 
HETATM    6  C   UNL     1      -9.179  18.261  66.800  1.00  0.00    -0.288 A  
HETATM    7  C   UNL     1      -8.506  17.463  67.712  1.00  0.00    -0.223 A  
HETATM    8  N   UNL     1      -7.166  17.646  67.439  1.00  0.00    -0.178 NA 
HETATM    9  C   UNL     1      -9.171  16.706  68.677  1.00  0.00    -0.248 A  
HETATM   10  C   UNL     1     -10.587  18.314  66.807  1.00  0.00    -0.338 A  
HETATM   11  C   UNL     1     -10.571  16.672  68.655  1.00  0.00    -0.337 A  
HETATM   12  C   UNL     1     -11.350  19.214  65.882  1.00  0.00     0.775 C  
HETATM   13  C   UNL     1     -11.258  17.493  67.744  1.00  0.00     0.206 A  
BRANCH   8  14
HETATM   14  C   UNL     1      -6.081  17.052  68.222  1.00  0.00    -0.135 C  
BRANCH  14  15
HETATM   15  C   UNL     1      -6.141  15.549  68.432  1.00  0.00    -0.105 A  
HETATM   16  C   UNL     1      -6.890  14.685  67.633  1.00  0.00    -0.204 A  
HETATM   17  C   UNL     1      -5.148  13.554  69.485  1.00  0.00    -0.083 A  
HETATM   18  C   UNL     1      -5.290  14.954  69.382  1.00  0.00    -0.090 A  
HETATM   19  C   UNL     1      -6.773  13.286  67.773  1.00  0.00    -0.154 A  
HETATM   20  C   UNL     1      -5.878  12.670  68.676  1.00  0.00    -0.063 A  
BRANCH  20  21
HETATM   21  C   UNL     1      -5.704  11.177  68.686  1.00  0.00    -0.042 A  
HETATM   22  C   UNL     1      -5.296   9.149  70.052  1.00  0.00    -0.028 A  
HETATM   23  C   UNL     1      -5.513  10.533  69.929  1.00  0.00    -0.042 A  
HETATM   24  C   UNL     1      -5.501   8.921  67.696  1.00  0.00    -0.035 A  
HETATM   25  C   UNL     1      -5.723  10.320  67.561  1.00  0.00    -0.045 A  
HETATM   26  C   UNL     1      -5.266   8.346  68.936  1.00  0.00    -0.032 A  
HETATM   27  C   UNL     1      -5.919  10.781  66.167  1.00  0.00    -0.134 C  
HETATM   28  O   UNL     1      -6.765   9.926  65.549  1.00  0.00    -0.082 OA 
HETATM   29  O   UNL     1      -5.362  11.706  65.609  1.00  0.00    -0.136 OA 
ENDBRANCH  20  21
ENDBRANCH  14  15
ENDBRANCH   8  14
BRANCH  11  30
HETATM   30  C   UNL     1     -11.329  15.815  69.583  1.00  0.00    -0.334 A  
HETATM   31  C   UNL     1     -12.834  12.818  70.708  1.00  0.00    -0.109 A  
HETATM   32  C   UNL     1     -13.492  12.595  71.926  1.00  0.00    -0.424 A  
HETATM   33  N   UNL     1     -11.613  14.542  69.353  1.00  0.00    -0.285 NA 
HETATM   34  C   UNL     1     -11.619  17.446  71.508  1.00  0.00     2.091 C  
HETATM   35  C   UNL     1     -12.301  14.090  70.448  1.00  0.00    -0.359 A  
HETATM   36  C   UNL     1     -13.620  13.620  72.862  1.00  0.00    -0.183 A  
HETATM   37  N   UNL     1     -11.806  16.181  70.836  1.00  0.00    -0.351 NA 
HETATM   38  C   UNL     1     -12.442  15.094  71.397  1.00  0.00    -0.344 A  
HETATM   39  C   UNL     1     -13.097  14.894  72.618  1.00  0.00    -0.520 A  
ENDBRANCH  11  30
ENDBRANCH   3   4
ENDBRANCH   2   3
TORSDOF 6
ENDMDL
MODEL      172
REMARK 921   NORMALIZED FREE ENERGY PREDICTED BY IDOCK:   -1.82 KCAL/MOL
REMARK 922        TOTAL FREE ENERGY PREDICTED BY IDOCK:   -4.46 KCAL/MOL
REMARK 923 INTER-LIGAND FREE ENERGY PREDICTED BY IDOCK:   -3.35 KCAL/MOL
REMARK 924 INTRA-LIGAND FREE ENERGY PREDICTED BY IDOCK:   -1.11 KCAL/MOL
REMARK 927      BINDING AFFINITY PREDICTED BY RF-SCORE:    0.00 PKD
ROOT
HETATM    1  C   UNL     1     -10.690   3.006  64.024  1.00  0.00    -0.042 C  
HETATM    2  C   UNL     1      -9.927   4.060  64.815  1.00  0.00    -0.210 C  
ENDROOT
BRANCH   2   3
HETATM    3  C   UNL     1      -8.535   4.370  64.247  1.00  0.00    -0.115 C  
BRANCH   3   4
HETATM    4  C   UNL     1      -8.108   5.774  64.530  1.00  0.00    -0.132 A  
HETATM    5  N   UNL     1      -7.267   6.442  63.762  1.00  0.00    -0.051 NA 
HETATM    6  C   UNL     1      -7.032   7.636  64.391  1.00  0.00    -0.060 A  
HETATM    7  C   UNL     1      -7.780   7.717  65.556  1.00  0.00    -0.101 A  
HETATM    8  N   UNL     1      -8.510   6.547  65.603  1.00  0.00    -0.147 NA 
HETATM    9  C   UNL     1      -7.691   8.803  66.428  1.00  0.00    -0.099 A  
HETATM   10  C   UNL     1      -6.158   8.682  64.036  1.00  0.00    -0.071 A  
HETATM   11  C   UNL     1      -6.895   9.895  66.060  1.00  0.00    -0.099 A  
HETATM   12  C   UNL     1      -5.282   8.604  62.820  1.00  0.00    -0.069 C  
HETATM   13  C   UNL     1      -6.121   9.810  64.889  1.00  0.00    -0.091 A  
BRANCH   8  14
HETATM   14  C   UNL     1      -9.383   6.170  66.716  1.00  0.00    -0.140 C  
BRANCH  14  15
HETATM   15  C   UNL     1      -8.699   5.654  67.970  1.00  0.00    -0.099 A  
HETATM   16  C   UNL     1      -8.915   6.181  69.243  1.00  0.00    -0.123 A  
HETATM   17  C   UNL     1      -7.421   3.841  69.047  1.00  0.00    -0.053 A  
HETATM   18  C   UNL     1      -7.915   4.487  67.893  1.00  0.00    -0.088 A  
HETATM   19  C   UNL     1      -8.381   5.551  70.387  1.00  0.00    -0.111 A  
HETATM   20  C   UNL     1      -7.646   4.346  70.336  1.00  0.00    -0.049 A  
BRANCH  20  21
HETATM   21  C   UNL     1      -7.216   3.655  71.600  1.00  0.00    -0.039 A  
HETATM   22  C   UNL     1      -5.355   3.162  73.160  1.00  0.00     0.000 A  
HETATM   23  C   UNL     1      -5.875   3.799  72.020  1.00  0.00    -0.009 A  
HETATM   24  C   UNL     1      -7.493   2.225  73.597  1.00  0.00    -0.037 A  
HETATM   25  C   UNL     1      -8.030   2.866  72.447  1.00  0.00    -0.055 A  
HETATM   26  C   UNL     1      -6.154   2.357  73.936  1.00  0.00    -0.008 A  
HETATM   27  C   UNL     1      -9.466   2.593  72.202  1.00  0.00    -0.110 C  
HETATM   28  O   UNL     1     -10.127   2.704  73.377  1.00  0.00    -0.101 OA 
HETATM   29  O   UNL     1      -9.984   2.235  71.163  1.00  0.00    -0.097 OA 
ENDBRANCH  20  21
ENDBRANCH  14  15
ENDBRANCH   8  14
BRANCH  11  30
HETATM   30  C   UNL     1      -6.838  11.112  66.889  1.00  0.00    -0.127 A  
HETATM   31  C   UNL     1      -7.753  14.377  67.895  1.00  0.00    -0.152 A  
HETATM   32  C   UNL     1      -7.269  15.101  68.993  1.00  0.00    -0.149 A  
HETATM   33  N   UNL     1      -7.581  12.187  66.679  1.00  0.00     0.065 NA 
HETATM   34  C   UNL     1      -5.180  10.334  68.649  1.00  0.00    -0.038 C  
HETATM   35  C   UNL     1      -7.258  13.084  67.664  1.00  0.00    -0.151 A  
HETATM   36  C   UNL     1      -6.309  14.551  69.839  1.00  0.00    -0.157 A  
HETATM   37  N   UNL     1      -6.054  11.298  68.021  1.00  0.00    -0.049 NA 
HETATM   38  C   UNL     1      -6.301  12.558  68.521  1.00  0.00    -0.069 A  
HETATM   39  C   UNL     1      -5.802  13.266  69.622  1.00  0.00    -0.114 A  
ENDBRANCH  11  30
ENDBRANCH   3   4
ENDBRANCH   2   3
TORSDOF 6
ENDMDL
MODEL      173
REMARK 921   NORMALIZED FREE ENERGY PREDICTED BY IDOCK:   -1.75 KCAL/MOL
REMARK 922        TOTAL FREE ENERGY PREDICTED BY IDOCK:   -4.36 KCAL/MOL
REMARK 923 INTER-LIGAND FREE ENERGY PREDICTED BY IDOCK:   -2.93 KCAL/MOL
REMARK 924 INTRA-LIGAND FREE ENERGY PREDICTED BY IDOCK:   -1.43 KCAL/MOL
REMARK 927      BINDING AFFINITY PREDICTED BY RF-SCORE:    0.00 PKD
ROOT
HETATM    1  C   UNL     1      -5.983  14.309  74.067  1.00  0.00     0.188 C  
HETATM    2  C   UNL     1      -5.279  13.886  72.785  1.00  0.00    -0.208 C  
ENDROOT
BRANCH   2   3
HETATM    3  C   UNL     1      -5.135  15.017  71.758  1.00  0.00    -0.134 C  
BRANCH   3   4
HETATM    4  C   UNL     1      -6.194  14.964  70.704  1.00  0.00    -0.035 A  
HETATM    5  N   UNL     1      -7.199  15.818  70.645  1.00  0.00     1.103 NA 
HETATM    6  C   UNL     1      -8.012  15.392  69.630  1.00  0.00    -0.138 A  
HETATM    7  C   UNL     1      -7.471  14.268  69.025  1.00  0.00    -0.102 A  
HETATM    8  N   UNL     1      -6.278  14.039  69.681  1.00  0.00    -0.120 NA 
HETATM    9  C   UNL     1      -8.121  13.586  67.995  1.00  0.00    -0.156 A  
HETATM   10  C   UNL     1      -9.252  15.901  69.197  1.00  0.00    -0.253 A  
HETATM   11  C   UNL     1      -9.313  14.117  67.487  1.00  0.00    -0.204 A  
HETATM   12  C   UNL     1      -9.904  17.074  69.868  1.00  0.00     0.590 C  
HETATM   13  C   UNL     1      -9.875  15.246  68.109  1.00  0.00    -0.217 A  
BRANCH   8  14
HETATM   14  C   UNL     1      -5.407  12.892  69.419  1.00  0.00    -0.077 C  
BRANCH  14  15
HETATM   15  C   UNL     1      -6.029  11.516  69.581  1.00  0.00    -0.102 A  
HETATM   16  C   UNL     1      -6.353  10.954  70.815  1.00  0.00     0.199 A  
HETATM   17  C   UNL     1      -7.213   9.630  68.523  1.00  0.00    -0.070 A  
HETATM   18  C   UNL     1      -6.448  10.814  68.436  1.00  0.00    -0.054 A  
HETATM   19  C   UNL     1      -7.081   9.747  70.891  1.00  0.00     0.036 A  
HETATM   20  C   UNL     1      -7.565   9.061  69.755  1.00  0.00    -0.075 A  
BRANCH  20  21
HETATM   21  C   UNL     1      -8.447   7.852  69.906  1.00  0.00    -0.127 A  
HETATM   22  C   UNL     1      -8.570   5.379  70.004  1.00  0.00    -0.124 A  
HETATM   23  C   UNL     1      -7.839   6.577  69.913  1.00  0.00    -0.115 A  
HETATM   24  C   UNL     1     -10.582   6.633  70.150  1.00  0.00    -0.264 A  
HETATM   25  C   UNL     1      -9.853   7.851  70.060  1.00  0.00    -0.181 A  
HETATM   26  C   UNL     1      -9.941   5.404  70.098  1.00  0.00    -0.301 A  
HETATM   27  C   UNL     1     -10.688   9.074  70.092  1.00  0.00    -0.233 C  
HETATM   28  O   UNL     1     -11.608   8.937  71.074  1.00  0.00    -0.277 OA 
HETATM   29  O   UNL     1     -10.649  10.016  69.325  1.00  0.00    -0.201 OA 
ENDBRANCH  20  21
ENDBRANCH  14  15
ENDBRANCH   8  14
BRANCH  11  30
HETATM   30  C   UNL     1      -9.995  13.499  66.336  1.00  0.00    -0.295 A  
HETATM   31  C   UNL     1     -10.208  11.718  63.287  1.00  0.00    -0.452 A  
HETATM   32  C   UNL     1     -11.367  11.348  62.592  1.00  0.00     1.002 A  
HETATM   33  N   UNL     1      -9.368  12.884  65.346  1.00  0.00     0.225 NA 
HETATM   34  C   UNL     1     -12.407  13.877  67.035  1.00  0.00    -0.249 C  
HETATM   35  C   UNL     1     -10.337  12.429  64.490  1.00  0.00    -0.325 A  
HETATM   36  C   UNL     1     -12.628  11.684  63.083  1.00  0.00    -0.115 A  
HETATM   37  N   UNL     1     -11.368  13.422  66.140  1.00  0.00    -0.297 NA 
HETATM   38  C   UNL     1     -11.604  12.752  64.959  1.00  0.00    -0.337 A  
HETATM   39  C   UNL     1     -12.774  12.395  64.278  1.00  0.00    -0.437 A  
ENDBRANCH  11  30
ENDBRANCH   3   4
ENDBRANCH   2   3
TORSDOF 6
ENDMDL
MODEL      174
REMARK 921   NORMALIZED FREE ENERGY PREDICTED BY IDOCK:   -1.73 KCAL/MOL
REMARK 922        TOTAL FREE ENERGY PREDICTED BY IDOCK:   -4.34 KCAL/MOL
REMARK 923 INTER-LIGAND FREE ENERGY PREDICTED BY IDOCK:   -4.62 KCAL/MOL
REMARK 924 INTRA-LIGAND FREE ENERGY PREDICTED BY IDOCK:    0.28 KCAL/MOL
REMARK 927      BINDING AFFINITY PREDICTED BY RF-SCORE:    0.00 PKD
ROOT
HETATM    1  C   UNL     1      -6.831   8.572  71.015  1.00  0.00    -0.059 C  
HETATM    2  C   UNL     1      -6.278   7.985  69.723  1.00  0.00    -0.029 C  
ENDROOT
BRANCH   2   3
HETATM    3  C   UNL     1      -5.138   8.810  69.110  1.00  0.00    -0.036 C  
BRANCH   3   4
HETATM    4  C   UNL     1      -5.329  10.278  69.311  1.00  0.00    -0.038 A  
HETATM    5  N   UNL     1      -5.158  10.877  70.476  1.00  0.00    -0.068 NA 
HETATM    6  C   UNL     1      -5.528  12.183  70.299  1.00  0.00    -0.138 A  
HETATM    7  C   UNL     1      -5.897  12.400  68.980  1.00  0.00    -0.070 A  
HETATM    8  N   UNL     1      -5.710  11.190  68.344  1.00  0.00    -0.043 NA 
HETATM    9  C   UNL     1      -6.376  13.632  68.531  1.00  0.00    -0.092 A  
HETATM   10  C   UNL     1      -5.605  13.230  71.238  1.00  0.00    -0.141 A  
HETATM   11  C   UNL     1      -6.385  14.713  69.420  1.00  0.00    -0.125 A  
HETATM   12  C   UNL     1      -5.278  13.021  72.687  1.00  0.00     0.167 C  
HETATM   13  C   UNL     1      -6.028  14.494  70.762  1.00  0.00    -0.173 A  
BRANCH   8  14
HETATM   14  C   UNL     1      -6.056  10.937  66.945  1.00  0.00    -0.079 C  
BRANCH  14  15
HETATM   15  C   UNL     1      -6.777   9.633  66.650  1.00  0.00    -0.079 A  
HETATM   16  C   UNL     1      -6.206   8.577  65.941  1.00  0.00    -0.052 A  
HETATM   17  C   UNL     1      -8.662   8.133  67.173  1.00  0.00    -0.130 A  
HETATM   18  C   UNL     1      -8.033   9.395  67.238  1.00  0.00    -0.106 A  
HETATM   19  C   UNL     1      -6.863   7.332  65.845  1.00  0.00    -0.057 A  
HETATM   20  C   UNL     1      -8.093   7.053  66.481  1.00  0.00    -0.111 A  
BRANCH  20  21
HETATM   21  C   UNL     1      -8.677   5.668  66.450  1.00  0.00    -0.126 A  
HETATM   22  C   UNL     1      -9.771   3.913  65.086  1.00  0.00    -0.191 A  
HETATM   23  C   UNL     1      -9.165   5.175  65.220  1.00  0.00    -0.094 A  
HETATM   24  C   UNL     1      -9.398   3.501  67.395  1.00  0.00    -0.246 A  
HETATM   25  C   UNL     1      -8.782   4.775  67.542  1.00  0.00    -0.104 A  
HETATM   26  C   UNL     1      -9.909   3.085  66.175  1.00  0.00     0.364 A  
HETATM   27  C   UNL     1      -8.324   5.083  68.917  1.00  0.00    -0.083 C  
HETATM   28  O   UNL     1      -7.691   3.994  69.410  1.00  0.00    -0.053 OA 
HETATM   29  O   UNL     1      -8.541   6.091  69.560  1.00  0.00    -0.117 OA 
ENDBRANCH  20  21
ENDBRANCH  14  15
ENDBRANCH   8  14
BRANCH  11  30
HETATM   30  C   UNL     1      -6.785  16.061  68.980  1.00  0.00    -0.157 A  
HETATM   31  C   UNL     1      -8.689  18.434  67.175  1.00  0.00    -0.260 A  
HETATM   32  C   UNL     1      -8.591  19.831  67.231  1.00  0.00    -0.374 A  
HETATM   33  N   UNL     1      -7.749  16.300  68.104  1.00  0.00    -0.153 NA 
HETATM   34  C   UNL     1      -5.267  17.449  70.470  1.00  0.00    -0.263 C  
HETATM   35  C   UNL     1      -7.834  17.661  67.976  1.00  0.00    -0.235 A  
HETATM   36  C   UNL     1      -7.658  20.445  68.065  1.00  0.00    -0.188 A  
HETATM   37  N   UNL     1      -6.263  17.264  69.439  1.00  0.00    -0.235 NA 
HETATM   38  C   UNL     1      -6.913  18.296  68.799  1.00  0.00    -0.270 A  
HETATM   39  C   UNL     1      -6.797  19.690  68.868  1.00  0.00    -0.377 A  
ENDBRANCH  11  30
ENDBRANCH   3   4
ENDBRANCH   2   3
TORSDOF 6
ENDMDL
MODEL      175
REMARK 921   NORMALIZED FREE ENERGY PREDICTED BY IDOCK:   -1.70 KCAL/MOL
REMARK 922        TOTAL FREE ENERGY PREDICTED BY IDOCK:   -4.29 KCAL/MOL
REMARK 923 INTER-LIGAND FREE ENERGY PREDICTED BY IDOCK:   -3.47 KCAL/MOL
REMARK 924 INTRA-LIGAND FREE ENERGY PREDICTED BY IDOCK:   -0.82 KCAL/MOL
REMARK 927      BINDING AFFINITY PREDICTED BY RF-SCORE:    0.00 PKD
ROOT
HETATM    1  C   UNL     1      -9.981   1.678  73.037  1.00  0.00    -0.156 C  
HETATM    2  C   UNL     1     -10.110   2.621  71.848  1.00  0.00    -0.154 C  
ENDROOT
BRANCH   2   3
HETATM    3  C   UNL     1      -8.944   2.524  70.854  1.00  0.00    -0.157 C  
BRANCH   3   4
HETATM    4  C   UNL     1      -9.026   3.562  69.782  1.00  0.00    -0.109 A  
HETATM    5  N   UNL     1      -8.784   3.307  68.509  1.00  0.00    -0.094 NA 
HETATM    6  C   UNL     1      -8.846   4.508  67.854  1.00  0.00    -0.107 A  
HETATM    7  C   UNL     1      -9.174   5.520  68.744  1.00  0.00    -0.122 A  
HETATM    8  N   UNL     1      -9.345   4.895  69.962  1.00  0.00    -0.132 NA 
HETATM    9  C   UNL     1      -9.247   6.860  68.358  1.00  0.00    -0.124 A  
HETATM   10  C   UNL     1      -8.596   4.808  66.501  1.00  0.00    -0.109 A  
HETATM   11  C   UNL     1      -9.086   7.178  67.004  1.00  0.00    -0.149 A  
HETATM   12  C   UNL     1      -8.175   3.753  65.521  1.00  0.00    -0.101 C  
HETATM   13  C   UNL     1      -8.737   6.157  66.102  1.00  0.00    -0.149 A  
BRANCH   8  14
HETATM   14  C   UNL     1      -9.621   5.601  71.214  1.00  0.00    -0.160 C  
BRANCH  14  15
HETATM   15  C   UNL     1     -10.082   7.044  71.091  1.00  0.00    -0.197 A  
HETATM   16  C   UNL     1      -9.226   8.140  71.183  1.00  0.00    -0.185 A  
HETATM   17  C   UNL     1     -11.852   8.610  70.389  1.00  0.00     0.066 A  
HETATM   18  C   UNL     1     -11.413   7.309  70.718  1.00  0.00    -0.328 A  
HETATM   19  C   UNL     1      -9.685   9.443  70.894  1.00  0.00    -0.320 A  
HETATM   20  C   UNL     1     -10.999   9.721  70.456  1.00  0.00    -0.384 A  
BRANCH  20  21
HETATM   21  C   UNL     1     -11.390  11.112  70.038  1.00  0.00    -0.326 A  
HETATM   22  C   UNL     1     -11.052  12.959  68.420  1.00  0.00    -0.293 A  
HETATM   23  C   UNL     1     -10.794  11.654  68.878  1.00  0.00    -0.264 A  
HETATM   24  C   UNL     1     -12.577  13.272  70.214  1.00  0.00    -0.160 A  
HETATM   25  C   UNL     1     -12.324  11.954  70.685  1.00  0.00    -0.405 A  
HETATM   26  C   UNL     1     -11.924  13.777  69.099  1.00  0.00    -0.403 A  
HETATM   27  C   UNL     1     -13.072  11.582  71.909  1.00  0.00    -0.387 C  
HETATM   28  O   UNL     1     -14.354  11.987  71.764  1.00  0.00     1.157 OA 
HETATM   29  O   UNL     1     -12.627  11.086  72.925  1.00  0.00     1.630 OA 
ENDBRANCH  20  21
ENDBRANCH  14  15
ENDBRANCH   8  14
BRANCH  11  30
HETATM   30  C   UNL     1      -9.250   8.559  66.520  1.00  0.00    -0.190 A  
HETATM   31  C   UNL     1     -10.867  11.218  64.837  1.00  0.00    -0.299 A  
HETATM   32  C   UNL     1     -10.459  12.557  64.761  1.00  0.00    -0.336 A  
HETATM   33  N   UNL     1     -10.273   8.971  65.786  1.00  0.00     0.118 NA 
HETATM   34  C   UNL     1      -7.237   9.631  67.638  1.00  0.00    -0.089 C  
HETATM   35  C   UNL     1     -10.079  10.309  65.559  1.00  0.00    -0.281 A  
HETATM   36  C   UNL     1      -9.288  12.979  65.387  1.00  0.00     0.353 A  
HETATM   37  N   UNL     1      -8.409   9.631  66.791  1.00  0.00    -0.116 NA 
HETATM   38  C   UNL     1      -8.917  10.754  66.174  1.00  0.00    -0.177 A  
HETATM   39  C   UNL     1      -8.489  12.086  66.108  1.00  0.00     0.172 A  
ENDBRANCH  11  30
ENDBRANCH   3   4
ENDBRANCH   2   3
TORSDOF 6
ENDMDL
MODEL      176
REMARK 921   NORMALIZED FREE ENERGY PREDICTED BY IDOCK:   -1.41 KCAL/MOL
REMARK 922        TOTAL FREE ENERGY PREDICTED BY IDOCK:   -3.91 KCAL/MOL
REMARK 923 INTER-LIGAND FREE ENERGY PREDICTED BY IDOCK:   -4.43 KCAL/MOL
REMARK 924 INTRA-LIGAND FREE ENERGY PREDICTED BY IDOCK:    0.52 KCAL/MOL
REMARK 927      BINDING AFFINITY PREDICTED BY RF-SCORE:    0.00 PKD
ROOT
HETATM    1  C   UNL     1      -6.573  18.995  66.750  1.00  0.00    -0.200 C  
HETATM    2  C   UNL     1      -7.062  17.773  67.516  1.00  0.00    -0.198 C  
ENDROOT
BRANCH   2   3
HETATM    3  C   UNL     1      -6.326  16.478  67.144  1.00  0.00    -0.220 C  
BRANCH   3   4
HETATM    4  C   UNL     1      -7.256  15.314  67.019  1.00  0.00     0.024 A  
HETATM    5  N   UNL     1      -8.494  15.423  66.574  1.00  0.00    -0.262 NA 
HETATM    6  C   UNL     1      -9.064  14.185  66.706  1.00  0.00    -0.247 A  
HETATM    7  C   UNL     1      -8.138  13.284  67.208  1.00  0.00    -0.142 A  
HETATM    8  N   UNL     1      -6.968  14.003  67.348  1.00  0.00    -0.194 NA 
HETATM    9  C   UNL     1      -8.465  11.959  67.499  1.00  0.00    -0.161 A  
HETATM   10  C   UNL     1     -10.386  13.772  66.448  1.00  0.00    -0.290 A  
HETATM   11  C   UNL     1      -9.746  11.498  67.175  1.00  0.00    -0.199 A  
HETATM   12  C   UNL     1     -11.435  14.731  65.967  1.00  0.00    -0.316 C  
HETATM   13  C   UNL     1     -10.694  12.412  66.682  1.00  0.00    -0.263 A  
BRANCH   8  14
HETATM   14  C   UNL     1      -5.739  13.462  67.930  1.00  0.00    -0.129 C  
BRANCH  14  15
HETATM   15  C   UNL     1      -5.879  12.191  68.751  1.00  0.00    -0.055 A  
HETATM   16  C   UNL     1      -5.670  10.912  68.238  1.00  0.00    -0.043 A  
HETATM   17  C   UNL     1      -6.019  11.164  70.988  1.00  0.00     0.185 A  
HETATM   18  C   UNL     1      -6.083  12.291  70.140  1.00  0.00    -0.111 A  
HETATM   19  C   UNL     1      -5.651   9.786  69.089  1.00  0.00    -0.035 A  
HETATM   20  C   UNL     1      -5.790   9.872  70.492  1.00  0.00    -0.071 A  
BRANCH  20  21
HETATM   21  C   UNL     1      -5.629   8.652  71.356  1.00  0.00    -0.039 A  
HETATM   22  C   UNL     1      -5.245   7.770  73.639  1.00  0.00    -0.045 A  
HETATM   23  C   UNL     1      -5.449   8.835  72.745  1.00  0.00    -0.069 A  
HETATM   24  C   UNL     1      -5.442   6.235  71.836  1.00  0.00    -0.027 A  
HETATM   25  C   UNL     1      -5.651   7.305  70.923  1.00  0.00    -0.027 A  
HETATM   26  C   UNL     1      -5.217   6.472  73.185  1.00  0.00    -0.037 A  
HETATM   27  C   UNL     1      -5.837   6.887  69.514  1.00  0.00    -0.015 C  
HETATM   28  O   UNL     1      -6.688   5.836  69.491  1.00  0.00    -0.054 OA 
HETATM   29  O   UNL     1      -5.270   7.323  68.532  1.00  0.00    -0.019 OA 
ENDBRANCH  20  21
ENDBRANCH  14  15
ENDBRANCH   8  14
BRANCH  11  30
HETATM   30  C   UNL     1     -10.121  10.085  67.365  1.00  0.00    -0.208 A  
HETATM   31  C   UNL     1     -10.370   6.667  66.491  1.00  0.00    -0.120 A  
HETATM   32  C   UNL     1     -10.895   5.622  67.263  1.00  0.00    -0.217 A  
HETATM   33  N   UNL     1      -9.898   9.133  66.473  1.00  0.00    -0.242 NA 
HETATM   34  C   UNL     1     -11.016  10.212  69.739  1.00  0.00    -0.280 C  
HETATM   35  C   UNL     1     -10.362   7.966  67.022  1.00  0.00    -0.341 A  
HETATM   36  C   UNL     1     -11.406   5.867  68.536  1.00  0.00     0.229 A  
HETATM   37  N   UNL     1     -10.705   9.536  68.500  1.00  0.00    -0.208 NA 
HETATM   38  C   UNL     1     -10.877   8.185  68.293  1.00  0.00     0.089 A  
HETATM   39  C   UNL     1     -11.409   7.156  69.080  1.00  0.00     0.124 A  
ENDBRANCH  11  30
ENDBRANCH   3   4
ENDBRANCH   2   3
TORSDOF 6
ENDMDL
MODEL      177
REMARK 921   NORMALIZED FREE ENERGY PREDICTED BY IDOCK:   -1.10 KCAL/MOL
REMARK 922        TOTAL FREE ENERGY PREDICTED BY IDOCK:   -3.49 KCAL/MOL
REMARK 923 INTER-LIGAND FREE ENERGY PREDICTED BY IDOCK:   -4.37 KCAL/MOL
REMARK 924 INTRA-LIGAND FREE ENERGY PREDICTED BY IDOCK:    0.88 KCAL/MOL
REMARK 927      BINDING AFFINITY PREDICTED BY RF-SCORE:    0.00 PKD
ROOT
HETATM    1  C   UNL     1      -7.395  15.205  70.240  1.00  0.00     0.314 C  
HETATM    2  C   UNL     1      -5.930  14.991  69.887  1.00  0.00    -0.135 C  
ENDROOT
BRANCH   2   3
HETATM    3  C   UNL     1      -5.136  14.248  70.971  1.00  0.00    -0.124 C  
BRANCH   3   4
HETATM    4  C   UNL     1      -5.272  12.765  70.857  1.00  0.00    -0.160 A  
HETATM    5  N   UNL     1      -5.370  11.965  71.903  1.00  0.00    -0.351 NA 
HETATM    6  C   UNL     1      -5.365  10.685  71.415  1.00  0.00    -0.025 A  
HETATM    7  C   UNL     1      -5.303  10.703  70.030  1.00  0.00    -0.044 A  
HETATM    8  N   UNL     1      -5.304  12.038  69.681  1.00  0.00    -0.068 NA 
HETATM    9  C   UNL     1      -5.224   9.534  69.270  1.00  0.00    -0.036 A  
HETATM   10  C   UNL     1      -5.375   9.459  72.109  1.00  0.00    -0.075 A  
HETATM   11  C   UNL     1      -5.317   8.301  69.925  1.00  0.00    -0.023 A  
HETATM   12  C   UNL     1      -5.376   9.397  73.607  1.00  0.00    -0.067 C  
HETATM   13  C   UNL     1      -5.363   8.278  71.331  1.00  0.00    -0.033 A  
BRANCH   8  14
HETATM   14  C   UNL     1      -5.164  12.526  68.308  1.00  0.00    -0.062 C  
BRANCH  14  15
HETATM   15  C   UNL     1      -6.434  12.581  67.476  1.00  0.00    -0.153 A  
HETATM   16  C   UNL     1      -7.068  11.453  66.957  1.00  0.00    -0.138 A  
HETATM   17  C   UNL     1      -8.389  13.894  66.748  1.00  0.00     0.081 A  
HETATM   18  C   UNL     1      -7.107  13.809  67.331  1.00  0.00    -0.093 A  
HETATM   19  C   UNL     1      -8.331  11.555  66.336  1.00  0.00    -0.118 A  
HETATM   20  C   UNL     1      -9.051  12.767  66.239  1.00  0.00    -0.033 A  
BRANCH  20  21
HETATM   21  C   UNL     1     -10.449  12.787  65.685  1.00  0.00    -0.297 A  
HETATM   22  C   UNL     1     -12.027  11.858  64.015  1.00  0.00    -0.455 A  
HETATM   23  C   UNL     1     -10.767  11.895  64.637  1.00  0.00    -0.356 A  
HETATM   24  C   UNL     1     -12.784  13.569  65.479  1.00  0.00    -0.493 A  
HETATM   25  C   UNL     1     -11.513  13.613  66.116  1.00  0.00    -0.342 A  
HETATM   26  C   UNL     1     -13.029  12.709  64.418  1.00  0.00    -0.232 A  
HETATM   27  C   UNL     1     -11.403  14.611  67.206  1.00  0.00    -0.353 C  
HETATM   28  O   UNL     1     -12.513  14.528  67.974  1.00  0.00    -0.064 OA 
HETATM   29  O   UNL     1     -10.530  15.442  67.361  1.00  0.00    -0.266 OA 
ENDBRANCH  20  21
ENDBRANCH  14  15
ENDBRANCH   8  14
BRANCH  11  30
HETATM   30  C   UNL     1      -5.341   7.035  69.171  1.00  0.00    -0.014 A  
HETATM   31  C   UNL     1      -5.170   3.528  68.747  1.00  0.00    -0.012 A  
HETATM   32  C   UNL     1      -5.347   2.799  67.563  1.00  0.00    -0.017 A  
HETATM   33  N   UNL     1      -5.160   5.843  69.717  1.00  0.00    -0.004 NA 
HETATM   34  C   UNL     1      -5.950   7.935  66.875  1.00  0.00    -0.052 C  
HETATM   35  C   UNL     1      -5.278   4.926  68.706  1.00  0.00    -0.004 A  
HETATM   36  C   UNL     1      -5.622   3.451  66.362  1.00  0.00    -0.018 A  
HETATM   37  N   UNL     1      -5.601   6.893  67.814  1.00  0.00    -0.015 NA 
HETATM   38  C   UNL     1      -5.552   5.553  67.497  1.00  0.00    -0.012 A  
HETATM   39  C   UNL     1      -5.729   4.844  66.302  1.00  0.00    -0.018 A  
ENDBRANCH  11  30
ENDBRANCH   3   4
ENDBRANCH   2   3
TORSDOF 6
ENDMDL
MODEL      178
REMARK 921   NORMALIZED FREE ENERGY PREDICTED BY IDOCK:   -0.94 KCAL/MOL
REMARK 922        TOTAL FREE ENERGY PREDICTED BY IDOCK:   -3.27 KCAL/MOL
REMARK 923 INTER-LIGAND FREE ENERGY PREDICTED BY IDOCK:   -1.98 KCAL/MOL
REMARK 924 INTRA-LIGAND FREE ENERGY PREDICTED BY IDOCK:   -1.29 KCAL/MOL
REMARK 927      BINDING AFFINITY PREDICTED BY RF-SCORE:    0.00 PKD
ROOT
HETATM    1  C   UNL     1      -6.659  14.152  74.444  1.00  0.00     1.471 C  
HETATM    2  C   UNL     1      -5.589  13.880  73.395  1.00  0.00    -0.078 C  
ENDROOT
BRANCH   2   3
HETATM    3  C   UNL     1      -5.129  12.416  73.348  1.00  0.00     0.388 C  
BRANCH   3   4
HETATM    4  C   UNL     1      -5.709  11.678  72.185  1.00  0.00     1.224 A  
HETATM    5  N   UNL     1      -6.140  10.432  72.261  1.00  0.00     0.353 NA 
HETATM    6  C   UNL     1      -6.490  10.064  70.990  1.00  0.00     0.071 A  
HETATM    7  C   UNL     1      -6.306  11.126  70.118  1.00  0.00    -0.137 A  
HETATM    8  N   UNL     1      -5.863  12.170  70.903  1.00  0.00    -0.343 NA 
HETATM    9  C   UNL     1      -6.529  11.013  68.744  1.00  0.00    -0.051 A  
HETATM   10  C   UNL     1      -6.940   8.819  70.507  1.00  0.00    -0.048 A  
HETATM   11  C   UNL     1      -7.056   9.815  68.247  1.00  0.00    -0.077 A  
HETATM   12  C   UNL     1      -7.089   7.628  71.405  1.00  0.00    -0.058 C  
HETATM   13  C   UNL     1      -7.228   8.730  69.125  1.00  0.00    -0.067 A  
BRANCH   8  14
HETATM   14  C   UNL     1      -5.461  13.476  70.378  1.00  0.00    -0.136 C  
BRANCH  14  15
HETATM   15  C   UNL     1      -6.422  14.142  69.408  1.00  0.00    -0.122 A  
HETATM   16  C   UNL     1      -6.128  14.376  68.065  1.00  0.00    -0.157 A  
HETATM   17  C   UNL     1      -8.736  14.839  68.920  1.00  0.00    -0.161 A  
HETATM   18  C   UNL     1      -7.739  14.413  69.824  1.00  0.00     0.312 A  
HETATM   19  C   UNL     1      -7.121  14.844  67.178  1.00  0.00     0.065 A  
HETATM   20  C   UNL     1      -8.463  15.060  67.562  1.00  0.00    -0.188 A  
BRANCH  20  21
HETATM   21  C   UNL     1      -9.503  15.432  66.541  1.00  0.00    -0.298 A  
HETATM   22  C   UNL     1     -11.011  14.642  64.740  1.00  0.00    -0.399 A  
HETATM   23  C   UNL     1     -10.065  14.403  65.753  1.00  0.00    -0.361 A  
HETATM   24  C   UNL     1     -10.961  16.960  65.258  1.00  0.00    -0.049 A  
HETATM   25  C   UNL     1     -10.005  16.730  66.286  1.00  0.00    -0.336 A  
HETATM   26  C   UNL     1     -11.442  15.920  64.476  1.00  0.00    -0.287 A  
HETATM   27  C   UNL     1      -9.564  17.949  67.003  1.00  0.00    -0.286 C  
HETATM   28  O   UNL     1     -10.655  18.696  67.285  1.00  0.00    -0.410 OA 
HETATM   29  O   UNL     1      -8.423  18.300  67.231  1.00  0.00    -0.244 OA 
ENDBRANCH  20  21
ENDBRANCH  14  15
ENDBRANCH   8  14
BRANCH  11  30
HETATM   30  C   UNL     1      -7.407   9.668  66.823  1.00  0.00    -0.091 A  
HETATM   31  C   UNL     1      -7.148   8.333  63.558  1.00  0.00    -0.086 A  
HETATM   32  C   UNL     1      -7.947   8.632  62.445  1.00  0.00    -0.149 A  
HETATM   33  N   UNL     1      -6.791   8.844  65.989  1.00  0.00    -0.075 NA 
HETATM   34  C   UNL     1      -9.418  11.216  66.731  1.00  0.00    -0.184 C  
HETATM   35  C   UNL     1      -7.414   8.977  64.776  1.00  0.00    -0.102 A  
HETATM   36  C   UNL     1      -8.985   9.556  62.544  1.00  0.00    -0.268 A  
HETATM   37  N   UNL     1      -8.443  10.314  66.161  1.00  0.00    -0.137 NA 
HETATM   38  C   UNL     1      -8.454   9.894  64.849  1.00  0.00    -0.161 A  
HETATM   39  C   UNL     1      -9.262  10.209  63.749  1.00  0.00    -0.321 A  
ENDBRANCH  11  30
ENDBRANCH   3   4
ENDBRANCH   2   3
TORSDOF 6
ENDMDL
MODEL      179
REMARK 921   NORMALIZED FREE ENERGY PREDICTED BY IDOCK:   -0.80 KCAL/MOL
REMARK 922        TOTAL FREE ENERGY PREDICTED BY IDOCK:   -3.08 KCAL/MOL
REMARK 923 INTER-LIGAND FREE ENERGY PREDICTED BY IDOCK:   -3.12 KCAL/MOL
REMARK 924 INTRA-LIGAND FREE ENERGY PREDICTED BY IDOCK:    0.04 KCAL/MOL
REMARK 927      BINDING AFFINITY PREDICTED BY RF-SCORE:    0.00 PKD
ROOT
HETATM    1  C   UNL     1      -5.713  14.234  73.956  1.00  0.00    -0.082 C  
HETATM    2  C   UNL     1      -5.370  13.900  72.510  1.00  0.00    -0.191 C  
ENDROOT
BRANCH   2   3
HETATM    3  C   UNL     1      -5.161  15.136  71.624  1.00  0.00    -0.129 C  
BRANCH   3   4
HETATM    4  C   UNL     1      -6.138  15.195  70.495  1.00  0.00    -0.046 A  
HETATM    5  N   UNL     1      -6.678  16.320  70.063  1.00  0.00     0.041 NA 
HETATM    6  C   UNL     1      -7.594  15.970  69.108  1.00  0.00    -0.225 A  
HETATM    7  C   UNL     1      -7.588  14.596  68.921  1.00  0.00    -0.139 A  
HETATM    8  N   UNL     1      -6.611  14.117  69.770  1.00  0.00    -0.127 NA 
HETATM    9  C   UNL     1      -8.467  13.957  68.046  1.00  0.00    -0.173 A  
HETATM   10  C   UNL     1      -8.493  16.780  68.386  1.00  0.00    -0.231 A  
HETATM   11  C   UNL     1      -9.314  14.741  67.254  1.00  0.00    -0.211 A  
HETATM   12  C   UNL     1      -8.577  18.261  68.606  1.00  0.00    -0.301 C  
HETATM   13  C   UNL     1      -9.336  16.133  67.452  1.00  0.00    -0.220 A  
BRANCH   8  14
HETATM   14  C   UNL     1      -6.318  12.695  69.961  1.00  0.00     0.013 C  
BRANCH  14  15
HETATM   15  C   UNL     1      -6.677  11.768  68.813  1.00  0.00    -0.083 A  
HETATM   16  C   UNL     1      -5.943  11.680  67.630  1.00  0.00    -0.064 A  
HETATM   17  C   UNL     1      -7.964   9.811  68.043  1.00  0.00    -0.097 A  
HETATM   18  C   UNL     1      -7.714  10.832  68.985  1.00  0.00    -0.133 A  
HETATM   19  C   UNL     1      -6.229  10.683  66.674  1.00  0.00    -0.083 A  
HETATM   20  C   UNL     1      -7.223   9.696  66.858  1.00  0.00    -0.090 A  
BRANCH  20  21
HETATM   21  C   UNL     1      -7.391   8.581  65.862  1.00  0.00    -0.077 A  
HETATM   22  C   UNL     1      -6.928   6.210  65.313  1.00  0.00    -0.056 A  
HETATM   23  C   UNL     1      -6.867   7.310  66.186  1.00  0.00    -0.057 A  
HETATM   24  C   UNL     1      -8.098   7.543  63.734  1.00  0.00    -0.024 A  
HETATM   25  C   UNL     1      -8.044   8.662  64.610  1.00  0.00    -0.156 A  
HETATM   26  C   UNL     1      -7.521   6.330  64.079  1.00  0.00    -0.083 A  
HETATM   27  C   UNL     1      -8.673   9.894  64.078  1.00  0.00    -0.212 C  
HETATM   28  O   UNL     1      -9.860   9.560  63.522  1.00  0.00     0.577 OA 
HETATM   29  O   UNL     1      -8.196  11.011  64.042  1.00  0.00     0.138 OA 
ENDBRANCH  20  21
ENDBRANCH  14  15
ENDBRANCH   8  14
BRANCH  11  30
HETATM   30  C   UNL     1     -10.194  14.132  66.241  1.00  0.00    -0.295 A  
HETATM   31  C   UNL     1     -11.953  11.505  64.655  1.00  0.00     0.101 A  
HETATM   32  C   UNL     1     -12.811  11.593  63.551  1.00  0.00    -0.189 A  
HETATM   33  N   UNL     1     -10.491  12.842  66.197  1.00  0.00    -0.265 NA 
HETATM   34  C   UNL     1     -10.901  16.228  64.994  1.00  0.00    -0.320 C  
HETATM   35  C   UNL     1     -11.345  12.673  65.138  1.00  0.00    -0.308 A  
HETATM   36  C   UNL     1     -13.054  12.821  62.937  1.00  0.00     1.117 A  
HETATM   37  N   UNL     1     -10.872  14.803  65.231  1.00  0.00    -0.356 NA 
HETATM   38  C   UNL     1     -11.603  13.885  64.509  1.00  0.00    -0.393 A  
HETATM   39  C   UNL     1     -12.454  13.995  63.403  1.00  0.00     0.312 A  
ENDBRANCH  11  30
ENDBRANCH   3   4
ENDBRANCH   2   3
TORSDOF 6
ENDMDL
MODEL      180
REMARK 921   NORMALIZED FREE ENERGY PREDICTED BY IDOCK:   -0.78 KCAL/MOL
REMARK 922        TOTAL FREE ENERGY PREDICTED BY IDOCK:   -3.06 KCAL/MOL
REMARK 923 INTER-LIGAND FREE ENERGY PREDICTED BY IDOCK:   -4.71 KCAL/MOL
REMARK 924 INTRA-LIGAND FREE ENERGY PREDICTED BY IDOCK:    1.65 KCAL/MOL
REMARK 927      BINDING AFFINITY PREDICTED BY RF-SCORE:    0.00 PKD
ROOT
HETATM    1  C   UNL     1      -9.291  20.678  65.240  1.00  0.00     0.972 C  
HETATM    2  C   UNL     1     -10.589  19.892  65.363  1.00  0.00    -0.187 C  
ENDROOT
BRANCH   2   3
HETATM    3  C   UNL     1     -10.974  19.559  66.811  1.00  0.00    -0.391 C  
BRANCH   3   4
HETATM    4  C   UNL     1     -10.042  18.569  67.431  1.00  0.00    -0.352 A  
HETATM    5  N   UNL     1      -8.889  18.905  67.980  1.00  0.00    -0.298 NA 
HETATM    6  C   UNL     1      -8.271  17.736  68.334  1.00  0.00    -0.298 A  
HETATM    7  C   UNL     1      -9.085  16.655  68.030  1.00  0.00    -0.218 A  
HETATM    8  N   UNL     1     -10.239  17.202  67.508  1.00  0.00    -0.313 NA 
HETATM    9  C   UNL     1      -8.680  15.334  68.231  1.00  0.00    -0.165 A  
HETATM   10  C   UNL     1      -6.993  17.527  68.888  1.00  0.00    -0.252 A  
HETATM   11  C   UNL     1      -7.451  15.097  68.857  1.00  0.00    -0.143 A  
HETATM   12  C   UNL     1      -6.057  18.664  69.170  1.00  0.00    -0.253 C  
HETATM   13  C   UNL     1      -6.615  16.189  69.151  1.00  0.00    -0.176 A  
BRANCH   8  14
HETATM   14  C   UNL     1     -11.350  16.414  66.972  1.00  0.00     0.338 C  
BRANCH  14  15
HETATM   15  C   UNL     1     -10.980  15.192  66.149  1.00  0.00    -0.331 A  
HETATM   16  C   UNL     1      -9.683  14.911  65.723  1.00  0.00    -0.359 A  
HETATM   17  C   UNL     1     -11.625  12.954  65.341  1.00  0.00    -0.386 A  
HETATM   18  C   UNL     1     -11.952  14.201  65.918  1.00  0.00    -0.420 A  
HETATM   19  C   UNL     1      -9.375  13.679  65.108  1.00  0.00     0.689 A  
HETATM   20  C   UNL     1     -10.321  12.647  64.924  1.00  0.00    -0.330 A  
BRANCH  20  21
HETATM   21  C   UNL     1      -9.902  11.308  64.383  1.00  0.00    -0.316 A  
HETATM   22  C   UNL     1      -9.075  10.034  62.425  1.00  0.00    -0.310 A  
HETATM   23  C   UNL     1      -9.449  11.238  63.047  1.00  0.00    -0.385 A  
HETATM   24  C   UNL     1      -9.519   8.867  64.446  1.00  0.00     0.757 A  
HETATM   25  C   UNL     1      -9.898  10.080  65.085  1.00  0.00    -0.388 A  
HETATM   26  C   UNL     1      -9.131   8.845  63.114  1.00  0.00     0.397 A  
HETATM   27  C   UNL     1     -10.322   9.926  66.497  1.00  0.00    -0.188 C  
HETATM   28  O   UNL     1      -9.443   9.110  67.120  1.00  0.00    -0.144 OA 
HETATM   29  O   UNL     1     -11.329  10.364  67.017  1.00  0.00    -0.222 OA 
ENDBRANCH  20  21
ENDBRANCH  14  15
ENDBRANCH   8  14
BRANCH  11  30
HETATM   30  C   UNL     1      -7.013  13.730  69.187  1.00  0.00    -0.082 A  
HETATM   31  C   UNL     1      -5.132  11.267  70.892  1.00  0.00    -0.114 A  
HETATM   32  C   UNL     1      -5.224   9.875  70.759  1.00  0.00    -0.051 A  
HETATM   33  N   UNL     1      -6.078  13.446  70.080  1.00  0.00    -0.137 NA 
HETATM   34  C   UNL     1      -8.634  12.417  67.737  1.00  0.00    -0.172 C  
HETATM   35  C   UNL     1      -5.974  12.080  70.118  1.00  0.00    -0.159 A  
HETATM   36  C   UNL     1      -6.134   9.305  69.869  1.00  0.00    -0.038 A  
HETATM   37  N   UNL     1      -7.532  12.552  68.663  1.00  0.00    -0.109 NA 
HETATM   38  C   UNL     1      -6.871  11.489  69.238  1.00  0.00    -0.114 A  
HETATM   39  C   UNL     1      -6.978  10.100  69.087  1.00  0.00    -0.062 A  
ENDBRANCH  11  30
ENDBRANCH   3   4
ENDBRANCH   2   3
TORSDOF 6
ENDMDL
MODEL      181
REMARK 921   NORMALIZED FREE ENERGY PREDICTED BY IDOCK:   -0.78 KCAL/MOL
REMARK 922        TOTAL FREE ENERGY PREDICTED BY IDOCK:   -3.05 KCAL/MOL
REMARK 923 INTER-LIGAND FREE ENERGY PREDICTED BY IDOCK:   -5.00 KCAL/MOL
REMARK 924 INTRA-LIGAND FREE ENERGY PREDICTED BY IDOCK:    1.95 KCAL/MOL
REMARK 927      BINDING AFFINITY PREDICTED BY RF-SCORE:    0.00 PKD
ROOT
HETATM    1  C   UNL     1      -5.529  14.336  68.050  1.00  0.00    -0.120 C  
HETATM    2  C   UNL     1      -6.969  14.004  67.680  1.00  0.00    -0.198 C  
ENDROOT
BRANCH   2   3
HETATM    3  C   UNL     1      -7.698  13.160  68.734  1.00  0.00    -0.006 C  
BRANCH   3   4
HETATM    4  C   UNL     1      -7.711  11.707  68.386  1.00  0.00    -0.130 A  
HETATM    5  N   UNL     1      -6.906  10.821  68.944  1.00  0.00    -0.063 NA 
HETATM    6  C   UNL     1      -7.129   9.634  68.301  1.00  0.00    -0.078 A  
HETATM    7  C   UNL     1      -8.126   9.786  67.349  1.00  0.00    -0.114 A  
HETATM    8  N   UNL     1      -8.532  11.100  67.453  1.00  0.00    -0.132 NA 
HETATM    9  C   UNL     1      -8.516   8.747  66.502  1.00  0.00    -0.120 A  
HETATM   10  C   UNL     1      -6.484   8.391  68.459  1.00  0.00    -0.055 A  
HETATM   11  C   UNL     1      -7.952   7.480  66.691  1.00  0.00    -0.110 A  
HETATM   12  C   UNL     1      -5.357   8.202  69.431  1.00  0.00    -0.030 C  
HETATM   13  C   UNL     1      -6.929   7.325  67.643  1.00  0.00    -0.076 A  
BRANCH   8  14
HETATM   14  C   UNL     1      -9.520  11.724  66.572  1.00  0.00    -0.214 C  
BRANCH  14  15
HETATM   15  C   UNL     1      -9.882  13.169  66.874  1.00  0.00    -0.249 A  
HETATM   16  C   UNL     1     -10.314  13.613  68.124  1.00  0.00    -0.245 A  
HETATM   17  C   UNL     1      -9.757  15.533  66.187  1.00  0.00    -0.348 A  
HETATM   18  C   UNL     1      -9.637  14.156  65.901  1.00  0.00    -0.208 A  
HETATM   19  C   UNL     1     -10.473  14.990  68.386  1.00  0.00    -0.238 A  
HETATM   20  C   UNL     1     -10.170  15.998  67.444  1.00  0.00    -0.273 A  
BRANCH  20  21
HETATM   21  C   UNL     1     -10.234  17.451  67.827  1.00  0.00    -0.345 A  
HETATM   22  C   UNL     1     -10.197  19.110  69.667  1.00  0.00     0.375 A  
HETATM   23  C   UNL     1     -10.108  17.790  69.192  1.00  0.00    -0.220 A  
HETATM   24  C   UNL     1     -10.488  19.879  67.439  1.00  0.00    -0.542 A  
HETATM   25  C   UNL     1     -10.398  18.547  66.947  1.00  0.00    -0.431 A  
HETATM   26  C   UNL     1     -10.410  20.152  68.796  1.00  0.00    -0.249 A  
HETATM   27  C   UNL     1     -10.538  18.421  65.478  1.00  0.00     0.048 C  
HETATM   28  O   UNL     1      -9.788  19.382  64.893  1.00  0.00     1.084 OA 
HETATM   29  O   UNL     1     -11.265  17.662  64.867  1.00  0.00    -0.735 OA 
ENDBRANCH  20  21
ENDBRANCH  14  15
ENDBRANCH   8  14
BRANCH  11  30
HETATM   30  C   UNL     1      -8.394   6.321  65.896  1.00  0.00    -0.142 A  
HETATM   31  C   UNL     1     -10.720   3.979  64.623  1.00  0.00    -0.164 A  
HETATM   32  C   UNL     1     -10.482   2.952  63.700  1.00  0.00    -0.203 A  
HETATM   33  N   UNL     1      -9.640   5.872  65.869  1.00  0.00    -0.027 NA 
HETATM   34  C   UNL     1      -6.220   5.791  64.695  1.00  0.00    -0.026 C  
HETATM   35  C   UNL     1      -9.654   4.808  65.005  1.00  0.00    -0.046 A  
HETATM   36  C   UNL     1      -9.207   2.753  63.171  1.00  0.00    -0.094 A  
HETATM   37  N   UNL     1      -7.608   5.569  65.033  1.00  0.00    -0.077 NA 
HETATM   38  C   UNL     1      -8.394   4.590  64.465  1.00  0.00    -0.115 A  
HETATM   39  C   UNL     1      -8.134   3.568  63.543  1.00  0.00    -0.088 A  
ENDBRANCH  11  30
ENDBRANCH   3   4
ENDBRANCH   2   3
TORSDOF 6
ENDMDL
MODEL      182
REMARK 921   NORMALIZED FREE ENERGY PREDICTED BY IDOCK:   -0.74 KCAL/MOL
REMARK 922        TOTAL FREE ENERGY PREDICTED BY IDOCK:   -3.00 KCAL/MOL
REMARK 923 INTER-LIGAND FREE ENERGY PREDICTED BY IDOCK:   -3.29 KCAL/MOL
REMARK 924 INTRA-LIGAND FREE ENERGY PREDICTED BY IDOCK:    0.30 KCAL/MOL
REMARK 927      BINDING AFFINITY PREDICTED BY RF-SCORE:    0.00 PKD
ROOT
HETATM    1  C   UNL     1      -7.198  14.337  69.999  1.00  0.00     0.257 C  
HETATM    2  C   UNL     1      -5.696  14.127  69.870  1.00  0.00    -0.112 C  
ENDROOT
BRANCH   2   3
HETATM    3  C   UNL     1      -5.126  13.112  70.872  1.00  0.00    -0.136 C  
BRANCH   3   4
HETATM    4  C   UNL     1      -5.682  11.740  70.667  1.00  0.00    -0.123 A  
HETATM    5  N   UNL     1      -6.056  10.955  71.660  1.00  0.00     0.156 NA 
HETATM    6  C   UNL     1      -6.401   9.755  71.098  1.00  0.00     0.012 A  
HETATM    7  C   UNL     1      -6.272   9.819  69.719  1.00  0.00    -0.048 A  
HETATM    8  N   UNL     1      -5.870  11.111  69.450  1.00  0.00    -0.044 NA 
HETATM    9  C   UNL     1      -6.502   8.717  68.894  1.00  0.00    -0.049 A  
HETATM   10  C   UNL     1      -6.799   8.554  71.718  1.00  0.00    -0.090 A  
HETATM   11  C   UNL     1      -6.979   7.535  69.473  1.00  0.00    -0.060 A  
HETATM   12  C   UNL     1      -6.886   8.423  73.210  1.00  0.00    -0.113 C  
HETATM   13  C   UNL     1      -7.094   7.459  70.872  1.00  0.00    -0.063 A  
BRANCH   8  14
HETATM   14  C   UNL     1      -5.531  11.602  68.113  1.00  0.00    -0.043 C  
BRANCH  14  15
HETATM   15  C   UNL     1      -6.697  11.920  67.192  1.00  0.00    -0.142 A  
HETATM   16  C   UNL     1      -7.175  11.044  66.218  1.00  0.00    -0.095 A  
HETATM   17  C   UNL     1      -8.655  13.345  66.730  1.00  0.00    -0.043 A  
HETATM   18  C   UNL     1      -7.446  13.092  67.412  1.00  0.00    -0.136 A  
HETATM   19  C   UNL     1      -8.363  11.327  65.511  1.00  0.00     0.140 A  
HETATM   20  C   UNL     1      -9.161  12.465  65.762  1.00  0.00     0.071 A  
BRANCH  20  21
HETATM   21  C   UNL     1     -10.483  12.644  65.068  1.00  0.00    -0.331 A  
HETATM   22  C   UNL     1     -12.373  11.545  63.901  1.00  0.00    -0.048 A  
HETATM   23  C   UNL     1     -11.155  11.492  64.601  1.00  0.00    -0.317 A  
HETATM   24  C   UNL     1     -12.385  13.910  64.125  1.00  0.00    -0.380 A  
HETATM   25  C   UNL     1     -11.154  13.868  64.836  1.00  0.00    -0.370 A  
HETATM   26  C   UNL     1     -12.978  12.752  63.642  1.00  0.00     0.084 A  
HETATM   27  C   UNL     1     -10.635  15.192  65.250  1.00  0.00    -0.411 C  
HETATM   28  O   UNL     1     -11.659  15.909  65.765  1.00  0.00     0.192 OA 
HETATM   29  O   UNL     1      -9.514  15.632  65.085  1.00  0.00    -0.193 OA 
ENDBRANCH  20  21
ENDBRANCH  14  15
ENDBRANCH   8  14
BRANCH  11  30
HETATM   30  C   UNL     1      -7.335   6.369  68.645  1.00  0.00    -0.087 A  
HETATM   31  C   UNL     1      -9.172   4.583  66.206  1.00  0.00    -0.137 A  
HETATM   32  C   UNL     1      -8.952   3.273  65.758  1.00  0.00    -0.145 A  
HETATM   33  N   UNL     1      -8.330   6.356  67.771  1.00  0.00    -0.118 NA 
HETATM   34  C   UNL     1      -5.471   4.788  69.336  1.00  0.00    -0.008 C  
HETATM   35  C   UNL     1      -8.325   5.115  67.190  1.00  0.00    -0.107 A  
HETATM   36  C   UNL     1      -7.912   2.508  66.283  1.00  0.00    -0.082 A  
HETATM   37  N   UNL     1      -6.669   5.150  68.613  1.00  0.00    -0.049 NA 
HETATM   38  C   UNL     1      -7.296   4.332  67.699  1.00  0.00    -0.069 A  
HETATM   39  C   UNL     1      -7.061   3.021  67.267  1.00  0.00    -0.054 A  
ENDBRANCH  11  30
ENDBRANCH   3   4
ENDBRANCH   2   3
TORSDOF 6
ENDMDL
MODEL      183
REMARK 921   NORMALIZED FREE ENERGY PREDICTED BY IDOCK:   -0.69 KCAL/MOL
REMARK 922        TOTAL FREE ENERGY PREDICTED BY IDOCK:   -2.93 KCAL/MOL
REMARK 923 INTER-LIGAND FREE ENERGY PREDICTED BY IDOCK:   -4.33 KCAL/MOL
REMARK 924 INTRA-LIGAND FREE ENERGY PREDICTED BY IDOCK:    1.40 KCAL/MOL
REMARK 927      BINDING AFFINITY PREDICTED BY RF-SCORE:    0.00 PKD
ROOT
HETATM    1  C   UNL     1     -11.805   9.805  70.549  1.00  0.00    -0.316 C  
HETATM    2  C   UNL     1     -12.577  10.846  69.749  1.00  0.00    -0.150 C  
ENDROOT
BRANCH   2   3
HETATM    3  C   UNL     1     -12.922  12.109  70.550  1.00  0.00     0.221 C  
BRANCH   3   4
HETATM    4  C   UNL     1     -12.065  13.272  70.169  1.00  0.00    -0.333 A  
HETATM    5  N   UNL     1     -11.960  14.365  70.904  1.00  0.00    -0.329 NA 
HETATM    6  C   UNL     1     -11.187  15.241  70.190  1.00  0.00    -0.291 A  
HETATM    7  C   UNL     1     -10.775  14.655  69.003  1.00  0.00    -0.249 A  
HETATM    8  N   UNL     1     -11.292  13.376  69.027  1.00  0.00    -0.272 NA 
HETATM    9  C   UNL     1     -10.021  15.344  68.051  1.00  0.00    -0.221 A  
HETATM   10  C   UNL     1     -10.830  16.571  70.485  1.00  0.00     0.011 A  
HETATM   11  C   UNL     1      -9.581  16.638  68.352  1.00  0.00    -0.233 A  
HETATM   12  C   UNL     1     -11.311  17.263  71.726  1.00  0.00     1.328 C  
HETATM   13  C   UNL     1     -10.012  17.243  69.547  1.00  0.00     0.082 A  
BRANCH   8  14
HETATM   14  C   UNL     1     -11.170  12.421  67.925  1.00  0.00    -0.266 C  
BRANCH  14  15
HETATM   15  C   UNL     1      -9.976  11.483  67.968  1.00  0.00    -0.197 A  
HETATM   16  C   UNL     1      -9.421  10.991  69.149  1.00  0.00    -0.064 A  
HETATM   17  C   UNL     1      -8.509   9.924  66.746  1.00  0.00    -0.125 A  
HETATM   18  C   UNL     1      -9.477  10.951  66.764  1.00  0.00    -0.200 A  
HETATM   19  C   UNL     1      -8.423   9.995  69.118  1.00  0.00    -0.156 A  
HETATM   20  C   UNL     1      -7.955   9.402  67.924  1.00  0.00    -0.092 A  
BRANCH  20  21
HETATM   21  C   UNL     1      -6.986   8.253  67.965  1.00  0.00    -0.081 A  
HETATM   22  C   UNL     1      -5.465   6.781  66.676  1.00  0.00    -0.017 A  
HETATM   23  C   UNL     1      -6.354   7.868  66.762  1.00  0.00    -0.054 A  
HETATM   24  C   UNL     1      -5.718   6.406  69.008  1.00  0.00    -0.020 A  
HETATM   25  C   UNL     1      -6.616   7.504  69.107  1.00  0.00    -0.040 A  
HETATM   26  C   UNL     1      -5.164   6.036  67.791  1.00  0.00    -0.004 A  
HETATM   27  C   UNL     1      -7.149   7.745  70.468  1.00  0.00    -0.047 C  
HETATM   28  O   UNL     1      -6.125   7.662  71.348  1.00  0.00    -0.035 OA 
HETATM   29  O   UNL     1      -8.310   7.899  70.791  1.00  0.00    -0.111 OA 
ENDBRANCH  20  21
ENDBRANCH  14  15
ENDBRANCH   8  14
BRANCH  11  30
HETATM   30  C   UNL     1      -8.701  17.379  67.432  1.00  0.00    -0.223 A  
HETATM   31  C   UNL     1      -7.743  20.078  65.356  1.00  0.00     0.069 A  
HETATM   32  C   UNL     1      -6.539  20.234  64.657  1.00  0.00    -0.266 A  
HETATM   33  N   UNL     1      -9.002  18.556  66.905  1.00  0.00    -0.272 NA 
HETATM   34  C   UNL     1      -6.687  15.832  67.451  1.00  0.00    -0.194 C  
HETATM   35  C   UNL     1      -7.933  18.924  66.131  1.00  0.00    -0.235 A  
HETATM   36  C   UNL     1      -5.546  19.258  64.725  1.00  0.00    -0.264 A  
HETATM   37  N   UNL     1      -7.429  16.996  67.025  1.00  0.00    -0.174 NA 
HETATM   38  C   UNL     1      -6.929  17.966  66.183  1.00  0.00    -0.301 A  
HETATM   39  C   UNL     1      -5.719  18.101  65.490  1.00  0.00    -0.211 A  
ENDBRANCH  11  30
ENDBRANCH   3   4
ENDBRANCH   2   3
TORSDOF 6
ENDMDL
MODEL      184
REMARK 921   NORMALIZED FREE ENERGY PREDICTED BY IDOCK:   -0.65 KCAL/MOL
REMARK 922        TOTAL FREE ENERGY PREDICTED BY IDOCK:   -2.88 KCAL/MOL
REMARK 923 INTER-LIGAND FREE ENERGY PREDICTED BY IDOCK:   -3.68 KCAL/MOL
REMARK 924 INTRA-LIGAND FREE ENERGY PREDICTED BY IDOCK:    0.80 KCAL/MOL
REMARK 927      BINDING AFFINITY PREDICTED BY RF-SCORE:    0.00 PKD
ROOT
HETATM    1  C   UNL     1     -12.823  11.455  64.418  1.00  0.00     1.186 C  
HETATM    2  C   UNL     1     -11.852  11.222  65.568  1.00  0.00     0.743 C  
ENDROOT
BRANCH   2   3
HETATM    3  C   UNL     1     -10.402  11.603  65.238  1.00  0.00    -0.316 C  
BRANCH   3   4
HETATM    4  C   UNL     1     -10.057  12.978  65.710  1.00  0.00    -0.287 A  
HETATM    5  N   UNL     1     -10.590  14.073  65.199  1.00  0.00    -0.361 NA 
HETATM    6  C   UNL     1      -9.957  15.129  65.798  1.00  0.00    -0.345 A  
HETATM    7  C   UNL     1      -9.038  14.669  66.729  1.00  0.00    -0.264 A  
HETATM    8  N   UNL     1      -9.153  13.294  66.707  1.00  0.00    -0.233 NA 
HETATM    9  C   UNL     1      -8.206  15.530  67.448  1.00  0.00    -0.199 A  
HETATM   10  C   UNL     1     -10.096  16.511  65.563  1.00  0.00    -0.203 A  
HETATM   11  C   UNL     1      -8.379  16.911  67.297  1.00  0.00    -0.204 A  
HETATM   12  C   UNL     1     -11.030  17.047  64.518  1.00  0.00     0.650 C  
HETATM   13  C   UNL     1      -9.298  17.382  66.341  1.00  0.00    -0.272 A  
BRANCH   8  14
HETATM   14  C   UNL     1      -8.304  12.388  67.482  1.00  0.00    -0.173 C  
BRANCH  14  15
HETATM   15  C   UNL     1      -7.930  11.074  66.818  1.00  0.00    -0.152 A  
HETATM   16  C   UNL     1      -6.802  10.906  66.016  1.00  0.00    -0.072 A  
HETATM   17  C   UNL     1      -8.246   8.631  66.714  1.00  0.00    -0.108 A  
HETATM   18  C   UNL     1      -8.662   9.914  67.132  1.00  0.00    -0.136 A  
HETATM   19  C   UNL     1      -6.419   9.625  65.566  1.00  0.00    -0.078 A  
HETATM   20  C   UNL     1      -7.103   8.442  65.923  1.00  0.00    -0.072 A  
BRANCH  20  21
HETATM   21  C   UNL     1      -6.569   7.095  65.521  1.00  0.00    -0.048 A  
HETATM   22  C   UNL     1      -5.483   5.744  63.751  1.00  0.00    -0.017 A  
HETATM   23  C   UNL     1      -5.974   6.964  64.247  1.00  0.00    -0.036 A  
HETATM   24  C   UNL     1      -6.085   4.686  65.790  1.00  0.00    -0.027 A  
HETATM   25  C   UNL     1      -6.584   5.916  66.303  1.00  0.00    -0.055 A  
HETATM   26  C   UNL     1      -5.558   4.600  64.510  1.00  0.00    -0.014 A  
HETATM   27  C   UNL     1      -7.148   5.831  67.670  1.00  0.00    -0.074 C  
HETATM   28  O   UNL     1      -6.304   5.102  68.435  1.00  0.00    -0.033 OA 
HETATM   29  O   UNL     1      -8.224   6.247  68.053  1.00  0.00    -0.113 OA 
ENDBRANCH  20  21
ENDBRANCH  14  15
ENDBRANCH   8  14
BRANCH  11  30
HETATM   30  C   UNL     1      -7.602  17.870  68.100  1.00  0.00    -0.260 A  
HETATM   31  C   UNL     1      -5.769  18.985  70.913  1.00  0.00    -0.119 A  
HETATM   32  C   UNL     1      -5.128  20.220  71.082  1.00  0.00    -0.296 A  
HETATM   33  N   UNL     1      -7.132  17.614  69.311  1.00  0.00    -0.181 NA 
HETATM   34  C   UNL     1      -7.421  19.765  66.418  1.00  0.00    -0.284 C  
HETATM   35  C   UNL     1      -6.451  18.733  69.712  1.00  0.00    -0.123 A  
HETATM   36  C   UNL     1      -5.171  21.186  70.078  1.00  0.00    -0.256 A  
HETATM   37  N   UNL     1      -7.204  19.141  67.704  1.00  0.00    -0.222 NA 
HETATM   38  C   UNL     1      -6.479  19.711  68.727  1.00  0.00    -0.283 A  
HETATM   39  C   UNL     1      -5.848  20.953  68.877  1.00  0.00    -0.348 A  
ENDBRANCH  11  30
ENDBRANCH   3   4
ENDBRANCH   2   3
TORSDOF 6
ENDMDL
MODEL      185
REMARK 921   NORMALIZED FREE ENERGY PREDICTED BY IDOCK:   -0.58 KCAL/MOL
REMARK 922        TOTAL FREE ENERGY PREDICTED BY IDOCK:   -2.79 KCAL/MOL
REMARK 923 INTER-LIGAND FREE ENERGY PREDICTED BY IDOCK:   -3.03 KCAL/MOL
REMARK 924 INTRA-LIGAND FREE ENERGY PREDICTED BY IDOCK:    0.25 KCAL/MOL
REMARK 927      BINDING AFFINITY PREDICTED BY RF-SCORE:    0.00 PKD
ROOT
HETATM    1  C   UNL     1     -10.290  20.063  71.871  1.00  0.00     3.639 C  
HETATM    2  C   UNL     1      -9.317  19.942  70.706  1.00  0.00     1.693 C  
ENDROOT
BRANCH   2   3
HETATM    3  C   UNL     1      -9.963  19.421  69.415  1.00  0.00    -0.210 C  
BRANCH   3   4
HETATM    4  C   UNL     1      -9.359  18.132  68.960  1.00  0.00    -0.083 A  
HETATM    5  N   UNL     1      -8.074  17.991  68.689  1.00  0.00    -0.303 NA 
HETATM    6  C   UNL     1      -7.917  16.721  68.202  1.00  0.00    -0.181 A  
HETATM    7  C   UNL     1      -9.132  16.053  68.210  1.00  0.00    -0.191 A  
HETATM    8  N   UNL     1     -10.035  16.944  68.752  1.00  0.00    -0.261 NA 
HETATM    9  C   UNL     1      -9.276  14.757  67.710  1.00  0.00    -0.194 A  
HETATM   10  C   UNL     1      -6.764  16.088  67.698  1.00  0.00    -0.188 A  
HETATM   11  C   UNL     1      -8.133  14.073  67.280  1.00  0.00    -0.174 A  
HETATM   12  C   UNL     1      -5.445  16.798  67.610  1.00  0.00    -0.158 C  
HETATM   13  C   UNL     1      -6.902  14.752  67.254  1.00  0.00     0.040 A  
BRANCH   8  14
HETATM   14  C   UNL     1     -11.470  16.683  68.875  1.00  0.00    -0.023 C  
BRANCH  14  15
HETATM   15  C   UNL     1     -11.869  15.295  69.346  1.00  0.00    -0.367 A  
HETATM   16  C   UNL     1     -11.782  14.153  68.551  1.00  0.00    -0.380 A  
HETATM   17  C   UNL     1     -12.389  13.812  71.246  1.00  0.00    -0.394 A  
HETATM   18  C   UNL     1     -12.207  15.100  70.699  1.00  0.00    -0.401 A  
HETATM   19  C   UNL     1     -12.008  12.872  69.098  1.00  0.00    -0.308 A  
HETATM   20  C   UNL     1     -12.285  12.651  70.466  1.00  0.00    -0.383 A  
BRANCH  20  21
HETATM   21  C   UNL     1     -12.385  11.254  71.013  1.00  0.00    -0.472 A  
HETATM   22  C   UNL     1     -13.514   9.733  72.610  1.00  0.00    -0.078 A  
HETATM   23  C   UNL     1     -13.362  10.989  71.998  1.00  0.00    -0.393 A  
HETATM   24  C   UNL     1     -11.760   8.876  71.258  1.00  0.00    -0.370 A  
HETATM   25  C   UNL     1     -11.598  10.142  70.631  1.00  0.00    -0.429 A  
HETATM   26  C   UNL     1     -12.700   8.682  72.259  1.00  0.00    -0.450 A  
HETATM   27  C   UNL     1     -10.525  10.193  69.610  1.00  0.00    -0.252 C  
HETATM   28  O   UNL     1     -10.624   9.091  68.833  1.00  0.00    -0.222 OA 
HETATM   29  O   UNL     1      -9.635  11.015  69.514  1.00  0.00     0.018 OA 
ENDBRANCH  20  21
ENDBRANCH  14  15
ENDBRANCH   8  14
BRANCH  11  30
HETATM   30  C   UNL     1      -8.205  12.670  66.835  1.00  0.00    -0.044 A  
HETATM   31  C   UNL     1      -7.101   9.325  66.519  1.00  0.00    -0.085 A  
HETATM   32  C   UNL     1      -7.764   8.260  65.893  1.00  0.00    -0.087 A  
HETATM   33  N   UNL     1      -7.275  11.763  67.090  1.00  0.00    -0.141 NA 
HETATM   34  C   UNL     1     -10.507  12.696  65.761  1.00  0.00    -0.277 C  
HETATM   35  C   UNL     1      -7.712  10.588  66.537  1.00  0.00    -0.131 A  
HETATM   36  C   UNL     1      -9.007   8.452  65.293  1.00  0.00    -0.055 A  
HETATM   37  N   UNL     1      -9.255  12.081  66.142  1.00  0.00    -0.211 NA 
HETATM   38  C   UNL     1      -8.951  10.754  65.932  1.00  0.00    -0.184 A  
HETATM   39  C   UNL     1      -9.629   9.705  65.299  1.00  0.00    -0.347 A  
ENDBRANCH  11  30
ENDBRANCH   3   4
ENDBRANCH   2   3
TORSDOF 6
ENDMDL
MODEL      186
REMARK 921   NORMALIZED FREE ENERGY PREDICTED BY IDOCK:   -0.56 KCAL/MOL
REMARK 922        TOTAL FREE ENERGY PREDICTED BY IDOCK:   -2.76 KCAL/MOL
REMARK 923 INTER-LIGAND FREE ENERGY PREDICTED BY IDOCK:   -3.35 KCAL/MOL
REMARK 924 INTRA-LIGAND FREE ENERGY PREDICTED BY IDOCK:    0.59 KCAL/MOL
REMARK 927      BINDING AFFINITY PREDICTED BY RF-SCORE:    0.00 PKD
ROOT
HETATM    1  C   UNL     1      -7.839   2.960  63.113  1.00  0.00    -0.068 C  
HETATM    2  C   UNL     1      -6.354   3.276  63.236  1.00  0.00    -0.022 C  
ENDROOT
BRANCH   2   3
HETATM    3  C   UNL     1      -6.053   4.772  63.404  1.00  0.00    -0.021 C  
BRANCH   3   4
HETATM    4  C   UNL     1      -7.038   5.450  64.301  1.00  0.00    -0.049 A  
HETATM    5  N   UNL     1      -8.152   4.875  64.718  1.00  0.00    -0.104 NA 
HETATM    6  C   UNL     1      -8.842   5.828  65.418  1.00  0.00    -0.085 A  
HETATM    7  C   UNL     1      -8.113   7.007  65.465  1.00  0.00    -0.132 A  
HETATM    8  N   UNL     1      -6.936   6.736  64.799  1.00  0.00    -0.053 NA 
HETATM    9  C   UNL     1      -8.605   8.167  66.066  1.00  0.00    -0.165 A  
HETATM   10  C   UNL     1     -10.119   5.760  66.010  1.00  0.00     0.032 A  
HETATM   11  C   UNL     1      -9.834   8.107  66.735  1.00  0.00    -0.329 A  
HETATM   12  C   UNL     1     -10.966   4.526  65.924  1.00  0.00     0.323 C  
HETATM   13  C   UNL     1     -10.584   6.919  66.675  1.00  0.00    -0.197 A  
BRANCH   8  14
HETATM   14  C   UNL     1      -5.896   7.731  64.535  1.00  0.00    -0.041 C  
BRANCH  14  15
HETATM   15  C   UNL     1      -5.783   8.874  65.528  1.00  0.00    -0.047 A  
HETATM   16  C   UNL     1      -5.926  10.217  65.182  1.00  0.00    -0.130 A  
HETATM   17  C   UNL     1      -5.774   9.587  67.889  1.00  0.00    -0.041 A  
HETATM   18  C   UNL     1      -5.678   8.583  66.901  1.00  0.00    -0.041 A  
HETATM   19  C   UNL     1      -5.978  11.219  66.174  1.00  0.00    -0.057 A  
HETATM   20  C   UNL     1      -5.938  10.940  67.559  1.00  0.00    -0.045 A  
BRANCH  20  21
HETATM   21  C   UNL     1      -6.130  12.038  68.569  1.00  0.00    -0.051 A  
HETATM   22  C   UNL     1      -5.457  12.974  70.762  1.00  0.00    -0.179 A  
HETATM   23  C   UNL     1      -5.331  12.024  69.733  1.00  0.00    -0.081 A  
HETATM   24  C   UNL     1      -7.157  14.074  69.521  1.00  0.00     0.039 A  
HETATM   25  C   UNL     1      -7.037  13.120  68.473  1.00  0.00    -0.105 A  
HETATM   26  C   UNL     1      -6.384  13.985  70.669  1.00  0.00    -0.020 A  
HETATM   27  C   UNL     1      -7.961  13.334  67.335  1.00  0.00    -0.170 C  
HETATM   28  O   UNL     1      -7.952  14.649  67.020  1.00  0.00    -0.189 OA 
HETATM   29  O   UNL     1      -8.688  12.515  66.809  1.00  0.00    -0.200 OA 
ENDBRANCH  20  21
ENDBRANCH  14  15
ENDBRANCH   8  14
BRANCH  11  30
HETATM   30  C   UNL     1     -10.359   9.268  67.473  1.00  0.00    -0.262 A  
HETATM   31  C   UNL     1     -12.131  12.303  67.876  1.00  0.00    -0.052 A  
HETATM   32  C   UNL     1     -12.335  13.024  69.060  1.00  0.00     0.093 A  
HETATM   33  N   UNL     1     -11.074  10.236  66.921  1.00  0.00    -0.091 NA 
HETATM   34  C   UNL     1      -9.620   8.635  69.819  1.00  0.00    -0.171 C  
HETATM   35  C   UNL     1     -11.392  11.111  67.926  1.00  0.00    -0.309 A  
HETATM   36  C   UNL     1     -11.810  12.569  70.268  1.00  0.00    -0.305 A  
HETATM   37  N   UNL     1     -10.236   9.499  68.838  1.00  0.00    -0.192 NA 
HETATM   38  C   UNL     1     -10.879  10.679  69.142  1.00  0.00    -0.237 A  
HETATM   39  C   UNL     1     -11.069  11.385  70.336  1.00  0.00     0.406 A  
ENDBRANCH  11  30
ENDBRANCH   3   4
ENDBRANCH   2   3
TORSDOF 6
ENDMDL
MODEL      187
REMARK 921   NORMALIZED FREE ENERGY PREDICTED BY IDOCK:   -0.48 KCAL/MOL
REMARK 922        TOTAL FREE ENERGY PREDICTED BY IDOCK:   -2.64 KCAL/MOL
REMARK 923 INTER-LIGAND FREE ENERGY PREDICTED BY IDOCK:   -3.87 KCAL/MOL
REMARK 924 INTRA-LIGAND FREE ENERGY PREDICTED BY IDOCK:    1.22 KCAL/MOL
REMARK 927      BINDING AFFINITY PREDICTED BY RF-SCORE:    0.00 PKD
ROOT
HETATM    1  C   UNL     1     -12.156  12.437  63.373  1.00  0.00    -0.620 C  
HETATM    2  C   UNL     1     -11.776  11.006  63.018  1.00  0.00     1.106 C  
ENDROOT
BRANCH   2   3
HETATM    3  C   UNL     1     -10.349  10.864  62.470  1.00  0.00     0.424 C  
BRANCH   3   4
HETATM    4  C   UNL     1      -9.437  10.178  63.435  1.00  0.00    -0.261 A  
HETATM    5  N   UNL     1      -8.184   9.869  63.153  1.00  0.00    -0.144 NA 
HETATM    6  C   UNL     1      -7.708   9.161  64.223  1.00  0.00    -0.120 A  
HETATM    7  C   UNL     1      -8.683   9.067  65.205  1.00  0.00    -0.193 A  
HETATM    8  N   UNL     1      -9.763   9.772  64.716  1.00  0.00    -0.232 NA 
HETATM    9  C   UNL     1      -8.489   8.346  66.385  1.00  0.00    -0.127 A  
HETATM   10  C   UNL     1      -6.458   8.536  64.403  1.00  0.00    -0.067 A  
HETATM   11  C   UNL     1      -7.229   7.786  66.629  1.00  0.00    -0.087 A  
HETATM   12  C   UNL     1      -5.402   8.558  63.339  1.00  0.00    -0.063 C  
HETATM   13  C   UNL     1      -6.244   7.864  65.629  1.00  0.00    -0.038 A  
BRANCH   8  14
HETATM   14  C   UNL     1     -11.056   9.867  65.396  1.00  0.00     1.801 C  
BRANCH  14  15
HETATM   15  C   UNL     1     -11.175  10.922  66.483  1.00  0.00    -0.009 A  
HETATM   16  C   UNL     1     -11.731  12.184  66.278  1.00  0.00    -0.389 A  
HETATM   17  C   UNL     1     -11.129  11.442  68.892  1.00  0.00    -0.290 A  
HETATM   18  C   UNL     1     -10.850  10.581  67.809  1.00  0.00    -0.347 A  
HETATM   19  C   UNL     1     -11.966  13.055  67.363  1.00  0.00    -0.372 A  
HETATM   20  C   UNL     1     -11.706  12.707  68.707  1.00  0.00    -0.364 A  
BRANCH  20  21
HETATM   21  C   UNL     1     -12.101  13.627  69.828  1.00  0.00    -0.396 A  
HETATM   22  C   UNL     1     -12.983  13.818  72.136  1.00  0.00    -0.437 A  
HETATM   23  C   UNL     1     -12.548  13.053  71.039  1.00  0.00    -0.386 A  
HETATM   24  C   UNL     1     -12.504  15.805  70.926  1.00  0.00    -0.451 A  
HETATM   25  C   UNL     1     -12.060  15.041  69.811  1.00  0.00    -0.354 A  
HETATM   26  C   UNL     1     -12.984  15.191  72.074  1.00  0.00    -0.437 A  
HETATM   27  C   UNL     1     -11.614  15.846  68.650  1.00  0.00    -0.380 C  
HETATM   28  O   UNL     1     -10.831  16.851  69.103  1.00  0.00    -0.312 OA 
HETATM   29  O   UNL     1     -11.949  15.717  67.489  1.00  0.00     0.143 OA 
ENDBRANCH  20  21
ENDBRANCH  14  15
ENDBRANCH   8  14
BRANCH  11  30
HETATM   30  C   UNL     1      -6.932   7.099  67.898  1.00  0.00    -0.080 A  
HETATM   31  C   UNL     1      -6.561   6.818  71.405  1.00  0.00    -0.053 A  
HETATM   32  C   UNL     1      -6.238   5.670  72.142  1.00  0.00    -0.043 A  
HETATM   33  N   UNL     1      -6.972   7.685  69.085  1.00  0.00    -0.066 NA 
HETATM   34  C   UNL     1      -6.578   4.743  67.019  1.00  0.00    -0.050 C  
HETATM   35  C   UNL     1      -6.660   6.721  70.008  1.00  0.00    -0.044 A  
HETATM   36  C   UNL     1      -6.014   4.453  71.500  1.00  0.00    -0.017 A  
HETATM   37  N   UNL     1      -6.622   5.754  68.051  1.00  0.00    -0.050 NA 
HETATM   38  C   UNL     1      -6.433   5.498  69.392  1.00  0.00    -0.042 A  
HETATM   39  C   UNL     1      -6.106   4.340  70.109  1.00  0.00    -0.019 A  
ENDBRANCH  11  30
ENDBRANCH   3   4
ENDBRANCH   2   3
TORSDOF 6
ENDMDL
MODEL      188
REMARK 921   NORMALIZED FREE ENERGY PREDICTED BY IDOCK:   -0.35 KCAL/MOL
REMARK 922        TOTAL FREE ENERGY PREDICTED BY IDOCK:   -2.47 KCAL/MOL
REMARK 923 INTER-LIGAND FREE ENERGY PREDICTED BY IDOCK:   -1.32 KCAL/MOL
REMARK 924 INTRA-LIGAND FREE ENERGY PREDICTED BY IDOCK:   -1.16 KCAL/MOL
REMARK 927      BINDING AFFINITY PREDICTED BY RF-SCORE:    0.00 PKD
ROOT
HETATM    1  C   UNL     1      -6.795  14.064  74.532  1.00  0.00     2.060 C  
HETATM    2  C   UNL     1      -5.637  13.862  73.564  1.00  0.00    -0.104 C  
ENDROOT
BRANCH   2   3
HETATM    3  C   UNL     1      -5.128  12.415  73.504  1.00  0.00     0.378 C  
BRANCH   3   4
HETATM    4  C   UNL     1      -5.644  11.682  72.308  1.00  0.00     1.042 A  
HETATM    5  N   UNL     1      -6.024  10.418  72.343  1.00  0.00     0.251 NA 
HETATM    6  C   UNL     1      -6.323  10.067  71.054  1.00  0.00     0.030 A  
HETATM    7  C   UNL     1      -6.160  11.156  70.212  1.00  0.00    -0.144 A  
HETATM    8  N   UNL     1      -5.783  12.199  71.034  1.00  0.00    -0.367 NA 
HETATM    9  C   UNL     1      -6.341  11.068  68.831  1.00  0.00    -0.051 A  
HETATM   10  C   UNL     1      -6.707   8.817  70.529  1.00  0.00    -0.044 A  
HETATM   11  C   UNL     1      -6.803   9.862  68.290  1.00  0.00    -0.064 A  
HETATM   12  C   UNL     1      -6.830   7.598  71.395  1.00  0.00    -0.049 C  
HETATM   13  C   UNL     1      -6.953   8.750  69.137  1.00  0.00    -0.059 A  
BRANCH   8  14
HETATM   14  C   UNL     1      -5.422  13.533  70.551  1.00  0.00    -0.145 C  
BRANCH  14  15
HETATM   15  C   UNL     1      -6.417  14.211  69.624  1.00  0.00    -0.134 A  
HETATM   16  C   UNL     1      -7.736  14.492  69.976  1.00  0.00     0.450 A  
HETATM   17  C   UNL     1      -6.784  15.539  67.579  1.00  0.00    -0.220 A  
HETATM   18  C   UNL     1      -5.967  14.725  68.393  1.00  0.00    -0.102 A  
HETATM   19  C   UNL     1      -8.559  15.271  69.135  1.00  0.00    -0.235 A  
HETATM   20  C   UNL     1      -8.107  15.849  67.928  1.00  0.00    -0.149 A  
BRANCH  20  21
HETATM   21  C   UNL     1      -8.991  16.777  67.143  1.00  0.00    -0.218 A  
HETATM   22  C   UNL     1      -9.512  19.124  66.540  1.00  0.00    -0.395 A  
HETATM   23  C   UNL     1      -8.724  18.163  67.198  1.00  0.00    -0.249 A  
HETATM   24  C   UNL     1     -10.874  17.387  65.662  1.00  0.00    -0.011 A  
HETATM   25  C   UNL     1     -10.083  16.407  66.322  1.00  0.00    -0.346 A  
HETATM   26  C   UNL     1     -10.599  18.741  65.792  1.00  0.00    -0.321 A  
HETATM   27  C   UNL     1     -10.530  15.010  66.113  1.00  0.00    -0.305 C  
HETATM   28  O   UNL     1     -10.811  14.844  64.801  1.00  0.00    -0.394 OA 
HETATM   29  O   UNL     1     -10.718  14.160  66.961  1.00  0.00    -0.281 OA 
ENDBRANCH  20  21
ENDBRANCH  14  15
ENDBRANCH   8  14
BRANCH  11  30
HETATM   30  C   UNL     1      -7.107   9.736  66.855  1.00  0.00    -0.089 A  
HETATM   31  C   UNL     1      -8.807  10.466  63.840  1.00  0.00    -0.222 A  
HETATM   32  C   UNL     1      -8.554   9.940  62.565  1.00  0.00    -0.197 A  
HETATM   33  N   UNL     1      -8.058  10.418  66.235  1.00  0.00    -0.130 NA 
HETATM   34  C   UNL     1      -5.265   8.121  66.183  1.00  0.00    -0.025 C  
HETATM   35  C   UNL     1      -8.014  10.044  64.918  1.00  0.00    -0.140 A  
HETATM   36  C   UNL     1      -7.534   9.010  62.370  1.00  0.00    -0.101 A  
HETATM   37  N   UNL     1      -6.430   8.941  65.938  1.00  0.00    -0.057 NA 
HETATM   38  C   UNL     1      -7.004   9.116  64.698  1.00  0.00    -0.090 A  
HETATM   39  C   UNL     1      -6.736   8.576  63.434  1.00  0.00    -0.089 A  
ENDBRANCH  11  30
ENDBRANCH   3   4
ENDBRANCH   2   3
TORSDOF 6
ENDMDL
MODEL      189
REMARK 921   NORMALIZED FREE ENERGY PREDICTED BY IDOCK:   -0.04 KCAL/MOL
REMARK 922        TOTAL FREE ENERGY PREDICTED BY IDOCK:   -2.05 KCAL/MOL
REMARK 923 INTER-LIGAND FREE ENERGY PREDICTED BY IDOCK:   -1.96 KCAL/MOL
REMARK 924 INTRA-LIGAND FREE ENERGY PREDICTED BY IDOCK:   -0.09 KCAL/MOL
REMARK 927      BINDING AFFINITY PREDICTED BY RF-SCORE:    0.00 PKD
ROOT
HETATM    1  C   UNL     1      -7.711  14.593  70.135  1.00  0.00     0.530 C  
HETATM    2  C   UNL     1      -9.035  15.204  69.695  1.00  0.00    -0.059 C  
ENDROOT
BRANCH   2   3
HETATM    3  C   UNL     1      -9.662  14.508  68.479  1.00  0.00    -0.224 C  
BRANCH   3   4
HETATM    4  C   UNL     1      -8.901  13.289  68.070  1.00  0.00    -0.190 A  
HETATM    5  N   UNL     1      -7.717  13.338  67.487  1.00  0.00    -0.166 NA 
HETATM    6  C   UNL     1      -7.390  12.048  67.164  1.00  0.00    -0.134 A  
HETATM    7  C   UNL     1      -8.383  11.181  67.596  1.00  0.00    -0.122 A  
HETATM    8  N   UNL     1      -9.315  11.979  68.227  1.00  0.00    -0.198 NA 
HETATM    9  C   UNL     1      -8.338   9.809  67.346  1.00  0.00    -0.114 A  
HETATM   10  C   UNL     1      -6.272  11.553  66.464  1.00  0.00    -0.072 A  
HETATM   11  C   UNL     1      -7.200   9.276  66.728  1.00  0.00    -0.083 A  
HETATM   12  C   UNL     1      -5.210  12.463  65.923  1.00  0.00     2.327 C  
HETATM   13  C   UNL     1      -6.199  10.153  66.273  1.00  0.00    -0.078 A  
BRANCH   8  14
HETATM   14  C   UNL     1     -10.582  11.487  68.768  1.00  0.00    -0.211 C  
BRANCH  14  15
HETATM   15  C   UNL     1     -10.537  10.154  69.495  1.00  0.00    -0.269 A  
HETATM   16  C   UNL     1     -11.609   9.263  69.545  1.00  0.00     0.308 A  
HETATM   17  C   UNL     1      -9.155   8.394  70.530  1.00  0.00    -0.163 A  
HETATM   18  C   UNL     1      -9.314   9.703  70.026  1.00  0.00    -0.276 A  
HETATM   19  C   UNL     1     -11.451   7.972  70.090  1.00  0.00    -0.008 A  
HETATM   20  C   UNL     1     -10.217   7.479  70.570  1.00  0.00    -0.201 A  
BRANCH  20  21
HETATM   21  C   UNL     1     -10.083   6.049  71.017  1.00  0.00    -0.241 A  
HETATM   22  C   UNL     1      -9.907   3.674  70.332  1.00  0.00    -0.096 A  
HETATM   23  C   UNL     1      -9.991   5.045  70.029  1.00  0.00    -0.324 A  
HETATM   24  C   UNL     1      -9.940   4.198  72.649  1.00  0.00    -0.214 A  
HETATM   25  C   UNL     1     -10.023   5.587  72.353  1.00  0.00    -0.201 A  
HETATM   26  C   UNL     1      -9.905   3.248  71.639  1.00  0.00    -0.220 A  
HETATM   27  C   UNL     1     -10.091   6.468  73.542  1.00  0.00    -0.240 C  
HETATM   28  O   UNL     1      -9.168   6.048  74.437  1.00  0.00    -0.129 OA 
HETATM   29  O   UNL     1     -10.886   7.362  73.756  1.00  0.00    -0.321 OA 
ENDBRANCH  20  21
ENDBRANCH  14  15
ENDBRANCH   8  14
BRANCH  11  30
HETATM   30  C   UNL     1      -7.049   7.825  66.527  1.00  0.00    -0.078 A  
HETATM   31  C   UNL     1      -7.051   4.418  67.478  1.00  0.00    -0.064 A  
HETATM   32  C   UNL     1      -6.826   3.301  66.662  1.00  0.00    -0.053 A  
HETATM   33  N   UNL     1      -7.202   6.923  67.485  1.00  0.00    -0.088 NA 
HETATM   34  C   UNL     1      -6.644   7.796  64.020  1.00  0.00    -0.057 C  
HETATM   35  C   UNL     1      -7.006   5.697  66.905  1.00  0.00    -0.065 A  
HETATM   36  C   UNL     1      -6.558   3.457  65.303  1.00  0.00    -0.036 A  
HETATM   37  N   UNL     1      -6.779   7.186  65.323  1.00  0.00    -0.047 NA 
HETATM   38  C   UNL     1      -6.736   5.827  65.549  1.00  0.00    -0.047 A  
HETATM   39  C   UNL     1      -6.505   4.725  64.716  1.00  0.00    -0.035 A  
ENDBRANCH  11  30
ENDBRANCH   3   4
ENDBRANCH   2   3
TORSDOF 6
ENDMDL
MODEL      190
REMARK 921   NORMALIZED FREE ENERGY PREDICTED BY IDOCK:    0.01 KCAL/MOL
REMARK 922        TOTAL FREE ENERGY PREDICTED BY IDOCK:   -1.99 KCAL/MOL
REMARK 923 INTER-LIGAND FREE ENERGY PREDICTED BY IDOCK:   -4.37 KCAL/MOL
REMARK 924 INTRA-LIGAND FREE ENERGY PREDICTED BY IDOCK:    2.38 KCAL/MOL
REMARK 927      BINDING AFFINITY PREDICTED BY RF-SCORE:    0.00 PKD
ROOT
HETATM    1  C   UNL     1      -6.523   9.752  71.424  1.00  0.00     0.172 C  
HETATM    2  C   UNL     1      -6.483   9.137  70.032  1.00  0.00    -0.044 C  
ENDROOT
BRANCH   2   3
HETATM    3  C   UNL     1      -5.367   9.701  69.140  1.00  0.00    -0.036 C  
BRANCH   3   4
HETATM    4  C   UNL     1      -5.472  11.182  68.971  1.00  0.00    -0.040 A  
HETATM    5  N   UNL     1      -5.579  12.021  69.985  1.00  0.00    -0.107 NA 
HETATM    6  C   UNL     1      -5.763  13.264  69.443  1.00  0.00    -0.088 A  
HETATM    7  C   UNL     1      -5.730  13.192  68.059  1.00  0.00    -0.115 A  
HETATM    8  N   UNL     1      -5.484  11.865  67.769  1.00  0.00    -0.055 NA 
HETATM    9  C   UNL     1      -5.950  14.305  67.246  1.00  0.00     0.508 A  
HETATM   10  C   UNL     1      -6.003  14.496  70.083  1.00  0.00    -0.150 A  
HETATM   11  C   UNL     1      -6.108  15.557  67.852  1.00  0.00    -0.163 A  
HETATM   12  C   UNL     1      -6.112  14.606  71.575  1.00  0.00     0.214 C  
HETATM   13  C   UNL     1      -6.159  15.633  69.255  1.00  0.00    -0.122 A  
BRANCH   8  14
HETATM   14  C   UNL     1      -5.449  11.316  66.412  1.00  0.00    -0.139 C  
BRANCH  14  15
HETATM   15  C   UNL     1      -6.421  10.188  66.112  1.00  0.00    -0.096 A  
HETATM   16  C   UNL     1      -6.497   9.540  64.880  1.00  0.00    -0.085 A  
HETATM   17  C   UNL     1      -7.960   8.477  66.995  1.00  0.00    -0.100 A  
HETATM   18  C   UNL     1      -7.193   9.651  67.159  1.00  0.00    -0.087 A  
HETATM   19  C   UNL     1      -7.301   8.393  64.715  1.00  0.00    -0.088 A  
HETATM   20  C   UNL     1      -8.033   7.801  65.769  1.00  0.00    -0.114 A  
BRANCH  20  21
HETATM   21  C   UNL     1      -8.765   6.504  65.562  1.00  0.00    -0.063 A  
HETATM   22  C   UNL     1      -9.015   4.468  64.172  1.00  0.00    -0.144 A  
HETATM   23  C   UNL     1      -8.372   5.678  64.484  1.00  0.00    -0.108 A  
HETATM   24  C   UNL     1     -10.465   4.772  66.028  1.00  0.00    -0.332 A  
HETATM   25  C   UNL     1      -9.821   5.998  66.355  1.00  0.00    -0.155 A  
HETATM   26  C   UNL     1     -10.075   4.024  64.927  1.00  0.00    -0.214 A  
HETATM   27  C   UNL     1     -10.382   6.694  67.537  1.00  0.00    -0.208 C  
HETATM   28  O   UNL     1     -10.577   5.781  68.515  1.00  0.00    -0.222 OA 
HETATM   29  O   UNL     1     -10.711   7.860  67.620  1.00  0.00    -0.221 OA 
ENDBRANCH  20  21
ENDBRANCH  14  15
ENDBRANCH   8  14
BRANCH  11  30
HETATM   30  C   UNL     1      -6.244  16.783  67.047  1.00  0.00    -0.186 A  
HETATM   31  C   UNL     1      -5.293  19.169  64.614  1.00  0.00    -0.244 A  
HETATM   32  C   UNL     1      -6.005  20.305  64.205  1.00  0.00    -0.321 A  
HETATM   33  N   UNL     1      -5.355  17.185  66.152  1.00  0.00    -0.342 NA 
HETATM   34  C   UNL     1      -8.545  17.531  67.821  1.00  0.00    -0.230 C  
HETATM   35  C   UNL     1      -5.846  18.341  65.603  1.00  0.00    -0.219 A  
HETATM   36  C   UNL     1      -7.241  20.612  64.774  1.00  0.00     0.250 A  
HETATM   37  N   UNL     1      -7.322  17.660  67.062  1.00  0.00    -0.183 NA 
HETATM   38  C   UNL     1      -7.078  18.668  66.155  1.00  0.00    -0.260 A  
HETATM   39  C   UNL     1      -7.805  19.800  65.763  1.00  0.00    -0.230 A  
ENDBRANCH  11  30
ENDBRANCH   3   4
ENDBRANCH   2   3
TORSDOF 6
ENDMDL
MODEL      191
REMARK 921   NORMALIZED FREE ENERGY PREDICTED BY IDOCK:    0.19 KCAL/MOL
REMARK 922        TOTAL FREE ENERGY PREDICTED BY IDOCK:   -1.75 KCAL/MOL
REMARK 923 INTER-LIGAND FREE ENERGY PREDICTED BY IDOCK:   -2.53 KCAL/MOL
REMARK 924 INTRA-LIGAND FREE ENERGY PREDICTED BY IDOCK:    0.78 KCAL/MOL
REMARK 927      BINDING AFFINITY PREDICTED BY RF-SCORE:    0.00 PKD
ROOT
HETATM    1  C   UNL     1      -6.525  13.634  73.223  1.00  0.00     2.218 C  
HETATM    2  C   UNL     1      -5.152  13.999  72.673  1.00  0.00    -0.233 C  
ENDROOT
BRANCH   2   3
HETATM    3  C   UNL     1      -5.135  15.312  71.879  1.00  0.00    -0.093 C  
BRANCH   3   4
HETATM    4  C   UNL     1      -6.063  15.278  70.708  1.00  0.00     0.128 A  
HETATM    5  N   UNL     1      -6.593  16.363  70.173  1.00  0.00     0.124 NA 
HETATM    6  C   UNL     1      -7.465  15.935  69.209  1.00  0.00    -0.219 A  
HETATM    7  C   UNL     1      -7.440  14.551  69.123  1.00  0.00    -0.118 A  
HETATM    8  N   UNL     1      -6.497  14.145  70.045  1.00  0.00    -0.131 NA 
HETATM    9  C   UNL     1      -8.276  13.840  68.261  1.00  0.00    -0.156 A  
HETATM   10  C   UNL     1      -8.339  16.680  68.392  1.00  0.00    -0.208 A  
HETATM   11  C   UNL     1      -9.094  14.555  67.378  1.00  0.00    -0.201 A  
HETATM   12  C   UNL     1      -8.444  18.172  68.500  1.00  0.00    -0.312 C  
HETATM   13  C   UNL     1      -9.136  15.958  67.473  1.00  0.00    -0.204 A  
BRANCH   8  14
HETATM   14  C   UNL     1      -6.200  12.745  70.351  1.00  0.00     0.092 C  
BRANCH  14  15
HETATM   15  C   UNL     1      -6.499  11.734  69.258  1.00  0.00    -0.107 A  
HETATM   16  C   UNL     1      -7.783  11.293  68.940  1.00  0.00    -0.125 A  
HETATM   17  C   UNL     1      -5.701  10.542  67.252  1.00  0.00    -0.041 A  
HETATM   18  C   UNL     1      -5.458  11.316  68.407  1.00  0.00    -0.042 A  
HETATM   19  C   UNL     1      -8.010  10.484  67.807  1.00  0.00    -0.106 A  
HETATM   20  C   UNL     1      -6.989  10.107  66.907  1.00  0.00    -0.089 A  
BRANCH  20  21
HETATM   21  C   UNL     1      -7.317   9.354  65.647  1.00  0.00    -0.092 A  
HETATM   22  C   UNL     1      -8.290   9.453  63.370  1.00  0.00    -0.188 A  
HETATM   23  C   UNL     1      -7.903  10.064  64.576  1.00  0.00    -0.145 A  
HETATM   24  C   UNL     1      -7.480   7.372  64.180  1.00  0.00    -0.099 A  
HETATM   25  C   UNL     1      -7.083   7.980  65.403  1.00  0.00    -0.060 A  
HETATM   26  C   UNL     1      -8.101   8.104  63.179  1.00  0.00    -0.127 A  
HETATM   27  C   UNL     1      -6.469   7.053  66.382  1.00  0.00    -0.051 C  
HETATM   28  O   UNL     1      -5.583   6.268  65.729  1.00  0.00    -0.016 OA 
HETATM   29  O   UNL     1      -6.754   6.924  67.557  1.00  0.00    -0.062 OA 
ENDBRANCH  20  21
ENDBRANCH  14  15
ENDBRANCH   8  14
BRANCH  11  30
HETATM   30  C   UNL     1      -9.925  13.864  66.377  1.00  0.00    -0.297 A  
HETATM   31  C   UNL     1     -10.579  12.169  63.342  1.00  0.00    -0.454 A  
HETATM   32  C   UNL     1     -11.796  11.624  62.911  1.00  0.00     0.319 A  
HETATM   33  N   UNL     1      -9.465  13.399  65.226  1.00  0.00     0.204 NA 
HETATM   34  C   UNL     1     -12.125  13.793  67.644  1.00  0.00    -0.298 C  
HETATM   35  C   UNL     1     -10.526  12.809  64.590  1.00  0.00    -0.350 A  
HETATM   36  C   UNL     1     -12.937  11.719  63.705  1.00  0.00    -0.222 A  
HETATM   37  N   UNL     1     -11.273  13.555  66.501  1.00  0.00    -0.301 NA 
HETATM   38  C   UNL     1     -11.677  12.891  65.362  1.00  0.00    -0.375 A  
HETATM   39  C   UNL     1     -12.903  12.356  64.949  1.00  0.00    -0.092 A  
ENDBRANCH  11  30
ENDBRANCH   3   4
ENDBRANCH   2   3
TORSDOF 6
ENDMDL
MODEL      192
REMARK 921   NORMALIZED FREE ENERGY PREDICTED BY IDOCK:    0.19 KCAL/MOL
REMARK 922        TOTAL FREE ENERGY PREDICTED BY IDOCK:   -1.74 KCAL/MOL
REMARK 923 INTER-LIGAND FREE ENERGY PREDICTED BY IDOCK:   -1.27 KCAL/MOL
REMARK 924 INTRA-LIGAND FREE ENERGY PREDICTED BY IDOCK:   -0.47 KCAL/MOL
REMARK 927      BINDING AFFINITY PREDICTED BY RF-SCORE:    0.00 PKD
ROOT
HETATM    1  C   UNL     1     -10.901  18.747  65.098  1.00  0.00     0.868 C  
HETATM    2  C   UNL     1     -10.563  19.202  66.511  1.00  0.00    -0.523 C  
ENDROOT
BRANCH   2   3
HETATM    3  C   UNL     1      -9.947  18.100  67.384  1.00  0.00    -0.329 C  
BRANCH   3   4
HETATM    4  C   UNL     1     -10.101  16.744  66.774  1.00  0.00    -0.294 A  
HETATM    5  N   UNL     1     -11.273  16.219  66.463  1.00  0.00     0.140 NA 
HETATM    6  C   UNL     1     -11.026  14.941  66.039  1.00  0.00    -0.334 A  
HETATM    7  C   UNL     1      -9.663  14.688  66.054  1.00  0.00    -0.312 A  
HETATM    8  N   UNL     1      -9.077  15.867  66.469  1.00  0.00    -0.257 NA 
HETATM    9  C   UNL     1      -9.130  13.441  65.725  1.00  0.00     0.462 A  
HETATM   10  C   UNL     1     -11.930  13.929  65.661  1.00  0.00    -0.409 A  
HETATM   11  C   UNL     1      -9.996  12.442  65.266  1.00  0.00    -0.234 A  
HETATM   12  C   UNL     1     -13.415  14.141  65.695  1.00  0.00     0.790 C  
HETATM   13  C   UNL     1     -11.380  12.688  65.265  1.00  0.00    -0.350 A  
BRANCH   8  14
HETATM   14  C   UNL     1      -7.642  16.029  66.708  1.00  0.00    -0.212 C  
BRANCH  14  15
HETATM   15  C   UNL     1      -7.119  15.546  68.050  1.00  0.00    -0.136 A  
HETATM   16  C   UNL     1      -7.791  15.738  69.256  1.00  0.00    -0.233 A  
HETATM   17  C   UNL     1      -5.554  14.082  69.268  1.00  0.00    -0.083 A  
HETATM   18  C   UNL     1      -5.973  14.730  68.086  1.00  0.00    -0.146 A  
HETATM   19  C   UNL     1      -7.338  15.121  70.442  1.00  0.00     0.493 A  
HETATM   20  C   UNL     1      -6.229  14.248  70.486  1.00  0.00    -0.157 A  
BRANCH  20  21
HETATM   21  C   UNL     1      -5.876  13.519  71.753  1.00  0.00     0.209 A  
HETATM   22  C   UNL     1      -5.436  13.689  74.186  1.00  0.00    -0.114 A  
HETATM   23  C   UNL     1      -5.800  14.259  72.953  1.00  0.00     0.161 A  
HETATM   24  C   UNL     1      -5.250  11.567  73.134  1.00  0.00     0.683 A  
HETATM   25  C   UNL     1      -5.619  12.133  71.883  1.00  0.00     0.658 A  
HETATM   26  C   UNL     1      -5.138  12.350  74.274  1.00  0.00     0.184 A  
HETATM   27  C   UNL     1      -5.655  11.171  70.757  1.00  0.00    -0.114 C  
HETATM   28  O   UNL     1      -6.285  10.050  71.174  1.00  0.00    -0.254 OA 
HETATM   29  O   UNL     1      -5.137  11.292  69.664  1.00  0.00    -0.041 OA 
ENDBRANCH  20  21
ENDBRANCH  14  15
ENDBRANCH   8  14
BRANCH  11  30
HETATM   30  C   UNL     1      -9.484  11.138  64.809  1.00  0.00    -0.218 A  
HETATM   31  C   UNL     1      -8.802   8.580  62.463  1.00  0.00     0.079 A  
HETATM   32  C   UNL     1      -8.123   7.375  62.684  1.00  0.00    -0.088 A  
HETATM   33  N   UNL     1      -9.580  10.698  63.564  1.00  0.00    -0.295 NA 
HETATM   34  C   UNL     1      -8.388  10.349  66.961  1.00  0.00    -0.127 C  
HETATM   35  C   UNL     1      -8.972   9.470  63.534  1.00  0.00    -0.173 A  
HETATM   36  C   UNL     1      -7.627   7.060  63.948  1.00  0.00    -0.109 A  
HETATM   37  N   UNL     1      -8.793  10.211  65.580  1.00  0.00    -0.158 NA 
HETATM   38  C   UNL     1      -8.469   9.134  64.785  1.00  0.00    -0.178 A  
HETATM   39  C   UNL     1      -7.790   7.933  65.028  1.00  0.00    -0.120 A  
ENDBRANCH  11  30
ENDBRANCH   3   4
ENDBRANCH   2   3
TORSDOF 6
ENDMDL
MODEL      193
REMARK 921   NORMALIZED FREE ENERGY PREDICTED BY IDOCK:    0.27 KCAL/MOL
REMARK 922        TOTAL FREE ENERGY PREDICTED BY IDOCK:   -1.64 KCAL/MOL
REMARK 923 INTER-LIGAND FREE ENERGY PREDICTED BY IDOCK:   -3.78 KCAL/MOL
REMARK 924 INTRA-LIGAND FREE ENERGY PREDICTED BY IDOCK:    2.13 KCAL/MOL
REMARK 927      BINDING AFFINITY PREDICTED BY RF-SCORE:    0.00 PKD
ROOT
HETATM    1  C   UNL     1      -9.667  18.120  66.561  1.00  0.00    -0.344 C  
HETATM    2  C   UNL     1     -10.748  17.748  67.566  1.00  0.00    -0.315 C  
ENDROOT
BRANCH   2   3
HETATM    3  C   UNL     1     -10.218  17.536  68.991  1.00  0.00    -0.314 C  
BRANCH   3   4
HETATM    4  C   UNL     1      -9.349  16.325  69.098  1.00  0.00    -0.236 A  
HETATM    5  N   UNL     1      -8.297  16.258  69.894  1.00  0.00     0.571 NA 
HETATM    6  C   UNL     1      -7.695  15.055  69.641  1.00  0.00    -0.115 A  
HETATM    7  C   UNL     1      -8.419  14.349  68.692  1.00  0.00    -0.156 A  
HETATM    8  N   UNL     1      -9.507  15.145  68.396  1.00  0.00    -0.202 NA 
HETATM    9  C   UNL     1      -8.001  13.111  68.200  1.00  0.00    -0.154 A  
HETATM   10  C   UNL     1      -6.501  14.519  70.163  1.00  0.00    -0.156 A  
HETATM   11  C   UNL     1      -6.864  12.516  68.761  1.00  0.00    -0.096 A  
HETATM   12  C   UNL     1      -5.654  15.279  71.141  1.00  0.00     0.055 C  
HETATM   13  C   UNL     1      -6.117  13.236  69.710  1.00  0.00    -0.128 A  
BRANCH   8  14
HETATM   14  C   UNL     1     -10.503  14.824  67.373  1.00  0.00    -0.256 C  
BRANCH  14  15
HETATM   15  C   UNL     1     -10.355  13.480  66.680  1.00  0.00    -0.271 A  
HETATM   16  C   UNL     1     -10.306  13.324  65.295  1.00  0.00    -0.324 A  
HETATM   17  C   UNL     1      -9.754  11.096  66.870  1.00  0.00    -0.216 A  
HETATM   18  C   UNL     1     -10.102  12.333  67.456  1.00  0.00    -0.206 A  
HETATM   19  C   UNL     1     -10.000  12.073  64.719  1.00  0.00    -0.241 A  
HETATM   20  C   UNL     1      -9.681  10.926  65.480  1.00  0.00    -0.282 A  
BRANCH  20  21
HETATM   21  C   UNL     1      -9.234   9.658  64.806  1.00  0.00    -0.298 A  
HETATM   22  C   UNL     1      -8.311   8.618  62.756  1.00  0.00    -0.174 A  
HETATM   23  C   UNL     1      -8.717   9.743  63.495  1.00  0.00    -0.234 A  
HETATM   24  C   UNL     1      -8.852   7.225  64.602  1.00  0.00     0.559 A  
HETATM   25  C   UNL     1      -9.263   8.356  65.360  1.00  0.00     0.023 A  
HETATM   26  C   UNL     1      -8.400   7.357  63.297  1.00  0.00     0.167 A  
HETATM   27  C   UNL     1      -9.756   8.041  66.721  1.00  0.00    -0.237 C  
HETATM   28  O   UNL     1      -8.907   7.153  67.287  1.00  0.00    -0.119 OA 
HETATM   29  O   UNL     1     -10.788   8.419  67.239  1.00  0.00    -0.225 OA 
ENDBRANCH  20  21
ENDBRANCH  14  15
ENDBRANCH   8  14
BRANCH  11  30
HETATM   30  C   UNL     1      -6.429  11.168  68.355  1.00  0.00    -0.057 A  
HETATM   31  C   UNL     1      -5.617   7.759  68.834  1.00  0.00    -0.026 A  
HETATM   32  C   UNL     1      -5.241   6.824  67.860  1.00  0.00    -0.011 A  
HETATM   33  N   UNL     1      -6.294  10.150  69.190  1.00  0.00    -0.044 NA 
HETATM   34  C   UNL     1      -6.273  11.523  65.845  1.00  0.00     0.491 C  
HETATM   35  C   UNL     1      -5.900   9.075  68.437  1.00  0.00    -0.042 A  
HETATM   36  C   UNL     1      -5.145   7.194  66.520  1.00  0.00    -0.022 A  
HETATM   37  N   UNL     1      -6.149  10.751  67.060  1.00  0.00    -0.062 NA 
HETATM   38  C   UNL     1      -5.796   9.419  67.096  1.00  0.00    -0.045 A  
HETATM   39  C   UNL     1      -5.420   8.501  66.107  1.00  0.00    -0.034 A  
ENDBRANCH  11  30
ENDBRANCH   3   4
ENDBRANCH   2   3
TORSDOF 6
ENDMDL
MODEL      194
REMARK 921   NORMALIZED FREE ENERGY PREDICTED BY IDOCK:    0.47 KCAL/MOL
REMARK 922        TOTAL FREE ENERGY PREDICTED BY IDOCK:   -1.37 KCAL/MOL
REMARK 923 INTER-LIGAND FREE ENERGY PREDICTED BY IDOCK:   -1.69 KCAL/MOL
REMARK 924 INTRA-LIGAND FREE ENERGY PREDICTED BY IDOCK:    0.32 KCAL/MOL
REMARK 927      BINDING AFFINITY PREDICTED BY RF-SCORE:    0.00 PKD
ROOT
HETATM    1  C   UNL     1     -12.920  13.763  67.169  1.00  0.00     1.371 C  
HETATM    2  C   UNL     1     -12.026  13.386  65.995  1.00  0.00    -0.460 C  
ENDROOT
BRANCH   2   3
HETATM    3  C   UNL     1     -11.955  11.875  65.735  1.00  0.00     0.022 C  
BRANCH   3   4
HETATM    4  C   UNL     1     -11.522  11.112  66.944  1.00  0.00     0.030 A  
HETATM    5  N   UNL     1     -12.364  10.664  67.857  1.00  0.00     0.829 NA 
HETATM    6  C   UNL     1     -11.601  10.121  68.856  1.00  0.00     0.009 A  
HETATM    7  C   UNL     1     -10.256  10.203  68.528  1.00  0.00    -0.174 A  
HETATM    8  N   UNL     1     -10.220  10.784  67.277  1.00  0.00    -0.196 NA 
HETATM    9  C   UNL     1      -9.248   9.778  69.395  1.00  0.00    -0.214 A  
HETATM   10  C   UNL     1     -11.997   9.572  70.092  1.00  0.00     0.040 A  
HETATM   11  C   UNL     1      -9.613   9.152  70.593  1.00  0.00    -0.312 A  
HETATM   12  C   UNL     1     -13.436   9.525  70.513  1.00  0.00     0.318 C  
HETATM   13  C   UNL     1     -10.974   9.083  70.938  1.00  0.00    -0.332 A  
BRANCH   8  14
HETATM   14  C   UNL     1      -8.987  11.139  66.574  1.00  0.00    -0.178 C  
BRANCH  14  15
HETATM   15  C   UNL     1      -8.457  12.545  66.801  1.00  0.00    -0.073 A  
HETATM   16  C   UNL     1      -8.998  13.682  66.204  1.00  0.00     0.228 A  
HETATM   17  C   UNL     1      -7.074  14.049  68.181  1.00  0.00    -0.125 A  
HETATM   18  C   UNL     1      -7.464  12.754  67.777  1.00  0.00    -0.135 A  
HETATM   19  C   UNL     1      -8.571  14.972  66.584  1.00  0.00    -0.246 A  
HETATM   20  C   UNL     1      -7.623  15.204  67.604  1.00  0.00    -0.194 A  
BRANCH  20  21
HETATM   21  C   UNL     1      -7.307  16.604  68.055  1.00  0.00    -0.162 A  
HETATM   22  C   UNL     1      -7.543  19.028  67.598  1.00  0.00    -0.261 A  
HETATM   23  C   UNL     1      -7.812  17.682  67.294  1.00  0.00    -0.222 A  
HETATM   24  C   UNL     1      -6.282  18.336  69.489  1.00  0.00    -0.252 A  
HETATM   25  C   UNL     1      -6.550  16.972  69.192  1.00  0.00    -0.230 A  
HETATM   26  C   UNL     1      -6.760  19.357  68.679  1.00  0.00    -0.329 A  
HETATM   27  C   UNL     1      -5.937  16.004  70.132  1.00  0.00    -0.135 C  
HETATM   28  O   UNL     1      -6.140  16.448  71.393  1.00  0.00     0.943 OA 
HETATM   29  O   UNL     1      -5.276  15.023  69.856  1.00  0.00    -0.094 OA 
ENDBRANCH  20  21
ENDBRANCH  14  15
ENDBRANCH   8  14
BRANCH  11  30
HETATM   30  C   UNL     1      -8.597   8.593  71.503  1.00  0.00    -0.195 A  
HETATM   31  C   UNL     1      -5.599   8.588  73.379  1.00  0.00    -0.085 A  
HETATM   32  C   UNL     1      -5.129   7.585  74.238  1.00  0.00    -0.050 A  
HETATM   33  N   UNL     1      -7.489   9.226  71.854  1.00  0.00    -0.260 NA 
HETATM   34  C   UNL     1      -9.755   6.421  72.128  1.00  0.00    -0.152 C  
HETATM   35  C   UNL     1      -6.823   8.397  72.720  1.00  0.00    -0.076 A  
HETATM   36  C   UNL     1      -5.861   6.415  74.432  1.00  0.00    -0.063 A  
HETATM   37  N   UNL     1      -8.666   7.370  72.157  1.00  0.00    -0.116 NA 
HETATM   38  C   UNL     1      -7.534   7.223  72.929  1.00  0.00    -0.076 A  
HETATM   39  C   UNL     1      -7.081   6.208  73.781  1.00  0.00    -0.084 A  
ENDBRANCH  11  30
ENDBRANCH   3   4
ENDBRANCH   2   3
TORSDOF 6
ENDMDL
MODEL      195
REMARK 921   NORMALIZED FREE ENERGY PREDICTED BY IDOCK:    0.63 KCAL/MOL
REMARK 922        TOTAL FREE ENERGY PREDICTED BY IDOCK:   -1.15 KCAL/MOL
REMARK 923 INTER-LIGAND FREE ENERGY PREDICTED BY IDOCK:   -1.31 KCAL/MOL
REMARK 924 INTRA-LIGAND FREE ENERGY PREDICTED BY IDOCK:    0.15 KCAL/MOL
REMARK 927      BINDING AFFINITY PREDICTED BY RF-SCORE:    0.00 PKD
ROOT
HETATM    1  C   UNL     1     -12.135  14.417  72.606  1.00  0.00    -0.029 C  
HETATM    2  C   UNL     1     -12.468  13.195  71.760  1.00  0.00    -0.049 C  
ENDROOT
BRANCH   2   3
HETATM    3  C   UNL     1     -12.998  12.007  72.574  1.00  0.00     0.661 C  
BRANCH   3   4
HETATM    4  C   UNL     1     -12.670  10.694  71.940  1.00  0.00    -0.305 A  
HETATM    5  N   UNL     1     -13.420   9.616  72.078  1.00  0.00    -0.427 NA 
HETATM    6  C   UNL     1     -12.751   8.595  71.458  1.00  0.00    -0.316 A  
HETATM    7  C   UNL     1     -11.578   9.069  70.890  1.00  0.00    -0.290 A  
HETATM    8  N   UNL     1     -11.566  10.424  71.153  1.00  0.00    -0.300 NA 
HETATM    9  C   UNL     1     -10.669   8.231  70.242  1.00  0.00    -0.237 A  
HETATM   10  C   UNL     1     -13.076   7.227  71.375  1.00  0.00    -0.412 A  
HETATM   11  C   UNL     1     -11.004   6.882  70.071  1.00  0.00    -0.320 A  
HETATM   12  C   UNL     1     -14.301   6.663  72.032  1.00  0.00    -0.160 C  
HETATM   13  C   UNL     1     -12.184   6.394  70.660  1.00  0.00    -0.009 A  
BRANCH   8  14
HETATM   14  C   UNL     1     -10.460  11.316  70.804  1.00  0.00     2.565 C  
BRANCH  14  15
HETATM   15  C   UNL     1     -10.571  12.046  69.476  1.00  0.00     0.244 A  
HETATM   16  C   UNL     1      -9.859  11.685  68.332  1.00  0.00    -0.202 A  
HETATM   17  C   UNL     1     -11.840  13.622  68.067  1.00  0.00    -0.397 A  
HETATM   18  C   UNL     1     -11.546  13.049  69.323  1.00  0.00    -0.367 A  
HETATM   19  C   UNL     1     -10.130  12.294  67.089  1.00  0.00    -0.218 A  
HETATM   20  C   UNL     1     -11.147  13.256  66.903  1.00  0.00    -0.310 A  
BRANCH  20  21
HETATM   21  C   UNL     1     -11.475  13.771  65.529  1.00  0.00    -0.319 A  
HETATM   22  C   UNL     1     -12.717  13.391  63.418  1.00  0.00     0.156 A  
HETATM   23  C   UNL     1     -12.374  13.027  64.732  1.00  0.00    -0.490 A  
HETATM   24  C   UNL     1     -11.334  15.314  63.603  1.00  0.00     1.290 A  
HETATM   25  C   UNL     1     -10.982  14.956  64.934  1.00  0.00    -0.422 A  
HETATM   26  C   UNL     1     -12.181  14.519  62.844  1.00  0.00     1.969 A  
HETATM   27  C   UNL     1     -10.038  15.888  65.595  1.00  0.00    -0.358 C  
HETATM   28  O   UNL     1     -10.447  17.154  65.348  1.00  0.00    -0.633 OA 
HETATM   29  O   UNL     1      -9.013  15.608  66.183  1.00  0.00    -0.323 OA 
ENDBRANCH  20  21
ENDBRANCH  14  15
ENDBRANCH   8  14
BRANCH  11  30
HETATM   30  C   UNL     1     -10.133   5.970  69.311  1.00  0.00    -0.185 A  
HETATM   31  C   UNL     1      -7.633   3.503  68.882  1.00  0.00    -0.052 A  
HETATM   32  C   UNL     1      -7.212   2.911  67.684  1.00  0.00    -0.053 A  
HETATM   33  N   UNL     1      -9.230   5.174  69.863  1.00  0.00    -0.121 NA 
HETATM   34  C   UNL     1     -11.061   6.361  66.979  1.00  0.00    -0.329 C  
HETATM   35  C   UNL     1      -8.648   4.472  68.840  1.00  0.00    -0.084 A  
HETATM   36  C   UNL     1      -7.787   3.280  66.469  1.00  0.00    -0.081 A  
HETATM   37  N   UNL     1     -10.156   5.767  67.936  1.00  0.00    -0.148 NA 
HETATM   38  C   UNL     1      -9.205   4.823  67.617  1.00  0.00    -0.128 A  
HETATM   39  C   UNL     1      -8.796   4.245  66.408  1.00  0.00    -0.116 A  
ENDBRANCH  11  30
ENDBRANCH   3   4
ENDBRANCH   2   3
TORSDOF 6
ENDMDL
MODEL      196
REMARK 921   NORMALIZED FREE ENERGY PREDICTED BY IDOCK:    1.02 KCAL/MOL
REMARK 922        TOTAL FREE ENERGY PREDICTED BY IDOCK:   -0.62 KCAL/MOL
REMARK 923 INTER-LIGAND FREE ENERGY PREDICTED BY IDOCK:   -0.55 KCAL/MOL
REMARK 924 INTRA-LIGAND FREE ENERGY PREDICTED BY IDOCK:   -0.07 KCAL/MOL
REMARK 927      BINDING AFFINITY PREDICTED BY RF-SCORE:    0.00 PKD
ROOT
HETATM    1  C   UNL     1     -12.597  17.696  74.322  1.00  0.00     1.471 C  
HETATM    2  C   UNL     1     -11.919  17.211  73.048  1.00  0.00     0.513 C  
ENDROOT
BRANCH   2   3
HETATM    3  C   UNL     1     -11.788  15.683  72.962  1.00  0.00    -0.558 C  
BRANCH   3   4
HETATM    4  C   UNL     1     -11.257  15.234  71.640  1.00  0.00    -0.301 A  
HETATM    5  N   UNL     1     -10.392  15.936  70.931  1.00  0.00     0.398 NA 
HETATM    6  C   UNL     1     -10.229  15.270  69.746  1.00  0.00    -0.229 A  
HETATM    7  C   UNL     1     -10.985  14.107  69.744  1.00  0.00    -0.021 A  
HETATM    8  N   UNL     1     -11.591  14.064  70.983  1.00  0.00    -0.000 NA 
HETATM    9  C   UNL     1     -11.054  13.262  68.636  1.00  0.00    -0.301 A  
HETATM   10  C   UNL     1      -9.475  15.626  68.611  1.00  0.00    -0.204 A  
HETATM   11  C   UNL     1     -10.251  13.545  67.525  1.00  0.00    -0.234 A  
HETATM   12  C   UNL     1      -8.697  16.907  68.547  1.00  0.00    -0.251 C  
HETATM   13  C   UNL     1      -9.496  14.732  67.515  1.00  0.00    -0.197 A  
BRANCH   8  14
HETATM   14  C   UNL     1     -12.554  13.039  71.389  1.00  0.00    -0.232 C  
BRANCH  14  15
HETATM   15  C   UNL     1     -12.172  11.597  71.100  1.00  0.00    -0.249 A  
HETATM   16  C   UNL     1     -13.084  10.542  71.091  1.00  0.00    -0.450 A  
HETATM   17  C   UNL     1     -10.500  10.030  70.192  1.00  0.00    -0.338 A  
HETATM   18  C   UNL     1     -10.864  11.307  70.670  1.00  0.00     1.252 A  
HETATM   19  C   UNL     1     -12.699   9.258  70.651  1.00  0.00     0.111 A  
HETATM   20  C   UNL     1     -11.409   8.962  70.157  1.00  0.00    -0.119 A  
BRANCH  20  21
HETATM   21  C   UNL     1     -11.100   7.608  69.580  1.00  0.00    -0.074 A  
HETATM   22  C   UNL     1     -10.513   6.305  67.556  1.00  0.00    -0.295 A  
HETATM   23  C   UNL     1     -10.776   7.523  68.208  1.00  0.00    -0.128 A  
HETATM   24  C   UNL     1     -10.817   5.153  69.611  1.00  0.00     0.218 A  
HETATM   25  C   UNL     1     -11.083   6.379  70.281  1.00  0.00    -0.416 A  
HETATM   26  C   UNL     1     -10.556   5.119  68.249  1.00  0.00     0.006 A  
HETATM   27  C   UNL     1     -11.381   6.241  71.726  1.00  0.00    -0.294 C  
HETATM   28  O   UNL     1     -10.483   5.386  72.266  1.00  0.00    -0.205 OA 
HETATM   29  O   UNL     1     -12.316   6.719  72.337  1.00  0.00    -0.138 OA 
ENDBRANCH  20  21
ENDBRANCH  14  15
ENDBRANCH   8  14
BRANCH  11  30
HETATM   30  C   UNL     1     -10.204  12.638  66.365  1.00  0.00    -0.251 A  
HETATM   31  C   UNL     1      -9.120   9.832  64.504  1.00  0.00    -0.297 A  
HETATM   32  C   UNL     1      -9.570   9.415  63.244  1.00  0.00     0.831 A  
HETATM   33  N   UNL     1      -9.420  11.574  66.286  1.00  0.00    -0.211 NA 
HETATM   34  C   UNL     1     -12.045  13.676  64.956  1.00  0.00    -0.392 C  
HETATM   35  C   UNL     1      -9.681  10.983  65.078  1.00  0.00    -0.254 A  
HETATM   36  C   UNL     1     -10.555  10.132  62.568  1.00  0.00     1.855 A  
HETATM   37  N   UNL     1     -10.991  12.724  65.223  1.00  0.00    -0.279 NA 
HETATM   38  C   UNL     1     -10.661  11.681  64.385  1.00  0.00    -0.323 A  
HETATM   39  C   UNL     1     -11.122  11.283  63.124  1.00  0.00     0.038 A  
ENDBRANCH  11  30
ENDBRANCH   3   4
ENDBRANCH   2   3
TORSDOF 6
ENDMDL
MODEL      197
REMARK 921   NORMALIZED FREE ENERGY PREDICTED BY IDOCK:    1.56 KCAL/MOL
REMARK 922        TOTAL FREE ENERGY PREDICTED BY IDOCK:    0.11 KCAL/MOL
REMARK 923 INTER-LIGAND FREE ENERGY PREDICTED BY IDOCK:    0.08 KCAL/MOL
REMARK 924 INTRA-LIGAND FREE ENERGY PREDICTED BY IDOCK:    0.03 KCAL/MOL
REMARK 927      BINDING AFFINITY PREDICTED BY RF-SCORE:    0.00 PKD
ROOT
HETATM    1  C   UNL     1     -11.718   7.662  66.638  1.00  0.00     3.359 C  
HETATM    2  C   UNL     1     -10.951   6.348  66.708  1.00  0.00    -0.321 C  
ENDROOT
BRANCH   2   3
HETATM    3  C   UNL     1      -9.529   6.432  66.136  1.00  0.00    -0.079 C  
BRANCH   3   4
HETATM    4  C   UNL     1      -8.860   7.725  66.470  1.00  0.00    -0.153 A  
HETATM    5  N   UNL     1      -8.115   8.398  65.612  1.00  0.00    -0.117 NA 
HETATM    6  C   UNL     1      -7.587   9.456  66.301  1.00  0.00    -0.097 A  
HETATM    7  C   UNL     1      -8.052   9.455  67.607  1.00  0.00    -0.106 A  
HETATM    8  N   UNL     1      -8.912   8.378  67.688  1.00  0.00    -0.135 NA 
HETATM    9  C   UNL     1      -7.628  10.390  68.553  1.00  0.00    -0.095 A  
HETATM   10  C   UNL     1      -6.670  10.438  65.876  1.00  0.00    -0.127 A  
HETATM   11  C   UNL     1      -6.784  11.427  68.139  1.00  0.00    -0.059 A  
HETATM   12  C   UNL     1      -6.093  10.436  64.492  1.00  0.00    -0.091 C  
HETATM   13  C   UNL     1      -6.296  11.422  66.820  1.00  0.00    -0.142 A  
BRANCH   8  14
HETATM   14  C   UNL     1      -9.572   7.948  68.921  1.00  0.00    -0.155 C  
BRANCH  14  15
HETATM   15  C   UNL     1      -8.769   7.045  69.842  1.00  0.00    -0.142 A  
HETATM   16  C   UNL     1      -8.395   7.398  71.138  1.00  0.00    -0.114 A  
HETATM   17  C   UNL     1      -7.944   4.773  70.328  1.00  0.00    -0.068 A  
HETATM   18  C   UNL     1      -8.503   5.721  69.444  1.00  0.00    -0.112 A  
HETATM   19  C   UNL     1      -7.797   6.454  72.000  1.00  0.00    -0.100 A  
HETATM   20  C   UNL     1      -7.580   5.105  71.641  1.00  0.00    -0.101 A  
BRANCH  20  21
HETATM   21  C   UNL     1      -7.060   4.117  72.648  1.00  0.00    -0.061 A  
HETATM   22  C   UNL     1      -5.163   3.432  74.087  1.00  0.00     0.000 A  
HETATM   23  C   UNL     1      -5.765   4.316  73.175  1.00  0.00    -0.008 A  
HETATM   24  C   UNL     1      -7.129   2.099  74.073  1.00  0.00    -0.028 A  
HETATM   25  C   UNL     1      -7.748   2.987  73.151  1.00  0.00    -0.056 A  
HETATM   26  C   UNL     1      -5.832   2.312  74.519  1.00  0.00    -0.004 A  
HETATM   27  C   UNL     1      -9.118   2.597  72.744  1.00  0.00    -0.081 C  
HETATM   28  O   UNL     1      -9.802   2.227  73.851  1.00  0.00    -0.088 OA 
HETATM   29  O   UNL     1      -9.560   2.519  71.615  1.00  0.00    -0.125 OA 
ENDBRANCH  20  21
ENDBRANCH  14  15
ENDBRANCH   8  14
BRANCH  11  30
HETATM   30  C   UNL     1      -6.382  12.500  69.065  1.00  0.00    -0.092 A  
HETATM   31  C   UNL     1      -5.791  15.838  70.074  1.00  0.00    -0.159 A  
HETATM   32  C   UNL     1      -5.374  16.291  71.333  1.00  0.00     0.120 A  
HETATM   33  N   UNL     1      -6.377  13.786  68.752  1.00  0.00    -0.086 NA 
HETATM   34  C   UNL     1      -5.976  11.112  71.153  1.00  0.00     0.314 C  
HETATM   35  C   UNL     1      -5.969  14.461  69.873  1.00  0.00    -0.132 A  
HETATM   36  C   UNL     1      -5.135  15.389  72.369  1.00  0.00     0.112 A  
HETATM   37  N   UNL     1      -6.004  12.341  70.393  1.00  0.00    -0.177 NA 
HETATM   38  C   UNL     1      -5.724  13.582  70.920  1.00  0.00    -0.189 A  
HETATM   39  C   UNL     1      -5.305  14.013  72.185  1.00  0.00    -0.223 A  
ENDBRANCH  11  30
ENDBRANCH   3   4
ENDBRANCH   2   3
TORSDOF 6
ENDMDL
MODEL      198
REMARK 921   NORMALIZED FREE ENERGY PREDICTED BY IDOCK:    1.64 KCAL/MOL
REMARK 922        TOTAL FREE ENERGY PREDICTED BY IDOCK:    0.21 KCAL/MOL
REMARK 923 INTER-LIGAND FREE ENERGY PREDICTED BY IDOCK:    0.45 KCAL/MOL
REMARK 924 INTRA-LIGAND FREE ENERGY PREDICTED BY IDOCK:   -0.23 KCAL/MOL
REMARK 927      BINDING AFFINITY PREDICTED BY RF-SCORE:    0.00 PKD
ROOT
HETATM    1  C   UNL     1      -8.231  20.240  72.305  1.00  0.00     2.466 C  
HETATM    2  C   UNL     1      -7.131  20.269  71.252  1.00  0.00     0.856 C  
ENDROOT
BRANCH   2   3
HETATM    3  C   UNL     1      -7.626  20.663  69.854  1.00  0.00     1.507 C  
BRANCH   3   4
HETATM    4  C   UNL     1      -7.760  19.482  68.948  1.00  0.00    -0.334 A  
HETATM    5  N   UNL     1      -6.798  19.079  68.137  1.00  0.00    -0.239 NA 
HETATM    6  C   UNL     1      -7.320  18.054  67.395  1.00  0.00    -0.205 A  
HETATM    7  C   UNL     1      -8.624  17.795  67.789  1.00  0.00    -0.237 A  
HETATM    8  N   UNL     1      -8.875  18.674  68.822  1.00  0.00    -0.296 NA 
HETATM    9  C   UNL     1      -9.420  16.836  67.159  1.00  0.00    -0.237 A  
HETATM   10  C   UNL     1      -6.741  17.323  66.339  1.00  0.00    -0.289 A  
HETATM   11  C   UNL     1      -8.845  16.037  66.163  1.00  0.00    -0.366 A  
HETATM   12  C   UNL     1      -5.357  17.616  65.839  1.00  0.00    -0.193 C  
HETATM   13  C   UNL     1      -7.529  16.307  65.749  1.00  0.00     1.583 A  
BRANCH   8  14
HETATM   14  C   UNL     1     -10.171  18.807  69.489  1.00  0.00     0.395 C  
BRANCH  14  15
HETATM   15  C   UNL     1     -10.909  17.516  69.800  1.00  0.00     0.719 A  
HETATM   16  C   UNL     1     -11.586  16.762  68.843  1.00  0.00     0.267 A  
HETATM   17  C   UNL     1     -11.281  15.661  71.381  1.00  0.00    -0.392 A  
HETATM   18  C   UNL     1     -10.794  16.952  71.085  1.00  0.00     1.005 A  
HETATM   19  C   UNL     1     -12.108  15.490  69.160  1.00  0.00    -0.266 A  
HETATM   20  C   UNL     1     -11.947  14.880  70.424  1.00  0.00    -0.368 A  
BRANCH  20  21
HETATM   21  C   UNL     1     -12.411  13.469  70.661  1.00  0.00    -0.432 A  
HETATM   22  C   UNL     1     -13.712  11.933  72.105  1.00  0.00    -0.029 A  
HETATM   23  C   UNL     1     -13.255  13.218  71.765  1.00  0.00    -0.495 A  
HETATM   24  C   UNL     1     -12.564  11.041  70.227  1.00  0.00    -0.321 A  
HETATM   25  C   UNL     1     -12.098  12.337  69.872  1.00  0.00    -0.319 A  
HETATM   26  C   UNL     1     -13.349  10.841  71.353  1.00  0.00    -0.256 A  
HETATM   27  C   UNL     1     -11.239  12.375  68.665  1.00  0.00    -0.271 C  
HETATM   28  O   UNL     1     -11.811  11.606  67.711  1.00  0.00    -0.564 OA 
HETATM   29  O   UNL     1     -10.156  12.913  68.545  1.00  0.00    -0.233 OA 
ENDBRANCH  20  21
ENDBRANCH  14  15
ENDBRANCH   8  14
BRANCH  11  30
HETATM   30  C   UNL     1      -9.602  14.943  65.531  1.00  0.00    -0.145 A  
HETATM   31  C   UNL     1     -10.530  11.580  64.942  1.00  0.00    -0.345 A  
HETATM   32  C   UNL     1     -11.536  11.107  64.089  1.00  0.00     0.193 A  
HETATM   33  N   UNL     1      -9.414  13.660  65.798  1.00  0.00    -0.050 NA 
HETATM   34  C   UNL     1     -11.224  16.314  64.138  1.00  0.00     0.278 C  
HETATM   35  C   UNL     1     -10.315  12.964  65.036  1.00  0.00    -0.315 A  
HETATM   36  C   UNL     1     -12.309  11.994  63.341  1.00  0.00    -0.635 A  
HETATM   37  N   UNL     1     -10.639  15.082  64.617  1.00  0.00    -0.272 NA 
HETATM   38  C   UNL     1     -11.098  13.827  64.280  1.00  0.00    -0.283 A  
HETATM   39  C   UNL     1     -12.106  13.375  63.420  1.00  0.00    -0.437 A  
ENDBRANCH  11  30
ENDBRANCH   3   4
ENDBRANCH   2   3
TORSDOF 6
ENDMDL
MODEL      199
REMARK 921   NORMALIZED FREE ENERGY PREDICTED BY IDOCK:    1.72 KCAL/MOL
REMARK 922        TOTAL FREE ENERGY PREDICTED BY IDOCK:    0.33 KCAL/MOL
REMARK 923 INTER-LIGAND FREE ENERGY PREDICTED BY IDOCK:   -4.54 KCAL/MOL
REMARK 924 INTRA-LIGAND FREE ENERGY PREDICTED BY IDOCK:    4.87 KCAL/MOL
REMARK 927      BINDING AFFINITY PREDICTED BY RF-SCORE:    0.00 PKD
ROOT
HETATM    1  C   UNL     1     -11.971  12.405  63.971  1.00  0.00    -0.546 C  
HETATM    2  C   UNL     1     -10.695  12.362  64.801  1.00  0.00    -0.332 C  
ENDROOT
BRANCH   2   3
HETATM    3  C   UNL     1     -10.814  13.078  66.154  1.00  0.00    -0.296 C  
BRANCH   3   4
HETATM    4  C   UNL     1      -9.881  12.515  67.176  1.00  0.00    -0.210 A  
HETATM    5  N   UNL     1      -8.816  13.160  67.618  1.00  0.00    -0.179 NA 
HETATM    6  C   UNL     1      -8.155  12.296  68.449  1.00  0.00    -0.151 A  
HETATM    7  C   UNL     1      -8.854  11.103  68.551  1.00  0.00    -0.161 A  
HETATM    8  N   UNL     1      -9.986  11.276  67.780  1.00  0.00    -0.174 NA 
HETATM    9  C   UNL     1      -8.377  10.018  69.288  1.00  0.00    -0.154 A  
HETATM   10  C   UNL     1      -6.928  12.459  69.121  1.00  0.00    -0.034 A  
HETATM   11  C   UNL     1      -7.204  10.178  70.035  1.00  0.00    -0.166 A  
HETATM   12  C   UNL     1      -6.109  13.708  68.985  1.00  0.00    -0.088 C  
HETATM   13  C   UNL     1      -6.483  11.380  69.921  1.00  0.00    -0.118 A  
BRANCH   8  14
HETATM   14  C   UNL     1     -10.977  10.227  67.534  1.00  0.00    -0.280 C  
BRANCH  14  15
HETATM   15  C   UNL     1     -10.557   8.806  67.868  1.00  0.00    -0.236 A  
HETATM   16  C   UNL     1      -9.239   8.354  67.813  1.00  0.00    -0.142 A  
HETATM   17  C   UNL     1     -11.144   6.658  68.926  1.00  0.00    -0.312 A  
HETATM   18  C   UNL     1     -11.508   7.919  68.407  1.00  0.00     1.045 A  
HETATM   19  C   UNL     1      -8.892   7.075  68.295  1.00  0.00    -0.126 A  
HETATM   20  C   UNL     1      -9.820   6.196  68.898  1.00  0.00    -0.167 A  
BRANCH  20  21
HETATM   21  C   UNL     1      -9.363   4.901  69.511  1.00  0.00    -0.190 A  
HETATM   22  C   UNL     1      -9.745   3.195  71.268  1.00  0.00    -0.215 A  
HETATM   23  C   UNL     1     -10.105   4.374  70.591  1.00  0.00    -0.191 A  
HETATM   24  C   UNL     1      -7.896   2.933  69.800  1.00  0.00    -0.049 A  
HETATM   25  C   UNL     1      -8.252   4.123  69.107  1.00  0.00    -0.078 A  
HETATM   26  C   UNL     1      -8.629   2.487  70.890  1.00  0.00    -0.104 A  
HETATM   27  C   UNL     1      -7.346   4.484  67.992  1.00  0.00    -0.065 C  
HETATM   28  O   UNL     1      -7.088   3.367  67.275  1.00  0.00    -0.056 OA 
HETATM   29  O   UNL     1      -6.827   5.562  67.780  1.00  0.00    -0.060 OA 
ENDBRANCH  20  21
ENDBRANCH  14  15
ENDBRANCH   8  14
BRANCH  11  30
HETATM   30  C   UNL     1      -6.704   9.104  70.911  1.00  0.00    -0.087 A  
HETATM   31  C   UNL     1      -5.895   7.568  73.993  1.00  0.00    -0.071 A  
HETATM   32  C   UNL     1      -5.396   6.275  74.200  1.00  0.00    -0.041 A  
HETATM   33  N   UNL     1      -6.647   9.190  72.231  1.00  0.00    -0.306 NA 
HETATM   34  C   UNL     1      -6.272   7.313  69.163  1.00  0.00    -0.035 C  
HETATM   35  C   UNL     1      -6.153   7.994  72.681  1.00  0.00    -0.056 A  
HETATM   36  C   UNL     1      -5.156   5.425  73.121  1.00  0.00    -0.017 A  
HETATM   37  N   UNL     1      -6.272   7.847  70.506  1.00  0.00    -0.036 NA 
HETATM   38  C   UNL     1      -5.905   7.130  71.623  1.00  0.00    -0.037 A  
HETATM   39  C   UNL     1      -5.404   5.835  71.807  1.00  0.00    -0.020 A  
ENDBRANCH  11  30
ENDBRANCH   3   4
ENDBRANCH   2   3
TORSDOF 6
ENDMDL
MODEL      200
REMARK 921   NORMALIZED FREE ENERGY PREDICTED BY IDOCK:    1.73 KCAL/MOL
REMARK 922        TOTAL FREE ENERGY PREDICTED BY IDOCK:    0.34 KCAL/MOL
REMARK 923 INTER-LIGAND FREE ENERGY PREDICTED BY IDOCK:   -0.60 KCAL/MOL
REMARK 924 INTRA-LIGAND FREE ENERGY PREDICTED BY IDOCK:    0.94 KCAL/MOL
REMARK 927      BINDING AFFINITY PREDICTED BY RF-SCORE:    0.00 PKD
ROOT
HETATM    1  C   UNL     1     -14.055   8.399  73.246  1.00  0.00     0.954 C  
HETATM    2  C   UNL     1     -12.616   8.135  73.668  1.00  0.00     3.161 C  
ENDROOT
BRANCH   2   3
HETATM    3  C   UNL     1     -11.574   8.788  72.750  1.00  0.00     0.172 C  
BRANCH   3   4
HETATM    4  C   UNL     1     -10.935   7.802  71.826  1.00  0.00    -0.239 A  
HETATM    5  N   UNL     1      -9.927   7.027  72.180  1.00  0.00    -0.165 NA 
HETATM    6  C   UNL     1      -9.544   6.350  71.054  1.00  0.00    -0.175 A  
HETATM    7  C   UNL     1     -10.364   6.690  69.989  1.00  0.00    -0.199 A  
HETATM    8  N   UNL     1     -11.288   7.574  70.508  1.00  0.00    -0.275 NA 
HETATM    9  C   UNL     1     -10.163   6.192  68.701  1.00  0.00    -0.220 A  
HETATM   10  C   UNL     1      -8.473   5.453  70.865  1.00  0.00    -0.119 A  
HETATM   11  C   UNL     1      -9.161   5.236  68.500  1.00  0.00    -0.138 A  
HETATM   12  C   UNL     1      -7.523   5.110  71.974  1.00  0.00    -0.092 C  
HETATM   13  C   UNL     1      -8.315   4.900  69.573  1.00  0.00    -0.085 A  
BRANCH   8  14
HETATM   14  C   UNL     1     -12.306   8.258  69.710  1.00  0.00     1.621 C  
BRANCH  14  15
HETATM   15  C   UNL     1     -12.293   9.777  69.751  1.00  0.00     0.434 A  
HETATM   16  C   UNL     1     -12.842  10.528  70.789  1.00  0.00    -0.454 A  
HETATM   17  C   UNL     1     -11.341  11.874  68.871  1.00  0.00    -0.335 A  
HETATM   18  C   UNL     1     -11.564  10.483  68.776  1.00  0.00    -0.252 A  
HETATM   19  C   UNL     1     -12.651  11.924  70.852  1.00  0.00    -0.361 A  
HETATM   20  C   UNL     1     -11.870  12.642  69.919  1.00  0.00    -0.364 A  
BRANCH  20  21
HETATM   21  C   UNL     1     -11.594  14.107  70.114  1.00  0.00    -0.292 A  
HETATM   22  C   UNL     1     -10.398  16.116  69.293  1.00  0.00    -0.265 A  
HETATM   23  C   UNL     1     -10.757  14.761  69.183  1.00  0.00    -0.258 A  
HETATM   24  C   UNL     1     -11.734  16.298  71.249  1.00  0.00    -0.396 A  
HETATM   25  C   UNL     1     -12.105  14.929  71.146  1.00  0.00    -0.384 A  
HETATM   26  C   UNL     1     -10.865  16.879  70.336  1.00  0.00     0.310 A  
HETATM   27  C   UNL     1     -13.008  14.453  72.220  1.00  0.00    -0.374 C  
HETATM   28  O   UNL     1     -13.977  15.378  72.404  1.00  0.00    -0.500 OA 
HETATM   29  O   UNL     1     -12.880  13.458  72.906  1.00  0.00    -0.211 OA 
ENDBRANCH  20  21
ENDBRANCH  14  15
ENDBRANCH   8  14
BRANCH  11  30
HETATM   30  C   UNL     1      -8.965   4.599  67.186  1.00  0.00    -0.113 A  
HETATM   31  C   UNL     1      -8.693   1.900  64.916  1.00  0.00    -0.109 A  
HETATM   32  C   UNL     1      -8.511   1.964  63.528  1.00  0.00    -0.080 A  
HETATM   33  N   UNL     1      -8.962   3.290  66.989  1.00  0.00    -0.146 NA 
HETATM   34  C   UNL     1      -8.854   6.679  65.733  1.00  0.00    -0.077 C  
HETATM   35  C   UNL     1      -8.776   3.096  65.646  1.00  0.00    -0.126 A  
HETATM   36  C   UNL     1      -8.410   3.194  62.881  1.00  0.00    -0.078 A  
HETATM   37  N   UNL     1      -8.807   5.254  65.971  1.00  0.00    -0.136 NA 
HETATM   38  C   UNL     1      -8.672   4.309  64.978  1.00  0.00    -0.128 A  
HETATM   39  C   UNL     1      -8.488   4.395  63.592  1.00  0.00    -0.110 A  
ENDBRANCH  11  30
ENDBRANCH   3   4
ENDBRANCH   2   3
TORSDOF 6
ENDMDL
MODEL      201
REMARK 921   NORMALIZED FREE ENERGY PREDICTED BY IDOCK:    1.89 KCAL/MOL
REMARK 922        TOTAL FREE ENERGY PREDICTED BY IDOCK:    0.56 KCAL/MOL
REMARK 923 INTER-LIGAND FREE ENERGY PREDICTED BY IDOCK:   -2.28 KCAL/MOL
REMARK 924 INTRA-LIGAND FREE ENERGY PREDICTED BY IDOCK:    2.84 KCAL/MOL
REMARK 927      BINDING AFFINITY PREDICTED BY RF-SCORE:    0.00 PKD
ROOT
HETATM    1  C   UNL     1     -11.766   9.944  70.561  1.00  0.00    -0.373 C  
HETATM    2  C   UNL     1     -12.553  11.095  69.949  1.00  0.00    -0.171 C  
ENDROOT
BRANCH   2   3
HETATM    3  C   UNL     1     -12.887  12.213  70.946  1.00  0.00    -0.190 C  
BRANCH   3   4
HETATM    4  C   UNL     1     -12.065  13.440  70.717  1.00  0.00    -0.250 A  
HETATM    5  N   UNL     1     -11.967  14.420  71.597  1.00  0.00    -0.269 NA 
HETATM    6  C   UNL     1     -11.230  15.407  70.999  1.00  0.00    -0.364 A  
HETATM    7  C   UNL     1     -10.833  15.005  69.733  1.00  0.00    -0.261 A  
HETATM    8  N   UNL     1     -11.321  13.723  69.586  1.00  0.00    -0.218 NA 
HETATM    9  C   UNL     1     -10.118  15.841  68.873  1.00  0.00    -0.222 A  
HETATM   10  C   UNL     1     -10.896  16.691  71.473  1.00  0.00     1.097 A  
HETATM   11  C   UNL     1      -9.699  17.090  69.347  1.00  0.00     0.020 A  
HETATM   12  C   UNL     1     -11.362  17.188  72.809  1.00  0.00     1.160 C  
HETATM   13  C   UNL     1     -10.114  17.508  70.623  1.00  0.00     2.275 A  
BRANCH   8  14
HETATM   14  C   UNL     1     -11.205  12.937  68.357  1.00  0.00    -0.270 C  
BRANCH  14  15
HETATM   15  C   UNL     1     -10.066  11.933  68.299  1.00  0.00    -0.203 A  
HETATM   16  C   UNL     1      -9.618  11.208  69.402  1.00  0.00     0.187 A  
HETATM   17  C   UNL     1      -8.605  10.523  66.901  1.00  0.00    -0.125 A  
HETATM   18  C   UNL     1      -9.517  11.589  67.049  1.00  0.00    -0.193 A  
HETATM   19  C   UNL     1      -8.673  10.171  69.250  1.00  0.00    -0.186 A  
HETATM   20  C   UNL     1      -8.158   9.769  67.997  1.00  0.00    -0.105 A  
BRANCH  20  21
HETATM   21  C   UNL     1      -7.255   8.572  67.886  1.00  0.00    -0.088 A  
HETATM   22  C   UNL     1      -5.533   7.170  68.986  1.00  0.00    -0.018 A  
HETATM   23  C   UNL     1      -6.445   8.240  68.995  1.00  0.00    -0.047 A  
HETATM   24  C   UNL     1      -6.206   6.632  66.772  1.00  0.00    -0.040 A  
HETATM   25  C   UNL     1      -7.133   7.710  66.771  1.00  0.00    -0.083 A  
HETATM   26  C   UNL     1      -5.394   6.380  67.869  1.00  0.00    -0.004 A  
HETATM   27  C   UNL     1      -7.894   7.868  65.510  1.00  0.00    -0.112 C  
HETATM   28  O   UNL     1      -8.317   6.646  65.112  1.00  0.00    -0.137 OA 
HETATM   29  O   UNL     1      -8.053   8.885  64.864  1.00  0.00    -0.127 OA 
ENDBRANCH  20  21
ENDBRANCH  14  15
ENDBRANCH   8  14
BRANCH  11  30
HETATM   30  C   UNL     1      -8.857  17.976  68.524  1.00  0.00    -0.295 A  
HETATM   31  C   UNL     1      -6.904  20.842  67.830  1.00  0.00    -0.359 A  
HETATM   32  C   UNL     1      -6.203  21.135  66.652  1.00  0.00    -0.364 A  
HETATM   33  N   UNL     1      -8.370  19.134  68.941  1.00  0.00    -0.331 NA 
HETATM   34  C   UNL     1      -8.631  16.522  66.453  1.00  0.00    -0.312 C  
HETATM   35  C   UNL     1      -7.627  19.642  67.908  1.00  0.00    -0.296 A  
HETATM   36  C   UNL     1      -6.225  20.253  65.573  1.00  0.00    -0.260 A  
HETATM   37  N   UNL     1      -8.411  17.719  67.233  1.00  0.00    -0.228 NA 
HETATM   38  C   UNL     1      -7.634  18.779  66.819  1.00  0.00    -0.231 A  
HETATM   39  C   UNL     1      -6.943  19.054  65.633  1.00  0.00    -0.281 A  
ENDBRANCH  11  30
ENDBRANCH   3   4
ENDBRANCH   2   3
TORSDOF 6
ENDMDL
MODEL      202
REMARK 921   NORMALIZED FREE ENERGY PREDICTED BY IDOCK:    1.94 KCAL/MOL
REMARK 922        TOTAL FREE ENERGY PREDICTED BY IDOCK:    0.62 KCAL/MOL
REMARK 923 INTER-LIGAND FREE ENERGY PREDICTED BY IDOCK:    0.73 KCAL/MOL
REMARK 924 INTRA-LIGAND FREE ENERGY PREDICTED BY IDOCK:   -0.11 KCAL/MOL
REMARK 927      BINDING AFFINITY PREDICTED BY RF-SCORE:    0.00 PKD
ROOT
HETATM    1  C   UNL     1      -7.087  14.180  74.209  1.00  0.00     3.345 C  
HETATM    2  C   UNL     1      -5.881  14.066  73.286  1.00  0.00     0.177 C  
ENDROOT
BRANCH   2   3
HETATM    3  C   UNL     1      -5.139  12.727  73.404  1.00  0.00     0.241 C  
BRANCH   3   4
HETATM    4  C   UNL     1      -5.372  11.844  72.221  1.00  0.00     0.556 A  
HETATM    5  N   UNL     1      -5.375  10.526  72.291  1.00  0.00    -0.313 NA 
HETATM    6  C   UNL     1      -5.507  10.068  71.008  1.00  0.00    -0.080 A  
HETATM    7  C   UNL     1      -5.626  11.136  70.130  1.00  0.00    -0.101 A  
HETATM    8  N   UNL     1      -5.599  12.265  70.923  1.00  0.00    -0.306 NA 
HETATM    9  C   UNL     1      -5.715  10.962  68.748  1.00  0.00    -0.040 A  
HETATM   10  C   UNL     1      -5.493   8.747  70.518  1.00  0.00    -0.027 A  
HETATM   11  C   UNL     1      -5.789   9.660  68.240  1.00  0.00    -0.043 A  
HETATM   12  C   UNL     1      -5.300   7.569  71.426  1.00  0.00    -0.031 C  
HETATM   13  C   UNL     1      -5.650   8.574  69.123  1.00  0.00    -0.035 A  
BRANCH   8  14
HETATM   14  C   UNL     1      -5.615  13.632  70.402  1.00  0.00    -0.144 C  
BRANCH  14  15
HETATM   15  C   UNL     1      -6.718  13.968  69.412  1.00  0.00    -0.107 A  
HETATM   16  C   UNL     1      -6.482  14.455  68.127  1.00  0.00    -0.139 A  
HETATM   17  C   UNL     1      -9.090  13.736  68.782  1.00  0.00     0.027 A  
HETATM   18  C   UNL     1      -8.049  13.640  69.731  1.00  0.00     1.320 A  
HETATM   19  C   UNL     1      -7.536  14.588  67.200  1.00  0.00    -0.045 A  
HETATM   20  C   UNL     1      -8.867  14.204  67.479  1.00  0.00    -0.202 A  
BRANCH  20  21
HETATM   21  C   UNL     1      -9.920  14.247  66.406  1.00  0.00    -0.302 A  
HETATM   22  C   UNL     1     -11.140  15.638  64.758  1.00  0.00    -0.426 A  
HETATM   23  C   UNL     1     -10.152  15.473  65.744  1.00  0.00    -0.388 A  
HETATM   24  C   UNL     1     -11.713  13.342  64.966  1.00  0.00    -0.350 A  
HETATM   25  C   UNL     1     -10.715  13.164  65.964  1.00  0.00    -0.288 A  
HETATM   26  C   UNL     1     -11.937  14.582  64.384  1.00  0.00    -0.467 A  
HETATM   27  C   UNL     1     -10.630  11.790  66.512  1.00  0.00    -0.253 C  
HETATM   28  O   UNL     1     -10.683  10.916  65.481  1.00  0.00    -0.211 OA 
HETATM   29  O   UNL     1     -10.610  11.461  67.681  1.00  0.00    -0.187 OA 
ENDBRANCH  20  21
ENDBRANCH  14  15
ENDBRANCH   8  14
BRANCH  11  30
HETATM   30  C   UNL     1      -5.982   9.412  66.800  1.00  0.00    -0.060 A  
HETATM   31  C   UNL     1      -5.866   7.534  63.805  1.00  0.00    -0.048 A  
HETATM   32  C   UNL     1      -6.327   7.916  62.537  1.00  0.00    -0.077 A  
HETATM   33  N   UNL     1      -5.649   8.285  66.190  1.00  0.00    -0.035 NA 
HETATM   34  C   UNL     1      -7.170  11.566  66.167  1.00  0.00     0.241 C  
HETATM   35  C   UNL     1      -6.004   8.431  64.875  1.00  0.00    -0.052 A  
HETATM   36  C   UNL     1      -6.908   9.167  62.339  1.00  0.00    -0.091 A  
HETATM   37  N   UNL     1      -6.576  10.278  65.890  1.00  0.00    -0.105 NA 
HETATM   38  C   UNL     1      -6.587   9.672  64.653  1.00  0.00    -0.100 A  
HETATM   39  C   UNL     1      -7.051  10.074  63.394  1.00  0.00    -0.129 A  
ENDBRANCH  11  30
ENDBRANCH   3   4
ENDBRANCH   2   3
TORSDOF 6
ENDMDL
MODEL      203
REMARK 921   NORMALIZED FREE ENERGY PREDICTED BY IDOCK:    1.97 KCAL/MOL
REMARK 922        TOTAL FREE ENERGY PREDICTED BY IDOCK:    0.66 KCAL/MOL
REMARK 923 INTER-LIGAND FREE ENERGY PREDICTED BY IDOCK:    0.81 KCAL/MOL
REMARK 924 INTRA-LIGAND FREE ENERGY PREDICTED BY IDOCK:   -0.15 KCAL/MOL
REMARK 927      BINDING AFFINITY PREDICTED BY RF-SCORE:    0.00 PKD
ROOT
HETATM    1  C   UNL     1      -5.501  10.700  73.945  1.00  0.00     0.647 C  
HETATM    2  C   UNL     1      -6.667   9.880  73.408  1.00  0.00     1.866 C  
ENDROOT
BRANCH   2   3
HETATM    3  C   UNL     1      -6.435   9.334  71.992  1.00  0.00     0.159 C  
BRANCH   3   4
HETATM    4  C   UNL     1      -6.844  10.308  70.935  1.00  0.00     0.342 A  
HETATM    5  N   UNL     1      -6.177  11.418  70.677  1.00  0.00    -0.318 NA 
HETATM    6  C   UNL     1      -6.905  12.099  69.739  1.00  0.00     0.201 A  
HETATM    7  C   UNL     1      -8.029  11.369  69.383  1.00  0.00     0.270 A  
HETATM    8  N   UNL     1      -7.949  10.199  70.110  1.00  0.00    -0.130 NA 
HETATM    9  C   UNL     1      -8.983  11.853  68.486  1.00  0.00    -0.115 A  
HETATM   10  C   UNL     1      -6.678  13.370  69.174  1.00  0.00    -0.099 A  
HETATM   11  C   UNL     1      -8.742  13.074  67.846  1.00  0.00    -0.189 A  
HETATM   12  C   UNL     1      -5.510  14.219  69.580  1.00  0.00    -0.091 C  
HETATM   13  C   UNL     1      -7.613  13.826  68.215  1.00  0.00    -0.129 A  
BRANCH   8  14
HETATM   14  C   UNL     1      -8.980   9.160  70.108  1.00  0.00    -0.198 C  
BRANCH  14  15
HETATM   15  C   UNL     1      -8.499   7.726  70.249  1.00  0.00    -0.133 A  
HETATM   16  C   UNL     1      -7.579   7.130  69.388  1.00  0.00    -0.098 A  
HETATM   17  C   UNL     1      -8.302   5.730  71.682  1.00  0.00    -0.124 A  
HETATM   18  C   UNL     1      -8.873   6.986  71.387  1.00  0.00    -0.129 A  
HETATM   19  C   UNL     1      -7.046   5.854  69.669  1.00  0.00    -0.068 A  
HETATM   20  C   UNL     1      -7.360   5.124  70.837  1.00  0.00    -0.073 A  
BRANCH  20  21
HETATM   21  C   UNL     1      -6.659   3.830  71.145  1.00  0.00    -0.030 A  
HETATM   22  C   UNL     1      -5.415   2.498  72.824  1.00  0.00     0.000 A  
HETATM   23  C   UNL     1      -6.127   3.648  72.441  1.00  0.00    -0.009 A  
HETATM   24  C   UNL     1      -5.757   1.580  70.660  1.00  0.00    -0.016 A  
HETATM   25  C   UNL     1      -6.480   2.739  70.262  1.00  0.00    -0.028 A  
HETATM   26  C   UNL     1      -5.209   1.474  71.929  1.00  0.00     0.000 A  
HETATM   27  C   UNL     1      -6.967   2.712  68.863  1.00  0.00    -0.044 C  
HETATM   28  O   UNL     1      -7.505   1.495  68.621  1.00  0.00    -0.042 OA 
HETATM   29  O   UNL     1      -6.839   3.577  68.019  1.00  0.00    -0.048 OA 
ENDBRANCH  20  21
ENDBRANCH  14  15
ENDBRANCH   8  14
BRANCH  11  30
HETATM   30  C   UNL     1      -9.661  13.590  66.816  1.00  0.00    -0.267 A  
HETATM   31  C   UNL     1     -11.631  16.031  65.181  1.00  0.00     0.192 A  
HETATM   32  C   UNL     1     -12.377  15.880  64.004  1.00  0.00     0.507 A  
HETATM   33  N   UNL     1     -10.110  14.835  66.781  1.00  0.00    -0.252 NA 
HETATM   34  C   UNL     1      -9.818  11.533  65.335  1.00  0.00    -0.235 C  
HETATM   35  C   UNL     1     -10.911  14.931  65.673  1.00  0.00    -0.344 A  
HETATM   36  C   UNL     1     -12.407  14.659  63.333  1.00  0.00     0.844 A  
HETATM   37  N   UNL     1     -10.147  12.887  65.722  1.00  0.00    -0.287 NA 
HETATM   38  C   UNL     1     -10.957  13.725  64.987  1.00  0.00    -0.357 A  
HETATM   39  C   UNL     1     -11.698  13.552  63.811  1.00  0.00    -0.367 A  
ENDBRANCH  11  30
ENDBRANCH   3   4
ENDBRANCH   2   3
TORSDOF 6
ENDMDL
MODEL      204
REMARK 921   NORMALIZED FREE ENERGY PREDICTED BY IDOCK:    2.32 KCAL/MOL
REMARK 922        TOTAL FREE ENERGY PREDICTED BY IDOCK:    1.13 KCAL/MOL
REMARK 923 INTER-LIGAND FREE ENERGY PREDICTED BY IDOCK:   -2.37 KCAL/MOL
REMARK 924 INTRA-LIGAND FREE ENERGY PREDICTED BY IDOCK:    3.51 KCAL/MOL
REMARK 927      BINDING AFFINITY PREDICTED BY RF-SCORE:    0.00 PKD
ROOT
HETATM    1  C   UNL     1      -9.244   6.391  63.580  1.00  0.00     1.568 C  
HETATM    2  C   UNL     1      -8.338   5.673  62.589  1.00  0.00    -0.091 C  
ENDROOT
BRANCH   2   3
HETATM    3  C   UNL     1      -7.506   4.546  63.217  1.00  0.00    -0.054 C  
BRANCH   3   4
HETATM    4  C   UNL     1      -7.135   4.839  64.634  1.00  0.00    -0.058 A  
HETATM    5  N   UNL     1      -6.963   3.900  65.546  1.00  0.00    -0.060 NA 
HETATM    6  C   UNL     1      -6.745   4.546  66.733  1.00  0.00    -0.051 A  
HETATM    7  C   UNL     1      -6.744   5.919  66.537  1.00  0.00    -0.057 A  
HETATM    8  N   UNL     1      -6.935   6.093  65.181  1.00  0.00    -0.054 NA 
HETATM    9  C   UNL     1      -6.603   6.825  67.589  1.00  0.00    -0.058 A  
HETATM   10  C   UNL     1      -6.576   4.016  68.028  1.00  0.00    -0.042 A  
HETATM   11  C   UNL     1      -6.350   6.328  68.873  1.00  0.00    -0.041 A  
HETATM   12  C   UNL     1      -6.636   2.540  68.293  1.00  0.00    -0.029 C  
HETATM   13  C   UNL     1      -6.367   4.937  69.080  1.00  0.00    -0.031 A  
BRANCH   8  14
HETATM   14  C   UNL     1      -7.084   7.399  64.537  1.00  0.00    -0.061 C  
BRANCH  14  15
HETATM   15  C   UNL     1      -8.036   8.378  65.201  1.00  0.00    -0.147 A  
HETATM   16  C   UNL     1      -9.022   8.002  66.113  1.00  0.00    -0.215 A  
HETATM   17  C   UNL     1      -8.552  10.723  65.762  1.00  0.00    -0.187 A  
HETATM   18  C   UNL     1      -7.838   9.760  65.018  1.00  0.00    -0.128 A  
HETATM   19  C   UNL     1      -9.761   8.973  66.821  1.00  0.00    -0.279 A  
HETATM   20  C   UNL     1      -9.533  10.362  66.698  1.00  0.00    -0.199 A  
BRANCH  20  21
HETATM   21  C   UNL     1     -10.262  11.341  67.577  1.00  0.00    -0.217 A  
HETATM   22  C   UNL     1     -11.143  11.833  69.840  1.00  0.00     0.030 A  
HETATM   23  C   UNL     1     -10.439  11.014  68.939  1.00  0.00    -0.229 A  
HETATM   24  C   UNL     1     -11.505  13.411  68.102  1.00  0.00    -0.339 A  
HETATM   25  C   UNL     1     -10.793  12.592  67.183  1.00  0.00    -0.282 A  
HETATM   26  C   UNL     1     -11.696  13.019  69.419  1.00  0.00    -0.386 A  
HETATM   27  C   UNL     1     -10.711  13.135  65.807  1.00  0.00    -0.279 C  
HETATM   28  O   UNL     1     -10.396  14.448  65.886  1.00  0.00    -0.289 OA 
HETATM   29  O   UNL     1     -10.967  12.559  64.768  1.00  0.00    -0.284 OA 
ENDBRANCH  20  21
ENDBRANCH  14  15
ENDBRANCH   8  14
BRANCH  11  30
HETATM   30  C   UNL     1      -6.093   7.234  70.006  1.00  0.00    -0.027 A  
HETATM   31  C   UNL     1      -5.366   8.077  73.364  1.00  0.00    -0.045 A  
HETATM   32  C   UNL     1      -5.171   9.356  73.902  1.00  0.00    -0.110 A  
HETATM   33  N   UNL     1      -5.862   6.826  71.244  1.00  0.00    -0.035 NA 
HETATM   34  C   UNL     1      -6.090   9.452  68.768  1.00  0.00    -0.043 C  
HETATM   35  C   UNL     1      -5.649   7.953  71.995  1.00  0.00    -0.035 A  
HETATM   36  C   UNL     1      -5.261  10.488  73.094  1.00  0.00     0.356 A  
HETATM   37  N   UNL     1      -6.004   8.619  69.946  1.00  0.00    -0.031 NA 
HETATM   38  C   UNL     1      -5.733   9.095  71.210  1.00  0.00    -0.056 A  
HETATM   39  C   UNL     1      -5.544  10.383  71.728  1.00  0.00     0.202 A  
ENDBRANCH  11  30
ENDBRANCH   3   4
ENDBRANCH   2   3
TORSDOF 6
ENDMDL
MODEL      205
REMARK 921   NORMALIZED FREE ENERGY PREDICTED BY IDOCK:    2.33 KCAL/MOL
REMARK 922        TOTAL FREE ENERGY PREDICTED BY IDOCK:    1.15 KCAL/MOL
REMARK 923 INTER-LIGAND FREE ENERGY PREDICTED BY IDOCK:    0.52 KCAL/MOL
REMARK 924 INTRA-LIGAND FREE ENERGY PREDICTED BY IDOCK:    0.63 KCAL/MOL
REMARK 927      BINDING AFFINITY PREDICTED BY RF-SCORE:    0.00 PKD
ROOT
HETATM    1  C   UNL     1     -10.956   6.516  66.136  1.00  0.00     0.923 C  
HETATM    2  C   UNL     1     -10.267   5.366  66.858  1.00  0.00    -0.279 C  
ENDROOT
BRANCH   2   3
HETATM    3  C   UNL     1      -9.656   5.763  68.209  1.00  0.00    -0.139 C  
BRANCH   3   4
HETATM    4  C   UNL     1      -8.980   7.095  68.155  1.00  0.00    -0.128 A  
HETATM    5  N   UNL     1      -7.827   7.296  67.544  1.00  0.00    -0.111 NA 
HETATM    6  C   UNL     1      -7.474   8.594  67.800  1.00  0.00    -0.097 A  
HETATM    7  C   UNL     1      -8.456   9.217  68.554  1.00  0.00    -0.128 A  
HETATM    8  N   UNL     1      -9.442   8.267  68.725  1.00  0.00    -0.147 NA 
HETATM    9  C   UNL     1      -8.330  10.530  69.011  1.00  0.00    -0.154 A  
HETATM   10  C   UNL     1      -6.303   9.294  67.445  1.00  0.00    -0.062 A  
HETATM   11  C   UNL     1      -7.218  11.277  68.604  1.00  0.00    -0.098 A  
HETATM   12  C   UNL     1      -5.188   8.637  66.686  1.00  0.00    -0.035 C  
HETATM   13  C   UNL     1      -6.210  10.645  67.853  1.00  0.00    -0.054 A  
BRANCH   8  14
HETATM   14  C   UNL     1     -10.643   8.468  69.538  1.00  0.00    -0.211 C  
BRANCH  14  15
HETATM   15  C   UNL     1     -11.033   9.908  69.825  1.00  0.00    -0.304 A  
HETATM   16  C   UNL     1     -11.241  10.412  71.108  1.00  0.00     0.041 A  
HETATM   17  C   UNL     1     -11.200  12.224  68.995  1.00  0.00    -0.319 A  
HETATM   18  C   UNL     1     -11.047  10.839  68.769  1.00  0.00    -0.312 A  
HETATM   19  C   UNL     1     -11.436  11.794  71.320  1.00  0.00     1.793 A  
HETATM   20  C   UNL     1     -11.390  12.751  70.282  1.00  0.00     0.336 A  
BRANCH  20  21
HETATM   21  C   UNL     1     -11.474  14.220  70.588  1.00  0.00    -0.125 A  
HETATM   22  C   UNL     1     -11.582  15.966  72.344  1.00  0.00    -0.483 A  
HETATM   23  C   UNL     1     -11.464  14.624  71.942  1.00  0.00     0.099 A  
HETATM   24  C   UNL     1     -11.669  16.628  70.064  1.00  0.00     0.544 A  
HETATM   25  C   UNL     1     -11.549  15.274  69.646  1.00  0.00    -0.340 A  
HETATM   26  C   UNL     1     -11.708  16.966  71.409  1.00  0.00     0.739 A  
HETATM   27  C   UNL     1     -11.562  15.077  68.178  1.00  0.00    -0.340 C  
HETATM   28  O   UNL     1     -10.754  16.005  67.616  1.00  0.00    -0.310 OA 
HETATM   29  O   UNL     1     -12.240  14.294  67.542  1.00  0.00    -0.354 OA 
ENDBRANCH  20  21
ENDBRANCH  14  15
ENDBRANCH   8  14
BRANCH  11  30
HETATM   30  C   UNL     1      -7.076  12.697  68.969  1.00  0.00    -0.028 A  
HETATM   31  C   UNL     1      -6.052  15.427  70.971  1.00  0.00     0.362 A  
HETATM   32  C   UNL     1      -6.211  16.793  70.702  1.00  0.00     0.733 A  
HETATM   33  N   UNL     1      -6.484  13.123  70.074  1.00  0.00     0.002 NA 
HETATM   34  C   UNL     1      -8.080  13.759  66.892  1.00  0.00     0.145 C  
HETATM   35  C   UNL     1      -6.533  14.492  70.042  1.00  0.00    -0.160 A  
HETATM   36  C   UNL     1      -6.841  17.218  69.533  1.00  0.00    -0.080 A  
HETATM   37  N   UNL     1      -7.485  13.785  68.209  1.00  0.00    -0.108 NA 
HETATM   38  C   UNL     1      -7.157  14.940  68.885  1.00  0.00    -0.117 A  
HETATM   39  C   UNL     1      -7.329  16.300  68.598  1.00  0.00    -0.180 A  
ENDBRANCH  11  30
ENDBRANCH   3   4
ENDBRANCH   2   3
TORSDOF 6
ENDMDL
MODEL      206
REMARK 921   NORMALIZED FREE ENERGY PREDICTED BY IDOCK:    2.62 KCAL/MOL
REMARK 922        TOTAL FREE ENERGY PREDICTED BY IDOCK:    1.54 KCAL/MOL
REMARK 923 INTER-LIGAND FREE ENERGY PREDICTED BY IDOCK:    0.42 KCAL/MOL
REMARK 924 INTRA-LIGAND FREE ENERGY PREDICTED BY IDOCK:    1.12 KCAL/MOL
REMARK 927      BINDING AFFINITY PREDICTED BY RF-SCORE:    0.00 PKD
ROOT
HETATM    1  C   UNL     1      -9.418   7.755  67.580  1.00  0.00    -0.168 C  
HETATM    2  C   UNL     1      -8.062   8.223  67.071  1.00  0.00    -0.104 C  
ENDROOT
BRANCH   2   3
HETATM    3  C   UNL     1      -8.103   9.590  66.375  1.00  0.00    -0.111 C  
BRANCH   3   4
HETATM    4  C   UNL     1      -8.977  10.566  67.093  1.00  0.00    -0.140 A  
HETATM    5  N   UNL     1     -10.127  11.000  66.610  1.00  0.00    -0.212 NA 
HETATM    6  C   UNL     1     -10.581  11.953  67.482  1.00  0.00    -0.219 A  
HETATM    7  C   UNL     1      -9.705  12.078  68.550  1.00  0.00    -0.161 A  
HETATM    8  N   UNL     1      -8.714  11.145  68.321  1.00  0.00    -0.144 NA 
HETATM    9  C   UNL     1      -9.890  13.020  69.563  1.00  0.00     1.132 A  
HETATM   10  C   UNL     1     -11.720  12.777  67.401  1.00  0.00    -0.425 A  
HETATM   11  C   UNL     1     -11.056  13.795  69.553  1.00  0.00    -0.156 A  
HETATM   12  C   UNL     1     -12.657  12.719  66.230  1.00  0.00     0.361 C  
HETATM   13  C   UNL     1     -11.938  13.684  68.464  1.00  0.00    -0.396 A  
BRANCH   8  14
HETATM   14  C   UNL     1      -7.528  10.985  69.164  1.00  0.00    -0.121 C  
BRANCH  14  15
HETATM   15  C   UNL     1      -7.286   9.599  69.738  1.00  0.00    -0.094 A  
HETATM   16  C   UNL     1      -8.296   8.661  69.948  1.00  0.00    -0.123 A  
HETATM   17  C   UNL     1      -5.661   7.824  70.273  1.00  0.00    -0.023 A  
HETATM   18  C   UNL     1      -5.963   9.162  69.938  1.00  0.00    -0.035 A  
HETATM   19  C   UNL     1      -7.986   7.337  70.324  1.00  0.00    -0.115 A  
HETATM   20  C   UNL     1      -6.663   6.862  70.468  1.00  0.00    -0.053 A  
BRANCH  20  21
HETATM   21  C   UNL     1      -6.395   5.408  70.742  1.00  0.00    -0.031 A  
HETATM   22  C   UNL     1      -5.287   3.328  69.978  1.00  0.00    -0.008 A  
HETATM   23  C   UNL     1      -5.567   4.699  69.844  1.00  0.00    -0.012 A  
HETATM   24  C   UNL     1      -6.592   3.267  71.961  1.00  0.00    -0.015 A  
HETATM   25  C   UNL     1      -6.882   4.654  71.836  1.00  0.00    -0.050 A  
HETATM   26  C   UNL     1      -5.816   2.605  71.021  1.00  0.00    -0.014 A  
HETATM   27  C   UNL     1      -7.756   5.200  72.900  1.00  0.00    -0.098 C  
HETATM   28  O   UNL     1      -7.320   4.732  74.092  1.00  0.00    -0.076 OA 
HETATM   29  O   UNL     1      -8.756   5.877  72.761  1.00  0.00    -0.125 OA 
ENDBRANCH  20  21
ENDBRANCH  14  15
ENDBRANCH   8  14
BRANCH  11  30
HETATM   30  C   UNL     1     -11.357  14.736  70.646  1.00  0.00    -0.188 A  
HETATM   31  C   UNL     1     -12.561  15.709  73.827  1.00  0.00    -0.743 A  
HETATM   32  C   UNL     1     -12.514  16.984  74.407  1.00  0.00     0.096 A  
HETATM   33  N   UNL     1     -11.942  14.390  71.782  1.00  0.00    -0.229 NA 
HETATM   34  C   UNL     1     -10.304  16.837  69.684  1.00  0.00    -0.151 C  
HETATM   35  C   UNL     1     -12.025  15.527  72.543  1.00  0.00    -0.455 A  
HETATM   36  C   UNL     1     -11.949  18.056  73.719  1.00  0.00     1.502 A  
HETATM   37  N   UNL     1     -11.037  16.088  70.678  1.00  0.00    -0.351 NA 
HETATM   38  C   UNL     1     -11.468  16.611  71.878  1.00  0.00     0.126 A  
HETATM   39  C   UNL     1     -11.414  17.894  72.437  1.00  0.00     2.546 A  
ENDBRANCH  11  30
ENDBRANCH   3   4
ENDBRANCH   2   3
TORSDOF 6
ENDMDL
MODEL      207
REMARK 921   NORMALIZED FREE ENERGY PREDICTED BY IDOCK:    2.87 KCAL/MOL
REMARK 922        TOTAL FREE ENERGY PREDICTED BY IDOCK:    1.88 KCAL/MOL
REMARK 923 INTER-LIGAND FREE ENERGY PREDICTED BY IDOCK:    1.08 KCAL/MOL
REMARK 924 INTRA-LIGAND FREE ENERGY PREDICTED BY IDOCK:    0.80 KCAL/MOL
REMARK 927      BINDING AFFINITY PREDICTED BY RF-SCORE:    0.00 PKD
ROOT
HETATM    1  C   UNL     1      -6.384  13.853  66.707  1.00  0.00     1.960 C  
HETATM    2  C   UNL     1      -6.862  12.546  66.088  1.00  0.00     2.109 C  
ENDROOT
BRANCH   2   3
HETATM    3  C   UNL     1      -5.722  11.633  65.618  1.00  0.00     1.004 C  
BRANCH   3   4
HETATM    4  C   UNL     1      -5.922  10.213  66.041  1.00  0.00    -0.081 A  
HETATM    5  N   UNL     1      -5.636   9.181  65.269  1.00  0.00    -0.049 NA 
HETATM    6  C   UNL     1      -6.052   8.065  65.943  1.00  0.00    -0.038 A  
HETATM    7  C   UNL     1      -6.572   8.419  67.178  1.00  0.00    -0.058 A  
HETATM    8  N   UNL     1      -6.429   9.789  67.255  1.00  0.00    -0.068 NA 
HETATM    9  C   UNL     1      -7.126   7.483  68.053  1.00  0.00    -0.084 A  
HETATM   10  C   UNL     1      -6.048   6.716  65.536  1.00  0.00    -0.038 A  
HETATM   11  C   UNL     1      -7.060   6.126  67.714  1.00  0.00    -0.081 A  
HETATM   12  C   UNL     1      -5.555   6.298  64.182  1.00  0.00    -0.022 C  
HETATM   13  C   UNL     1      -6.550   5.764  66.455  1.00  0.00    -0.055 A  
BRANCH   8  14
HETATM   14  C   UNL     1      -6.925  10.604  68.366  1.00  0.00    -0.066 C  
BRANCH  14  15
HETATM   15  C   UNL     1      -7.524   9.853  69.543  1.00  0.00    -0.112 A  
HETATM   16  C   UNL     1      -8.890   9.625  69.700  1.00  0.00    -0.212 A  
HETATM   17  C   UNL     1      -7.152   8.338  71.452  1.00  0.00    -0.067 A  
HETATM   18  C   UNL     1      -6.666   9.216  70.459  1.00  0.00    -0.069 A  
HETATM   19  C   UNL     1      -9.369   8.779  70.723  1.00  0.00    -0.253 A  
HETATM   20  C   UNL     1      -8.521   8.081  71.612  1.00  0.00    -0.155 A  
BRANCH  20  21
HETATM   21  C   UNL     1      -9.086   7.092  72.594  1.00  0.00    -0.157 A  
HETATM   22  C   UNL     1      -8.631   5.592  74.514  1.00  0.00    -0.110 A  
HETATM   23  C   UNL     1      -8.222   6.555  73.575  1.00  0.00    -0.122 A  
HETATM   24  C   UNL     1     -10.827   5.663  73.611  1.00  0.00    -0.261 A  
HETATM   25  C   UNL     1     -10.424   6.639  72.657  1.00  0.00    -0.237 A  
HETATM   26  C   UNL     1      -9.925   5.128  74.519  1.00  0.00    -0.252 A  
HETATM   27  C   UNL     1     -11.496   7.079  71.735  1.00  0.00    -0.267 C  
HETATM   28  O   UNL     1     -12.617   7.301  72.459  1.00  0.00     0.021 OA 
HETATM   29  O   UNL     1     -11.446   7.150  70.523  1.00  0.00    -0.287 OA 
ENDBRANCH  20  21
ENDBRANCH  14  15
ENDBRANCH   8  14
BRANCH  11  30
HETATM   30  C   UNL     1      -7.537   5.084  68.639  1.00  0.00    -0.078 A  
HETATM   31  C   UNL     1      -7.454   3.057  71.536  1.00  0.00    -0.040 A  
HETATM   32  C   UNL     1      -8.398   2.103  71.942  1.00  0.00    -0.063 A  
HETATM   33  N   UNL     1      -6.911   4.737  69.752  1.00  0.00    -0.050 NA 
HETATM   34  C   UNL     1      -9.732   4.498  67.503  1.00  0.00    -0.169 C  
HETATM   35  C   UNL     1      -7.671   3.762  70.343  1.00  0.00    -0.047 A  
HETATM   36  C   UNL     1      -9.532   1.855  71.171  1.00  0.00    -0.206 A  
HETATM   37  N   UNL     1      -8.714   4.354  68.518  1.00  0.00    -0.093 NA 
HETATM   38  C   UNL     1      -8.808   3.496  69.592  1.00  0.00    -0.091 A  
HETATM   39  C   UNL     1      -9.763   2.546  69.977  1.00  0.00     0.030 A  
ENDBRANCH  11  30
ENDBRANCH   3   4
ENDBRANCH   2   3
TORSDOF 6
ENDMDL
MODEL      208
REMARK 921   NORMALIZED FREE ENERGY PREDICTED BY IDOCK:    3.64 KCAL/MOL
REMARK 922        TOTAL FREE ENERGY PREDICTED BY IDOCK:    2.92 KCAL/MOL
REMARK 923 INTER-LIGAND FREE ENERGY PREDICTED BY IDOCK:    1.72 KCAL/MOL
REMARK 924 INTRA-LIGAND FREE ENERGY PREDICTED BY IDOCK:    1.20 KCAL/MOL
REMARK 927      BINDING AFFINITY PREDICTED BY RF-SCORE:    0.00 PKD
ROOT
HETATM    1  C   UNL     1      -6.382  13.779  66.823  1.00  0.00     1.900 C  
HETATM    2  C   UNL     1      -6.805  12.413  66.298  1.00  0.00     1.437 C  
ENDROOT
BRANCH   2   3
HETATM    3  C   UNL     1      -5.627  11.515  65.897  1.00  0.00     0.341 C  
BRANCH   3   4
HETATM    4  C   UNL     1      -5.800  10.108  66.372  1.00  0.00    -0.062 A  
HETATM    5  N   UNL     1      -5.482   9.054  65.643  1.00  0.00    -0.040 NA 
HETATM    6  C   UNL     1      -5.880   7.955  66.356  1.00  0.00    -0.040 A  
HETATM    7  C   UNL     1      -6.422   8.344  67.571  1.00  0.00    -0.058 A  
HETATM    8  N   UNL     1      -6.311   9.719  67.597  1.00  0.00    -0.060 NA 
HETATM    9  C   UNL     1      -6.964   7.430  68.476  1.00  0.00    -0.079 A  
HETATM   10  C   UNL     1      -5.841   6.592  66.001  1.00  0.00    -0.022 A  
HETATM   11  C   UNL     1      -6.864   6.063  68.189  1.00  0.00    -0.070 A  
HETATM   12  C   UNL     1      -5.324   6.135  64.669  1.00  0.00    -0.017 C  
HETATM   13  C   UNL     1      -6.331   5.664  66.950  1.00  0.00    -0.035 A  
BRANCH   8  14
HETATM   14  C   UNL     1      -6.837  10.564  68.670  1.00  0.00    -0.054 C  
BRANCH  14  15
HETATM   15  C   UNL     1      -8.104  10.081  69.354  1.00  0.00    -0.150 A  
HETATM   16  C   UNL     1      -9.385  10.503  68.997  1.00  0.00    -0.205 A  
HETATM   17  C   UNL     1      -9.171   8.410  70.820  1.00  0.00    -0.186 A  
HETATM   18  C   UNL     1      -8.021   9.042  70.300  1.00  0.00    -0.124 A  
HETATM   19  C   UNL     1     -10.528   9.893  69.555  1.00  0.00    -0.261 A  
HETATM   20  C   UNL     1     -10.466   8.807  70.456  1.00  0.00    -0.246 A  
BRANCH  20  21
HETATM   21  C   UNL     1     -11.721   8.116  70.913  1.00  0.00    -0.259 A  
HETATM   22  C   UNL     1     -14.174   7.889  70.645  1.00  0.00     0.685 A  
HETATM   23  C   UNL     1     -12.936   8.440  70.270  1.00  0.00     1.314 A  
HETATM   24  C   UNL     1     -13.078   6.589  72.304  1.00  0.00     0.150 A  
HETATM   25  C   UNL     1     -11.820   7.139  71.932  1.00  0.00    -0.336 A  
HETATM   26  C   UNL     1     -14.251   6.982  71.675  1.00  0.00    -0.433 A  
HETATM   27  C   UNL     1     -10.671   6.645  72.726  1.00  0.00    -0.243 C  
HETATM   28  O   UNL     1     -10.783   5.303  72.847  1.00  0.00    -0.216 OA 
HETATM   29  O   UNL     1      -9.810   7.306  73.271  1.00  0.00    -0.203 OA 
ENDBRANCH  20  21
ENDBRANCH  14  15
ENDBRANCH   8  14
BRANCH  11  30
HETATM   30  C   UNL     1      -7.327   5.045  69.148  1.00  0.00    -0.057 A  
HETATM   31  C   UNL     1      -9.088   2.161  70.194  1.00  0.00    -0.172 A  
HETATM   32  C   UNL     1      -9.092   1.576  71.467  1.00  0.00    -0.126 A  
HETATM   33  N   UNL     1      -8.144   4.051  68.837  1.00  0.00    -0.070 NA 
HETATM   34  C   UNL     1      -5.997   5.766  71.189  1.00  0.00    -0.029 C  
HETATM   35  C   UNL     1      -8.318   3.314  69.980  1.00  0.00    -0.048 A  
HETATM   36  C   UNL     1      -8.347   2.131  72.507  1.00  0.00    -0.055 A  
HETATM   37  N   UNL     1      -6.951   4.942  70.482  1.00  0.00    -0.043 NA 
HETATM   38  C   UNL     1      -7.584   3.849  71.031  1.00  0.00    -0.048 A  
HETATM   39  C   UNL     1      -7.577   3.281  72.312  1.00  0.00    -0.057 A  
ENDBRANCH  11  30
ENDBRANCH   3   4
ENDBRANCH   2   3
TORSDOF 6
ENDMDL
MODEL      209
REMARK 921   NORMALIZED FREE ENERGY PREDICTED BY IDOCK:    4.02 KCAL/MOL
REMARK 922        TOTAL FREE ENERGY PREDICTED BY IDOCK:    3.43 KCAL/MOL
REMARK 923 INTER-LIGAND FREE ENERGY PREDICTED BY IDOCK:    1.57 KCAL/MOL
REMARK 924 INTRA-LIGAND FREE ENERGY PREDICTED BY IDOCK:    1.85 KCAL/MOL
REMARK 927      BINDING AFFINITY PREDICTED BY RF-SCORE:    0.00 PKD
ROOT
HETATM    1  C   UNL     1     -10.979   6.177  73.678  1.00  0.00    -0.041 C  
HETATM    2  C   UNL     1     -12.429   5.808  73.395  1.00  0.00     1.875 C  
ENDROOT
BRANCH   2   3
HETATM    3  C   UNL     1     -12.760   5.705  71.900  1.00  0.00     1.077 C  
BRANCH   3   4
HETATM    4  C   UNL     1     -11.655   6.226  71.039  1.00  0.00    -0.272 A  
HETATM    5  N   UNL     1     -10.694   5.460  70.553  1.00  0.00    -0.240 NA 
HETATM    6  C   UNL     1      -9.816   6.295  69.917  1.00  0.00    -0.167 A  
HETATM    7  C   UNL     1     -10.270   7.604  69.980  1.00  0.00    -0.213 A  
HETATM    8  N   UNL     1     -11.477   7.540  70.648  1.00  0.00    -0.284 NA 
HETATM    9  C   UNL     1      -9.540   8.675  69.463  1.00  0.00    -0.170 A  
HETATM   10  C   UNL     1      -8.587   6.002  69.294  1.00  0.00    -0.118 A  
HETATM   11  C   UNL     1      -8.357   8.406  68.765  1.00  0.00    -0.116 A  
HETATM   12  C   UNL     1      -8.028   4.610  69.262  1.00  0.00    -0.070 C  
HETATM   13  C   UNL     1      -7.883   7.083  68.713  1.00  0.00    -0.118 A  
BRANCH   8  14
HETATM   14  C   UNL     1     -12.274   8.711  71.013  1.00  0.00    -0.179 C  
BRANCH  14  15
HETATM   15  C   UNL     1     -11.850  10.037  70.405  1.00  0.00    -0.343 A  
HETATM   16  C   UNL     1     -11.525  10.202  69.059  1.00  0.00    -0.138 A  
HETATM   17  C   UNL     1     -11.743  12.490  70.629  1.00  0.00     0.200 A  
HETATM   18  C   UNL     1     -11.924  11.205  71.186  1.00  0.00    -0.172 A  
HETATM   19  C   UNL     1     -11.303  11.487  68.521  1.00  0.00    -0.337 A  
HETATM   20  C   UNL     1     -11.435  12.675  69.273  1.00  0.00    -0.354 A  
BRANCH  20  21
HETATM   21  C   UNL     1     -11.315  14.020  68.611  1.00  0.00    -0.307 A  
HETATM   22  C   UNL     1     -10.845  16.436  68.902  1.00  0.00    -0.334 A  
HETATM   23  C   UNL     1     -10.944  15.127  69.407  1.00  0.00    -0.268 A  
HETATM   24  C   UNL     1     -11.421  15.634  66.742  1.00  0.00     0.113 A  
HETATM   25  C   UNL     1     -11.523  14.306  67.241  1.00  0.00    -0.371 A  
HETATM   26  C   UNL     1     -11.105  16.695  67.578  1.00  0.00    -0.055 A  
HETATM   27  C   UNL     1     -11.906  13.294  66.229  1.00  0.00    -0.395 C  
HETATM   28  O   UNL     1     -11.180  13.514  65.110  1.00  0.00    -0.298 OA 
HETATM   29  O   UNL     1     -12.782  12.457  66.316  1.00  0.00    -0.026 OA 
ENDBRANCH  20  21
ENDBRANCH  14  15
ENDBRANCH   8  14
BRANCH  11  30
HETATM   30  C   UNL     1      -7.594   9.483  68.111  1.00  0.00    -0.079 A  
HETATM   31  C   UNL     1      -5.973  12.620  67.900  1.00  0.00    -0.108 A  
HETATM   32  C   UNL     1      -5.262  13.144  66.811  1.00  0.00     1.243 A  
HETATM   33  N   UNL     1      -7.268  10.623  68.699  1.00  0.00    -0.084 NA 
HETATM   34  C   UNL     1      -7.107   8.353  65.889  1.00  0.00    -0.072 C  
HETATM   35  C   UNL     1      -6.548  11.345  67.783  1.00  0.00    -0.069 A  
HETATM   36  C   UNL     1      -5.133  12.416  65.630  1.00  0.00     2.905 A  
HETATM   37  N   UNL     1      -7.066   9.452  66.826  1.00  0.00    -0.082 NA 
HETATM   38  C   UNL     1      -6.406  10.639  66.596  1.00  0.00    -0.091 A  
HETATM   39  C   UNL     1      -5.703  11.147  65.495  1.00  0.00     0.131 A  
ENDBRANCH  11  30
ENDBRANCH   3   4
ENDBRANCH   2   3
TORSDOF 6
ENDMDL
MODEL      210
REMARK 921   NORMALIZED FREE ENERGY PREDICTED BY IDOCK:    4.03 KCAL/MOL
REMARK 922        TOTAL FREE ENERGY PREDICTED BY IDOCK:    3.45 KCAL/MOL
REMARK 923 INTER-LIGAND FREE ENERGY PREDICTED BY IDOCK:    4.19 KCAL/MOL
REMARK 924 INTRA-LIGAND FREE ENERGY PREDICTED BY IDOCK:   -0.74 KCAL/MOL
REMARK 927      BINDING AFFINITY PREDICTED BY RF-SCORE:    0.00 PKD
ROOT
HETATM    1  C   UNL     1      -7.405  14.401  73.865  1.00  0.00     5.036 C  
HETATM    2  C   UNL     1      -6.053  14.470  73.168  1.00  0.00     0.552 C  
ENDROOT
BRANCH   2   3
HETATM    3  C   UNL     1      -5.143  13.270  73.467  1.00  0.00    -0.014 C  
BRANCH   3   4
HETATM    4  C   UNL     1      -5.352  12.147  72.504  1.00  0.00     0.659 A  
HETATM    5  N   UNL     1      -5.509  10.891  72.881  1.00  0.00     0.098 NA 
HETATM    6  C   UNL     1      -5.560  10.145  71.734  1.00  0.00     0.117 A  
HETATM    7  C   UNL     1      -5.472  10.970  70.624  1.00  0.00    -0.124 A  
HETATM    8  N   UNL     1      -5.399  12.253  71.127  1.00  0.00    -0.293 NA 
HETATM    9  C   UNL     1      -5.439  10.470  69.321  1.00  0.00    -0.037 A  
HETATM   10  C   UNL     1      -5.645   8.748  71.574  1.00  0.00    -0.045 A  
HETATM   11  C   UNL     1      -5.606   9.094  69.126  1.00  0.00    -0.036 A  
HETATM   12  C   UNL     1      -5.676   7.816  72.750  1.00  0.00    -0.040 C  
HETATM   13  C   UNL     1      -5.679   8.251  70.250  1.00  0.00    -0.021 A  
BRANCH   8  14
HETATM   14  C   UNL     1      -5.210  13.447  70.302  1.00  0.00    -0.106 C  
BRANCH  14  15
HETATM   15  C   UNL     1      -6.419  13.929  69.519  1.00  0.00    -0.115 A  
HETATM   16  C   UNL     1      -7.318  14.883  69.994  1.00  0.00     0.068 A  
HETATM   17  C   UNL     1      -7.561  14.082  67.340  1.00  0.00    -0.167 A  
HETATM   18  C   UNL     1      -6.581  13.517  68.183  1.00  0.00    -0.121 A  
HETATM   19  C   UNL     1      -8.323  15.411  69.155  1.00  0.00    -0.242 A  
HETATM   20  C   UNL     1      -8.461  15.058  67.795  1.00  0.00    -0.161 A  
BRANCH  20  21
HETATM   21  C   UNL     1      -9.467  15.753  66.919  1.00  0.00    -0.244 A  
HETATM   22  C   UNL     1     -11.742  15.702  65.938  1.00  0.00     0.443 A  
HETATM   23  C   UNL     1     -10.741  15.163  66.765  1.00  0.00    -0.311 A  
HETATM   24  C   UNL     1     -10.298  17.506  65.389  1.00  0.00     0.108 A  
HETATM   25  C   UNL     1      -9.279  16.971  66.225  1.00  0.00    -0.278 A  
HETATM   26  C   UNL     1     -11.515  16.859  65.231  1.00  0.00     0.693 A  
HETATM   27  C   UNL     1      -8.026  17.761  66.254  1.00  0.00    -0.247 C  
HETATM   28  O   UNL     1      -8.350  19.068  66.379  1.00  0.00    -0.296 OA 
HETATM   29  O   UNL     1      -6.892  17.354  66.100  1.00  0.00    -0.255 OA 
ENDBRANCH  20  21
ENDBRANCH  14  15
ENDBRANCH   8  14
BRANCH  11  30
HETATM   30  C   UNL     1      -5.680   8.517  67.773  1.00  0.00    -0.039 A  
HETATM   31  C   UNL     1      -6.120   5.951  65.378  1.00  0.00    -0.029 A  
HETATM   32  C   UNL     1      -6.110   6.073  63.982  1.00  0.00    -0.025 A  
HETATM   33  N   UNL     1      -5.904   7.236  67.524  1.00  0.00    -0.029 NA 
HETATM   34  C   UNL     1      -5.437  10.644  66.405  1.00  0.00    -0.077 C  
HETATM   35  C   UNL     1      -5.924   7.100  66.160  1.00  0.00    -0.036 A  
HETATM   36  C   UNL     1      -5.905   7.312  63.378  1.00  0.00    -0.041 A  
HETATM   37  N   UNL     1      -5.580   9.216  66.576  1.00  0.00    -0.048 NA 
HETATM   38  C   UNL     1      -5.721   8.323  65.535  1.00  0.00    -0.044 A  
HETATM   39  C   UNL     1      -5.705   8.466  64.142  1.00  0.00    -0.064 A  
ENDBRANCH  11  30
ENDBRANCH   3   4
ENDBRANCH   2   3
TORSDOF 6
ENDMDL
MODEL      211
REMARK 921   NORMALIZED FREE ENERGY PREDICTED BY IDOCK:    4.57 KCAL/MOL
REMARK 922        TOTAL FREE ENERGY PREDICTED BY IDOCK:    4.17 KCAL/MOL
REMARK 923 INTER-LIGAND FREE ENERGY PREDICTED BY IDOCK:    4.43 KCAL/MOL
REMARK 924 INTRA-LIGAND FREE ENERGY PREDICTED BY IDOCK:   -0.26 KCAL/MOL
REMARK 927      BINDING AFFINITY PREDICTED BY RF-SCORE:    0.00 PKD
ROOT
HETATM    1  C   UNL     1     -10.786  11.845  70.950  1.00  0.00     3.028 C  
HETATM    2  C   UNL     1     -11.233  10.618  70.168  1.00  0.00    -0.378 C  
ENDROOT
BRANCH   2   3
HETATM    3  C   UNL     1     -11.144  10.791  68.645  1.00  0.00    -0.312 C  
BRANCH   3   4
HETATM    4  C   UNL     1     -10.765   9.522  67.953  1.00  0.00    -0.228 A  
HETATM    5  N   UNL     1     -11.525   8.443  67.953  1.00  0.00     1.042 NA 
HETATM    6  C   UNL     1     -10.808   7.462  67.323  1.00  0.00    -0.256 A  
HETATM    7  C   UNL     1      -9.591   7.965  66.889  1.00  0.00    -0.203 A  
HETATM    8  N   UNL     1      -9.599   9.298  67.244  1.00  0.00    -0.149 NA 
HETATM    9  C   UNL     1      -8.631   7.166  66.264  1.00  0.00    -0.143 A  
HETATM   10  C   UNL     1     -11.127   6.105  67.120  1.00  0.00    -0.335 A  
HETATM   11  C   UNL     1      -8.953   5.835  65.974  1.00  0.00    -0.157 A  
HETATM   12  C   UNL     1     -12.404   5.506  67.631  1.00  0.00     7.191 C  
HETATM   13  C   UNL     1     -10.179   5.316  66.427  1.00  0.00    -0.289 A  
BRANCH   8  14
HETATM   14  C   UNL     1      -8.466  10.204  67.051  1.00  0.00    -0.129 C  
BRANCH  14  15
HETATM   15  C   UNL     1      -8.797  11.677  66.880  1.00  0.00    -0.190 A  
HETATM   16  C   UNL     1     -10.002  12.144  66.357  1.00  0.00    -0.243 A  
HETATM   17  C   UNL     1      -8.262  14.012  67.466  1.00  0.00    -0.195 A  
HETATM   18  C   UNL     1      -7.920  12.643  67.408  1.00  0.00    -0.177 A  
HETATM   19  C   UNL     1     -10.317  13.519  66.380  1.00  0.00    -0.289 A  
HETATM   20  C   UNL     1      -9.478  14.496  66.962  1.00  0.00    -0.247 A  
BRANCH  20  21
HETATM   21  C   UNL     1      -9.929  15.926  67.073  1.00  0.00    -0.248 A  
HETATM   22  C   UNL     1     -10.080  18.140  65.971  1.00  0.00    -0.272 A  
HETATM   23  C   UNL     1      -9.738  16.776  65.962  1.00  0.00    -0.287 A  
HETATM   24  C   UNL     1     -10.892  17.909  68.191  1.00  0.00    -0.178 A  
HETATM   25  C   UNL     1     -10.551  16.528  68.192  1.00  0.00    -0.329 A  
HETATM   26  C   UNL     1     -10.635  18.713  67.090  1.00  0.00    -0.468 A  
HETATM   27  C   UNL     1     -10.855  15.819  69.457  1.00  0.00    -0.287 C  
HETATM   28  O   UNL     1     -12.092  16.184  69.864  1.00  0.00    -0.201 OA 
HETATM   29  O   UNL     1     -10.113  15.101  70.099  1.00  0.00    -0.174 OA 
ENDBRANCH  20  21
ENDBRANCH  14  15
ENDBRANCH   8  14
BRANCH  11  30
HETATM   30  C   UNL     1      -8.022   4.969  65.229  1.00  0.00    -0.102 A  
HETATM   31  C   UNL     1      -5.925   2.165  64.723  1.00  0.00    -0.018 A  
HETATM   32  C   UNL     1      -5.215   1.826  63.564  1.00  0.00    -0.004 A  
HETATM   33  N   UNL     1      -7.491   3.858  65.715  1.00  0.00    -0.080 NA 
HETATM   34  C   UNL     1      -8.031   6.180  62.996  1.00  0.00    -0.098 C  
HETATM   35  C   UNL     1      -6.708   3.331  64.723  1.00  0.00    -0.040 A  
HETATM   36  C   UNL     1      -5.279   2.633  62.429  1.00  0.00    -0.004 A  
HETATM   37  N   UNL     1      -7.606   5.150  63.915  1.00  0.00    -0.065 NA 
HETATM   38  C   UNL     1      -6.755   4.119  63.580  1.00  0.00    -0.043 A  
HETATM   39  C   UNL     1      -6.051   3.799  62.412  1.00  0.00    -0.017 A  
ENDBRANCH  11  30
ENDBRANCH   3   4
ENDBRANCH   2   3
TORSDOF 6
ENDMDL
MODEL      212
REMARK 921   NORMALIZED FREE ENERGY PREDICTED BY IDOCK:    4.58 KCAL/MOL
REMARK 922        TOTAL FREE ENERGY PREDICTED BY IDOCK:    4.19 KCAL/MOL
REMARK 923 INTER-LIGAND FREE ENERGY PREDICTED BY IDOCK:    4.15 KCAL/MOL
REMARK 924 INTRA-LIGAND FREE ENERGY PREDICTED BY IDOCK:    0.05 KCAL/MOL
REMARK 927      BINDING AFFINITY PREDICTED BY RF-SCORE:    0.00 PKD
ROOT
HETATM    1  C   UNL     1      -8.789   3.521  63.149  1.00  0.00    -0.094 C  
HETATM    2  C   UNL     1      -8.298   2.586  64.246  1.00  0.00    -0.083 C  
ENDROOT
BRANCH   2   3
HETATM    3  C   UNL     1      -7.612   3.310  65.413  1.00  0.00    -0.077 C  
BRANCH   3   4
HETATM    4  C   UNL     1      -8.363   4.529  65.843  1.00  0.00    -0.114 A  
HETATM    5  N   UNL     1      -9.681   4.597  65.861  1.00  0.00    -0.182 NA 
HETATM    6  C   UNL     1      -9.999   5.886  66.198  1.00  0.00     0.013 A  
HETATM    7  C   UNL     1      -8.844   6.617  66.430  1.00  0.00    -0.144 A  
HETATM    8  N   UNL     1      -7.806   5.724  66.259  1.00  0.00    -0.099 NA 
HETATM    9  C   UNL     1      -8.869   7.979  66.734  1.00  0.00    -0.157 A  
HETATM   10  C   UNL     1     -11.260   6.507  66.286  1.00  0.00     0.980 A  
HETATM   11  C   UNL     1     -10.109   8.603  66.911  1.00  0.00    -0.355 A  
HETATM   12  C   UNL     1     -12.529   5.769  65.978  1.00  0.00     4.952 C  
HETATM   13  C   UNL     1     -11.283   7.871  66.660  1.00  0.00     1.376 A  
BRANCH   8  14
HETATM   14  C   UNL     1      -6.390   6.090  66.328  1.00  0.00    -0.042 C  
BRANCH  14  15
HETATM   15  C   UNL     1      -6.008   7.129  67.368  1.00  0.00    -0.029 A  
HETATM   16  C   UNL     1      -5.426   8.357  67.058  1.00  0.00    -0.037 A  
HETATM   17  C   UNL     1      -6.246   7.938  69.685  1.00  0.00    -0.033 A  
HETATM   18  C   UNL     1      -6.387   6.928  68.709  1.00  0.00    -0.028 A  
HETATM   19  C   UNL     1      -5.250   9.345  68.050  1.00  0.00    -0.033 A  
HETATM   20  C   UNL     1      -5.681   9.187  69.386  1.00  0.00    -0.035 A  
BRANCH  20  21
HETATM   21  C   UNL     1      -5.585  10.326  70.364  1.00  0.00    -0.068 A  
HETATM   22  C   UNL     1      -5.315  12.769  70.675  1.00  0.00    -0.157 A  
HETATM   23  C   UNL     1      -5.457  11.637  69.854  1.00  0.00    -0.091 A  
HETATM   24  C   UNL     1      -5.476  11.381  72.595  1.00  0.00     0.960 A  
HETATM   25  C   UNL     1      -5.622  10.229  71.775  1.00  0.00     0.162 A  
HETATM   26  C   UNL     1      -5.300  12.642  72.043  1.00  0.00     0.210 A  
HETATM   27  C   UNL     1      -5.761   8.955  72.518  1.00  0.00    -0.075 C  
HETATM   28  O   UNL     1      -6.636   9.146  73.532  1.00  0.00    -0.326 OA 
HETATM   29  O   UNL     1      -5.144   7.924  72.339  1.00  0.00    -0.035 OA 
ENDBRANCH  20  21
ENDBRANCH  14  15
ENDBRANCH   8  14
BRANCH  11  30
HETATM   30  C   UNL     1     -10.202  10.013  67.329  1.00  0.00    -0.222 A  
HETATM   31  C   UNL     1     -11.367  12.735  69.264  1.00  0.00    -0.307 A  
HETATM   32  C   UNL     1     -10.964  14.075  69.187  1.00  0.00    -0.263 A  
HETATM   33  N   UNL     1     -10.995  10.449  68.295  1.00  0.00    -0.253 NA 
HETATM   34  C   UNL     1      -8.404  11.005  65.835  1.00  0.00    -0.119 C  
HETATM   35  C   UNL     1     -10.780  11.799  68.400  1.00  0.00    -0.219 A  
HETATM   36  C   UNL     1      -9.998  14.474  68.264  1.00  0.00    -0.229 A  
HETATM   37  N   UNL     1      -9.454  11.070  66.826  1.00  0.00    -0.179 NA 
HETATM   38  C   UNL     1      -9.820  12.221  67.490  1.00  0.00    -0.193 A  
HETATM   39  C   UNL     1      -9.404  13.555  67.394  1.00  0.00    -0.228 A  
ENDBRANCH  11  30
ENDBRANCH   3   4
ENDBRANCH   2   3
TORSDOF 6
ENDMDL
MODEL      213
REMARK 921   NORMALIZED FREE ENERGY PREDICTED BY IDOCK:    4.60 KCAL/MOL
REMARK 922        TOTAL FREE ENERGY PREDICTED BY IDOCK:    4.21 KCAL/MOL
REMARK 923 INTER-LIGAND FREE ENERGY PREDICTED BY IDOCK:    0.78 KCAL/MOL
REMARK 924 INTRA-LIGAND FREE ENERGY PREDICTED BY IDOCK:    3.43 KCAL/MOL
REMARK 927      BINDING AFFINITY PREDICTED BY RF-SCORE:    0.00 PKD
ROOT
HETATM    1  C   UNL     1      -9.358   6.635  70.351  1.00  0.00    -0.160 C  
HETATM    2  C   UNL     1     -10.580   5.729  70.416  1.00  0.00    -0.365 C  
ENDROOT
BRANCH   2   3
HETATM    3  C   UNL     1     -11.787   6.266  69.633  1.00  0.00     0.164 C  
BRANCH   3   4
HETATM    4  C   UNL     1     -11.448   7.481  68.833  1.00  0.00     0.659 A  
HETATM    5  N   UNL     1     -10.550   7.482  67.864  1.00  0.00    -0.209 NA 
HETATM    6  C   UNL     1     -10.433   8.780  67.445  1.00  0.00    -0.279 A  
HETATM    7  C   UNL     1     -11.312   9.590  68.148  1.00  0.00     0.314 A  
HETATM    8  N   UNL     1     -11.998   8.740  68.991  1.00  0.00     1.590 NA 
HETATM    9  C   UNL     1     -11.363  10.973  67.965  1.00  0.00    -0.374 A  
HETATM   10  C   UNL     1      -9.564   9.341  66.488  1.00  0.00    -0.285 A  
HETATM   11  C   UNL     1     -10.572  11.547  66.963  1.00  0.00    -0.277 A  
HETATM   12  C   UNL     1      -8.554   8.510  65.753  1.00  0.00    -0.190 C  
HETATM   13  C   UNL     1      -9.667  10.733  66.259  1.00  0.00    -0.248 A  
BRANCH   8  14
HETATM   14  C   UNL     1     -12.977   9.184  69.983  1.00  0.00     1.504 C  
BRANCH  14  15
HETATM   15  C   UNL     1     -12.909  10.645  70.396  1.00  0.00    -0.277 A  
HETATM   16  C   UNL     1     -13.854  11.262  71.215  1.00  0.00     1.156 A  
HETATM   17  C   UNL     1     -11.547  12.689  70.596  1.00  0.00     0.455 A  
HETATM   18  C   UNL     1     -11.765  11.397  70.072  1.00  0.00    -0.416 A  
HETATM   19  C   UNL     1     -13.647  12.571  71.699  1.00  0.00     0.019 A  
HETATM   20  C   UNL     1     -12.477  13.318  71.437  1.00  0.00    -0.284 A  
BRANCH  20  21
HETATM   21  C   UNL     1     -12.257  14.655  72.089  1.00  0.00    -0.352 A  
HETATM   22  C   UNL     1     -12.686  16.091  74.062  1.00  0.00    -0.682 A  
HETATM   23  C   UNL     1     -12.793  14.867  73.378  1.00  0.00    -0.638 A  
HETATM   24  C   UNL     1     -11.443  16.983  72.246  1.00  0.00     0.673 A  
HETATM   25  C   UNL     1     -11.543  15.749  71.546  1.00  0.00    -0.531 A  
HETATM   26  C   UNL     1     -12.033  17.156  73.489  1.00  0.00     0.217 A  
HETATM   27  C   UNL     1     -10.892  15.740  70.215  1.00  0.00    -0.351 C  
HETATM   28  O   UNL     1      -9.678  16.325  70.330  1.00  0.00     0.637 OA 
HETATM   29  O   UNL     1     -11.369  15.368  69.161  1.00  0.00    -0.273 OA 
ENDBRANCH  20  21
ENDBRANCH  14  15
ENDBRANCH   8  14
BRANCH  11  30
HETATM   30  C   UNL     1     -10.655  12.986  66.655  1.00  0.00    -0.266 A  
HETATM   31  C   UNL     1      -9.519  16.334  66.549  1.00  0.00    -0.289 A  
HETATM   32  C   UNL     1     -10.166  17.440  65.981  1.00  0.00    -0.308 A  
HETATM   33  N   UNL     1      -9.709  13.863  66.952  1.00  0.00    -0.259 NA 
HETATM   34  C   UNL     1     -12.858  13.010  65.391  1.00  0.00    -0.142 C  
HETATM   35  C   UNL     1     -10.142  15.078  66.487  1.00  0.00    -0.276 A  
HETATM   36  C   UNL     1     -11.410  17.297  65.369  1.00  0.00     0.767 A  
HETATM   37  N   UNL     1     -11.687  13.622  65.977  1.00  0.00    -0.342 NA 
HETATM   38  C   UNL     1     -11.381  14.962  65.872  1.00  0.00    -0.306 A  
HETATM   39  C   UNL     1     -12.047  16.054  65.301  1.00  0.00     1.003 A  
ENDBRANCH  11  30
ENDBRANCH   3   4
ENDBRANCH   2   3
TORSDOF 6
ENDMDL
MODEL      214
REMARK 921   NORMALIZED FREE ENERGY PREDICTED BY IDOCK:    4.69 KCAL/MOL
REMARK 922        TOTAL FREE ENERGY PREDICTED BY IDOCK:    4.33 KCAL/MOL
REMARK 923 INTER-LIGAND FREE ENERGY PREDICTED BY IDOCK:    2.74 KCAL/MOL
REMARK 924 INTRA-LIGAND FREE ENERGY PREDICTED BY IDOCK:    1.60 KCAL/MOL
REMARK 927      BINDING AFFINITY PREDICTED BY RF-SCORE:    0.00 PKD
ROOT
HETATM    1  C   UNL     1      -8.151  15.067  70.635  1.00  0.00     1.549 C  
HETATM    2  C   UNL     1      -6.734  15.526  70.953  1.00  0.00     0.938 C  
ENDROOT
BRANCH   2   3
HETATM    3  C   UNL     1      -5.847  14.423  71.547  1.00  0.00    -0.091 C  
BRANCH   3   4
HETATM    4  C   UNL     1      -5.913  13.157  70.756  1.00  0.00    -0.017 A  
HETATM    5  N   UNL     1      -5.722  11.962  71.286  1.00  0.00    -0.366 NA 
HETATM    6  C   UNL     1      -5.748  11.069  70.249  1.00  0.00    -0.115 A  
HETATM    7  C   UNL     1      -6.000  11.729  69.056  1.00  0.00    -0.061 A  
HETATM    8  N   UNL     1      -6.163  13.056  69.400  1.00  0.00    -0.107 NA 
HETATM    9  C   UNL     1      -6.023  11.069  67.826  1.00  0.00    -0.046 A  
HETATM   10  C   UNL     1      -5.525   9.678  70.255  1.00  0.00    -0.041 A  
HETATM   11  C   UNL     1      -5.888   9.676  67.810  1.00  0.00    -0.044 A  
HETATM   12  C   UNL     1      -5.185   8.936  71.514  1.00  0.00    -0.039 C  
HETATM   13  C   UNL     1      -5.615   9.004  69.015  1.00  0.00    -0.036 A  
BRANCH   8  14
HETATM   14  C   UNL     1      -6.367  14.134  68.432  1.00  0.00    -0.101 C  
BRANCH  14  15
HETATM   15  C   UNL     1      -7.622  14.052  67.580  1.00  0.00    -0.195 A  
HETATM   16  C   UNL     1      -7.768  14.699  66.353  1.00  0.00     1.338 A  
HETATM   17  C   UNL     1      -9.744  12.890  67.107  1.00  0.00    -0.221 A  
HETATM   18  C   UNL     1      -8.649  13.165  67.954  1.00  0.00    -0.185 A  
HETATM   19  C   UNL     1      -8.888  14.449  65.533  1.00  0.00     1.418 A  
HETATM   20  C   UNL     1      -9.897  13.516  65.861  1.00  0.00    -0.255 A  
BRANCH  20  21
HETATM   21  C   UNL     1     -10.996  13.198  64.886  1.00  0.00    -0.337 A  
HETATM   22  C   UNL     1     -12.214  11.433  63.643  1.00  0.00     0.097 A  
HETATM   23  C   UNL     1     -11.242  11.842  64.573  1.00  0.00    -0.380 A  
HETATM   24  C   UNL     1     -12.822  13.704  63.299  1.00  0.00     0.791 A  
HETATM   25  C   UNL     1     -11.843  14.128  64.240  1.00  0.00    -0.420 A  
HETATM   26  C   UNL     1     -12.988  12.362  62.988  1.00  0.00     0.353 A  
HETATM   27  C   UNL     1     -11.767  15.596  64.431  1.00  0.00    -0.218 C  
HETATM   28  O   UNL     1     -13.026  16.078  64.540  1.00  0.00     0.480 OA 
HETATM   29  O   UNL     1     -10.772  16.294  64.404  1.00  0.00    -0.544 OA 
ENDBRANCH  20  21
ENDBRANCH  14  15
ENDBRANCH   8  14
BRANCH  11  30
HETATM   30  C   UNL     1      -6.003   8.912  66.556  1.00  0.00    -0.056 A  
HETATM   31  C   UNL     1      -6.385   6.012  64.567  1.00  0.00    -0.033 A  
HETATM   32  C   UNL     1      -6.477   5.937  63.170  1.00  0.00    -0.028 A  
HETATM   33  N   UNL     1      -6.137   7.596  66.498  1.00  0.00    -0.043 NA 
HETATM   34  C   UNL     1      -6.025  10.838  64.900  1.00  0.00     0.061 C  
HETATM   35  C   UNL     1      -6.234   7.269  65.171  1.00  0.00    -0.038 A  
HETATM   36  C   UNL     1      -6.414   7.092  62.392  1.00  0.00    -0.052 A  
HETATM   37  N   UNL     1      -6.039   9.442  65.272  1.00  0.00    -0.063 NA 
HETATM   38  C   UNL     1      -6.173   8.405  64.374  1.00  0.00    -0.066 A  
HETATM   39  C   UNL     1      -6.260   8.353  62.977  1.00  0.00    -0.086 A  
ENDBRANCH  11  30
ENDBRANCH   3   4
ENDBRANCH   2   3
TORSDOF 6
ENDMDL
MODEL      215
REMARK 921   NORMALIZED FREE ENERGY PREDICTED BY IDOCK:    4.77 KCAL/MOL
REMARK 922        TOTAL FREE ENERGY PREDICTED BY IDOCK:    4.44 KCAL/MOL
REMARK 923 INTER-LIGAND FREE ENERGY PREDICTED BY IDOCK:    3.19 KCAL/MOL
REMARK 924 INTRA-LIGAND FREE ENERGY PREDICTED BY IDOCK:    1.25 KCAL/MOL
REMARK 927      BINDING AFFINITY PREDICTED BY RF-SCORE:    0.00 PKD
ROOT
HETATM    1  C   UNL     1      -8.149  15.067  70.637  1.00  0.00     1.549 C  
HETATM    2  C   UNL     1      -6.733  15.536  70.941  1.00  0.00     0.938 C  
ENDROOT
BRANCH   2   3
HETATM    3  C   UNL     1      -5.835  14.441  71.534  1.00  0.00    -0.091 C  
BRANCH   3   4
HETATM    4  C   UNL     1      -5.896  13.172  70.747  1.00  0.00    -0.111 A  
HETATM    5  N   UNL     1      -5.691  11.980  71.280  1.00  0.00    -0.365 NA 
HETATM    6  C   UNL     1      -5.717  11.083  70.246  1.00  0.00    -0.115 A  
HETATM    7  C   UNL     1      -5.984  11.738  69.053  1.00  0.00    -0.061 A  
HETATM    8  N   UNL     1      -6.155  13.064  69.394  1.00  0.00    -0.102 NA 
HETATM    9  C   UNL     1      -6.010  11.074  67.825  1.00  0.00    -0.046 A  
HETATM   10  C   UNL     1      -5.482   9.694  70.255  1.00  0.00    -0.041 A  
HETATM   11  C   UNL     1      -5.864   9.682  67.812  1.00  0.00    -0.044 A  
HETATM   12  C   UNL     1      -5.126   8.960  71.513  1.00  0.00    -0.036 C  
HETATM   13  C   UNL     1      -5.576   9.016  69.017  1.00  0.00    -0.036 A  
BRANCH   8  14
HETATM   14  C   UNL     1      -6.376  14.137  68.424  1.00  0.00    -0.101 C  
BRANCH  14  15
HETATM   15  C   UNL     1      -7.636  14.041  67.581  1.00  0.00    -0.191 A  
HETATM   16  C   UNL     1      -7.799  14.688  66.356  1.00  0.00     1.104 A  
HETATM   17  C   UNL     1      -9.746  12.853  67.121  1.00  0.00    -0.221 A  
HETATM   18  C   UNL     1      -8.648  13.141  67.960  1.00  0.00    -0.182 A  
HETATM   19  C   UNL     1      -8.922  14.426  65.544  1.00  0.00     1.071 A  
HETATM   20  C   UNL     1      -9.916  13.479  65.877  1.00  0.00    -0.295 A  
BRANCH  20  21
HETATM   21  C   UNL     1     -11.018  13.149  64.909  1.00  0.00    -0.337 A  
HETATM   22  C   UNL     1     -12.891  14.010  63.534  1.00  0.00     0.875 A  
HETATM   23  C   UNL     1     -11.808  14.208  64.409  1.00  0.00    -0.447 A  
HETATM   24  C   UNL     1     -12.450  11.676  63.536  1.00  0.00    -0.345 A  
HETATM   25  C   UNL     1     -11.352  11.865  64.420  1.00  0.00    -0.395 A  
HETATM   26  C   UNL     1     -13.229  12.744  63.116  1.00  0.00     1.049 A  
HETATM   27  C   UNL     1     -10.647  10.619  64.804  1.00  0.00    -0.114 C  
HETATM   28  O   UNL     1     -10.467   9.871  63.692  1.00  0.00     1.032 OA 
HETATM   29  O   UNL     1     -10.352  10.252  65.924  1.00  0.00    -0.237 OA 
ENDBRANCH  20  21
ENDBRANCH  14  15
ENDBRANCH   8  14
BRANCH  11  30
HETATM   30  C   UNL     1      -5.981   8.913  66.561  1.00  0.00    -0.056 A  
HETATM   31  C   UNL     1      -5.678   8.343  63.083  1.00  0.00    -0.073 A  
HETATM   32  C   UNL     1      -5.980   7.170  62.378  1.00  0.00    -0.049 A  
HETATM   33  N   UNL     1      -5.638   9.378  65.370  1.00  0.00    -0.051 NA 
HETATM   34  C   UNL     1      -6.778   6.696  67.512  1.00  0.00    -0.067 C  
HETATM   35  C   UNL     1      -5.870   8.368  64.473  1.00  0.00    -0.063 A  
HETATM   36  C   UNL     1      -6.468   6.047  63.044  1.00  0.00    -0.032 A  
HETATM   37  N   UNL     1      -6.410   7.597  66.443  1.00  0.00    -0.045 NA 
HETATM   38  C   UNL     1      -6.357   7.237  65.114  1.00  0.00    -0.038 A  
HETATM   39  C   UNL     1      -6.669   6.056  64.428  1.00  0.00    -0.042 A  
ENDBRANCH  11  30
ENDBRANCH   3   4
ENDBRANCH   2   3
TORSDOF 6
ENDMDL
MODEL      216
REMARK 921   NORMALIZED FREE ENERGY PREDICTED BY IDOCK:    5.59 KCAL/MOL
REMARK 922        TOTAL FREE ENERGY PREDICTED BY IDOCK:    5.55 KCAL/MOL
REMARK 923 INTER-LIGAND FREE ENERGY PREDICTED BY IDOCK:    5.94 KCAL/MOL
REMARK 924 INTRA-LIGAND FREE ENERGY PREDICTED BY IDOCK:   -0.39 KCAL/MOL
REMARK 927      BINDING AFFINITY PREDICTED BY RF-SCORE:    0.00 PKD
ROOT
HETATM    1  C   UNL     1     -13.749  14.204  66.160  1.00  0.00     2.926 C  
HETATM    2  C   UNL     1     -13.003  14.256  64.834  1.00  0.00     0.040 C  
ENDROOT
BRANCH   2   3
HETATM    3  C   UNL     1     -12.278  12.949  64.483  1.00  0.00    -0.489 C  
BRANCH   3   4
HETATM    4  C   UNL     1     -11.816  12.214  65.699  1.00  0.00    -0.276 A  
HETATM    5  N   UNL     1     -12.643  11.694  66.588  1.00  0.00     1.552 NA 
HETATM    6  C   UNL     1     -11.865  11.205  67.603  1.00  0.00     0.060 A  
HETATM    7  C   UNL     1     -10.523  11.395  67.310  1.00  0.00    -0.206 A  
HETATM    8  N   UNL     1     -10.501  11.987  66.063  1.00  0.00    -0.241 NA 
HETATM    9  C   UNL     1      -9.506  11.044  68.199  1.00  0.00    -0.172 A  
HETATM   10  C   UNL     1     -12.247  10.618  68.825  1.00  0.00     0.230 A  
HETATM   11  C   UNL     1      -9.851  10.383  69.384  1.00  0.00    -0.235 A  
HETATM   12  C   UNL     1     -13.688  10.455  69.208  1.00  0.00     3.910 C  
HETATM   13  C   UNL     1     -11.211  10.204  69.694  1.00  0.00    -0.310 A  
BRANCH   8  14
HETATM   14  C   UNL     1      -9.282  12.443  65.394  1.00  0.00     0.304 C  
BRANCH  14  15
HETATM   15  C   UNL     1      -8.911  13.904  65.582  1.00  0.00     0.881 A  
HETATM   16  C   UNL     1      -9.628  14.962  65.026  1.00  0.00     0.334 A  
HETATM   17  C   UNL     1      -7.624  15.576  66.857  1.00  0.00    -0.162 A  
HETATM   18  C   UNL     1      -7.882  14.240  66.482  1.00  0.00     0.973 A  
HETATM   19  C   UNL     1      -9.333  16.297  65.374  1.00  0.00     0.414 A  
HETATM   20  C   UNL     1      -8.348  16.651  66.323  1.00  0.00    -0.360 A  
BRANCH  20  21
HETATM   21  C   UNL     1      -8.172  18.083  66.749  1.00  0.00    -0.272 A  
HETATM   22  C   UNL     1      -6.702  20.078  66.743  1.00  0.00    -0.241 A  
HETATM   23  C   UNL     1      -6.991  18.755  66.363  1.00  0.00    -0.249 A  
HETATM   24  C   UNL     1      -8.784  20.193  67.880  1.00  0.00    -0.274 A  
HETATM   25  C   UNL     1      -9.087  18.856  67.501  1.00  0.00    -0.307 A  
HETATM   26  C   UNL     1      -7.585  20.790  67.520  1.00  0.00    -0.312 A  
HETATM   27  C   UNL     1     -10.390  18.353  67.998  1.00  0.00    -0.384 C  
HETATM   28  O   UNL     1     -11.321  19.313  67.798  1.00  0.00    -0.064 OA 
HETATM   29  O   UNL     1     -10.606  17.307  68.576  1.00  0.00    -0.354 OA 
ENDBRANCH  20  21
ENDBRANCH  14  15
ENDBRANCH   8  14
BRANCH  11  30
HETATM   30  C   UNL     1      -8.818   9.898  70.316  1.00  0.00    -0.028 A  
HETATM   31  C   UNL     1      -7.581   8.219  73.174  1.00  0.00    -0.170 A  
HETATM   32  C   UNL     1      -6.243   8.048  73.553  1.00  0.00    -0.086 A  
HETATM   33  N   UNL     1      -9.076   9.207  71.415  1.00  0.00    -0.311 NA 
HETATM   34  C   UNL     1      -6.742  10.642  69.055  1.00  0.00    -0.066 C  
HETATM   35  C   UNL     1      -7.867   8.924  71.994  1.00  0.00     0.136 A  
HETATM   36  C   UNL     1      -5.211   8.571  72.776  1.00  0.00    -0.045 A  
HETATM   37  N   UNL     1      -7.444  10.042  70.167  1.00  0.00    -0.168 NA 
HETATM   38  C   UNL     1      -6.822   9.436  71.237  1.00  0.00     0.025 A  
HETATM   39  C   UNL     1      -5.478   9.279  71.600  1.00  0.00    -0.065 A  
ENDBRANCH  11  30
ENDBRANCH   3   4
ENDBRANCH   2   3
TORSDOF 6
ENDMDL
MODEL      217
REMARK 921   NORMALIZED FREE ENERGY PREDICTED BY IDOCK:    7.19 KCAL/MOL
REMARK 922        TOTAL FREE ENERGY PREDICTED BY IDOCK:    7.71 KCAL/MOL
REMARK 923 INTER-LIGAND FREE ENERGY PREDICTED BY IDOCK:    6.13 KCAL/MOL
REMARK 924 INTRA-LIGAND FREE ENERGY PREDICTED BY IDOCK:    1.58 KCAL/MOL
REMARK 927      BINDING AFFINITY PREDICTED BY RF-SCORE:    0.00 PKD
ROOT
HETATM    1  C   UNL     1     -12.076   7.945  66.375  1.00  0.00     7.214 C  
HETATM    2  C   UNL     1     -11.439   6.577  66.176  1.00  0.00     1.960 C  
ENDROOT
BRANCH   2   3
HETATM    3  C   UNL     1     -10.064   6.630  65.494  1.00  0.00     1.386 C  
BRANCH   3   4
HETATM    4  C   UNL     1      -9.267   7.821  65.919  1.00  0.00    -0.019 A  
HETATM    5  N   UNL     1      -8.275   8.319  65.204  1.00  0.00    -0.148 NA 
HETATM    6  C   UNL     1      -7.720   9.320  65.955  1.00  0.00    -0.096 A  
HETATM    7  C   UNL     1      -8.416   9.465  67.146  1.00  0.00    -0.128 A  
HETATM    8  N   UNL     1      -9.439   8.541  67.086  1.00  0.00    -0.153 NA 
HETATM    9  C   UNL     1      -8.030  10.375  68.132  1.00  0.00    -0.110 A  
HETATM   10  C   UNL     1      -6.592  10.122  65.692  1.00  0.00    -0.112 A  
HETATM   11  C   UNL     1      -6.965  11.243  67.863  1.00  0.00    -0.073 A  
HETATM   12  C   UNL     1      -5.774   9.952  64.446  1.00  0.00    -0.098 C  
HETATM   13  C   UNL     1      -6.246  11.088  66.665  1.00  0.00    -0.124 A  
BRANCH   8  14
HETATM   14  C   UNL     1     -10.381   8.290  68.177  1.00  0.00    -0.202 C  
BRANCH  14  15
HETATM   15  C   UNL     1      -9.946   7.284  69.230  1.00  0.00    -0.170 A  
HETATM   16  C   UNL     1      -9.671   7.621  70.555  1.00  0.00    -0.182 A  
HETATM   17  C   UNL     1      -9.762   4.918  69.897  1.00  0.00    -0.276 A  
HETATM   18  C   UNL     1      -9.956   5.912  68.914  1.00  0.00    -0.201 A  
HETATM   19  C   UNL     1      -9.436   6.620  71.521  1.00  0.00    -0.159 A  
HETATM   20  C   UNL     1      -9.505   5.238  71.238  1.00  0.00    -0.197 A  
BRANCH  20  21
HETATM   21  C   UNL     1      -9.375   4.221  72.338  1.00  0.00    -0.158 A  
HETATM   22  C   UNL     1     -10.445   3.138  74.293  1.00  0.00    -0.242 A  
HETATM   23  C   UNL     1     -10.473   4.029  73.206  1.00  0.00    -0.253 A  
HETATM   24  C   UNL     1      -8.232   2.507  73.704  1.00  0.00    -0.063 A  
HETATM   25  C   UNL     1      -8.250   3.404  72.600  1.00  0.00    -0.080 A  
HETATM   26  C   UNL     1      -9.320   2.395  74.558  1.00  0.00    -0.106 A  
HETATM   27  C   UNL     1      -6.997   3.434  71.810  1.00  0.00    -0.031 C  
HETATM   28  O   UNL     1      -6.590   2.160  71.607  1.00  0.00    -0.018 OA 
HETATM   29  O   UNL     1      -6.363   4.412  71.467  1.00  0.00    -0.017 OA 
ENDBRANCH  20  21
ENDBRANCH  14  15
ENDBRANCH   8  14
BRANCH  11  30
HETATM   30  C   UNL     1      -6.574  12.291  68.822  1.00  0.00    -0.084 A  
HETATM   31  C   UNL     1      -5.373  13.570  71.893  1.00  0.00    -0.147 A  
HETATM   32  C   UNL     1      -5.150  14.911  72.234  1.00  0.00    -0.143 A  
HETATM   33  N   UNL     1      -6.138  12.049  70.048  1.00  0.00    -0.155 NA 
HETATM   34  C   UNL     1      -6.853  14.333  67.337  1.00  0.00    -0.015 C  
HETATM   35  C   UNL     1      -5.858  13.267  70.612  1.00  0.00    -0.150 A  
HETATM   36  C   UNL     1      -5.409  15.929  71.317  1.00  0.00     0.038 A  
HETATM   37  N   UNL     1      -6.552  13.659  68.579  1.00  0.00    -0.080 NA 
HETATM   38  C   UNL     1      -6.109  14.298  69.717  1.00  0.00    -0.132 A  
HETATM   39  C   UNL     1      -5.896  15.645  70.038  1.00  0.00    -0.150 A  
ENDBRANCH  11  30
ENDBRANCH   3   4
ENDBRANCH   2   3
TORSDOF 6
ENDMDL
MODEL      218
REMARK 921   NORMALIZED FREE ENERGY PREDICTED BY IDOCK:    7.66 KCAL/MOL
REMARK 922        TOTAL FREE ENERGY PREDICTED BY IDOCK:    8.35 KCAL/MOL
REMARK 923 INTER-LIGAND FREE ENERGY PREDICTED BY IDOCK:   -2.76 KCAL/MOL
REMARK 924 INTRA-LIGAND FREE ENERGY PREDICTED BY IDOCK:   11.11 KCAL/MOL
REMARK 927      BINDING AFFINITY PREDICTED BY RF-SCORE:    0.00 PKD
ROOT
HETATM    1  C   UNL     1      -8.471  11.887  66.251  1.00  0.00     0.031 C  
HETATM    2  C   UNL     1      -8.372  11.807  64.733  1.00  0.00     1.228 C  
ENDROOT
BRANCH   2   3
HETATM    3  C   UNL     1      -8.161  10.382  64.203  1.00  0.00    -0.118 C  
BRANCH   3   4
HETATM    4  C   UNL     1      -8.213   9.359  65.292  1.00  0.00    -0.132 A  
HETATM    5  N   UNL     1      -9.080   8.363  65.307  1.00  0.00    -0.012 NA 
HETATM    6  C   UNL     1      -8.901   7.711  66.497  1.00  0.00    -0.147 A  
HETATM    7  C   UNL     1      -7.870   8.299  67.214  1.00  0.00    -0.105 A  
HETATM    8  N   UNL     1      -7.398   9.315  66.407  1.00  0.00    -0.091 NA 
HETATM    9  C   UNL     1      -7.509   7.873  68.493  1.00  0.00    -0.096 A  
HETATM   10  C   UNL     1      -9.615   6.626  67.044  1.00  0.00    -0.183 A  
HETATM   11  C   UNL     1      -8.144   6.745  69.028  1.00  0.00    -0.117 A  
HETATM   12  C   UNL     1     -10.779   6.004  66.331  1.00  0.00    -0.124 C  
HETATM   13  C   UNL     1      -9.202   6.156  68.313  1.00  0.00    -0.114 A  
BRANCH   8  14
HETATM   14  C   UNL     1      -6.353  10.259  66.805  1.00  0.00    -0.072 C  
BRANCH  14  15
HETATM   15  C   UNL     1      -6.820  11.580  67.393  1.00  0.00    -0.104 A  
HETATM   16  C   UNL     1      -6.243  12.811  67.084  1.00  0.00     0.086 A  
HETATM   17  C   UNL     1      -8.589  12.818  68.582  1.00  0.00     0.054 A  
HETATM   18  C   UNL     1      -7.988  11.607  68.177  1.00  0.00    -0.141 A  
HETATM   19  C   UNL     1      -6.827  14.015  67.530  1.00  0.00    -0.150 A  
HETATM   20  C   UNL     1      -8.033  14.066  68.263  1.00  0.00    -0.146 A  
BRANCH  20  21
HETATM   21  C   UNL     1      -8.674  15.386  68.596  1.00  0.00    -0.191 A  
HETATM   22  C   UNL     1      -8.377  17.837  68.805  1.00  0.00    -0.221 A  
HETATM   23  C   UNL     1      -7.894  16.557  68.479  1.00  0.00    -0.210 A  
HETATM   24  C   UNL     1     -10.489  16.889  69.340  1.00  0.00    -0.283 A  
HETATM   25  C   UNL     1     -10.011  15.591  69.011  1.00  0.00    -0.233 A  
HETATM   26  C   UNL     1      -9.665  18.002  69.258  1.00  0.00     0.008 A  
HETATM   27  C   UNL     1     -11.003  14.505  69.189  1.00  0.00    -0.268 C  
HETATM   28  O   UNL     1     -12.182  14.915  68.669  1.00  0.00    -0.198 OA 
HETATM   29  O   UNL     1     -10.850  13.453  69.778  1.00  0.00     0.116 OA 
ENDBRANCH  20  21
ENDBRANCH  14  15
ENDBRANCH   8  14
BRANCH  11  30
HETATM   30  C   UNL     1      -7.740   6.187  70.330  1.00  0.00    -0.097 A  
HETATM   31  C   UNL     1      -5.479   5.335  72.914  1.00  0.00    -0.018 A  
HETATM   32  C   UNL     1      -5.776   4.748  74.151  1.00  0.00    -0.021 A  
HETATM   33  N   UNL     1      -6.492   6.166  70.772  1.00  0.00    -0.040 NA 
HETATM   34  C   UNL     1     -10.029   5.587  71.250  1.00  0.00    -0.192 C  
HETATM   35  C   UNL     1      -6.527   5.595  72.018  1.00  0.00    -0.052 A  
HETATM   36  C   UNL     1      -7.089   4.422  74.487  1.00  0.00    -0.071 A  
HETATM   37  N   UNL     1      -8.587   5.656  71.295  1.00  0.00    -0.127 NA 
HETATM   38  C   UNL     1      -7.827   5.261  72.374  1.00  0.00    -0.102 A  
HETATM   39  C   UNL     1      -8.145   4.671  73.604  1.00  0.00    -0.106 A  
ENDBRANCH  11  30
ENDBRANCH   3   4
ENDBRANCH   2   3
TORSDOF 6
ENDMDL
MODEL      219
REMARK 921   NORMALIZED FREE ENERGY PREDICTED BY IDOCK:    8.15 KCAL/MOL
REMARK 922        TOTAL FREE ENERGY PREDICTED BY IDOCK:    9.00 KCAL/MOL
REMARK 923 INTER-LIGAND FREE ENERGY PREDICTED BY IDOCK:    6.61 KCAL/MOL
REMARK 924 INTRA-LIGAND FREE ENERGY PREDICTED BY IDOCK:    2.39 KCAL/MOL
REMARK 927      BINDING AFFINITY PREDICTED BY RF-SCORE:    0.00 PKD
ROOT
HETATM    1  C   UNL     1      -9.317   7.808  67.436  1.00  0.00    -0.168 C  
HETATM    2  C   UNL     1      -7.873   7.443  67.118  1.00  0.00    -0.117 C  
ENDROOT
BRANCH   2   3
HETATM    3  C   UNL     1      -7.308   8.174  65.893  1.00  0.00    -0.076 C  
BRANCH   3   4
HETATM    4  C   UNL     1      -7.812   9.577  65.788  1.00  0.00    -0.104 A  
HETATM    5  N   UNL     1      -8.170  10.133  64.645  1.00  0.00    -0.160 NA 
HETATM    6  C   UNL     1      -8.465  11.441  64.925  1.00  0.00     0.476 A  
HETATM    7  C   UNL     1      -8.321  11.682  66.283  1.00  0.00    -0.027 A  
HETATM    8  N   UNL     1      -7.961  10.469  66.834  1.00  0.00    -0.118 NA 
HETATM    9  C   UNL     1      -8.501  12.949  66.840  1.00  0.00    -0.093 A  
HETATM   10  C   UNL     1      -8.828  12.487  64.054  1.00  0.00     1.954 A  
HETATM   11  C   UNL     1      -8.944  13.989  66.014  1.00  0.00     0.322 A  
HETATM   12  C   UNL     1      -8.930  12.283  62.571  1.00  0.00     2.232 C  
HETATM   13  C   UNL     1      -9.074  13.753  64.634  1.00  0.00     2.557 A  
BRANCH   8  14
HETATM   14  C   UNL     1      -7.624  10.278  68.245  1.00  0.00    -0.091 C  
BRANCH  14  15
HETATM   15  C   UNL     1      -8.753   9.834  69.158  1.00  0.00    -0.155 A  
HETATM   16  C   UNL     1     -10.104   9.950  68.831  1.00  0.00    -0.194 A  
HETATM   17  C   UNL     1      -9.444   8.515  71.123  1.00  0.00    -0.249 A  
HETATM   18  C   UNL     1      -8.446   9.130  70.338  1.00  0.00    -0.222 A  
HETATM   19  C   UNL     1     -11.098   9.368  69.646  1.00  0.00    -0.163 A  
HETATM   20  C   UNL     1     -10.806   8.604  70.798  1.00  0.00    -0.272 A  
BRANCH  20  21
HETATM   21  C   UNL     1     -11.901   7.900  71.550  1.00  0.00    -0.322 A  
HETATM   22  C   UNL     1     -12.764   5.742  72.411  1.00  0.00     0.441 A  
HETATM   23  C   UNL     1     -11.780   6.508  71.761  1.00  0.00    -0.373 A  
HETATM   24  C   UNL     1     -14.053   7.708  72.751  1.00  0.00     0.557 A  
HETATM   25  C   UNL     1     -13.064   8.493  72.096  1.00  0.00    -0.393 A  
HETATM   26  C   UNL     1     -13.910   6.335  72.885  1.00  0.00     1.522 A  
HETATM   27  C   UNL     1     -13.384   9.936  72.001  1.00  0.00    -0.432 C  
HETATM   28  O   UNL     1     -13.853  10.349  73.201  1.00  0.00     1.190 OA 
HETATM   29  O   UNL     1     -13.339  10.640  71.011  1.00  0.00    -0.268 OA 
ENDBRANCH  20  21
ENDBRANCH  14  15
ENDBRANCH   8  14
BRANCH  11  30
HETATM   30  C   UNL     1      -9.247  15.323  66.560  1.00  0.00    -0.290 A  
HETATM   31  C   UNL     1     -11.169  17.745  68.278  1.00  0.00     0.416 A  
HETATM   32  C   UNL     1     -10.825  19.077  68.547  1.00  0.00     0.371 A  
HETATM   33  N   UNL     1     -10.362  15.622  67.209  1.00  0.00    -0.271 NA 
HETATM   34  C   UNL     1      -7.067  16.502  66.005  1.00  0.00     0.701 C  
HETATM   35  C   UNL     1     -10.261  16.939  67.576  1.00  0.00    -0.295 A  
HETATM   36  C   UNL     1      -9.604  19.596  68.121  1.00  0.00    -0.474 A  
HETATM   37  N   UNL     1      -8.413  16.434  66.528  1.00  0.00    -0.270 NA 
HETATM   38  C   UNL     1      -9.050  17.478  67.161  1.00  0.00    -0.243 A  
HETATM   39  C   UNL     1      -8.688  18.807  67.417  1.00  0.00    -0.289 A  
ENDBRANCH  11  30
ENDBRANCH   3   4
ENDBRANCH   2   3
TORSDOF 6
ENDMDL
MODEL      220
REMARK 921   NORMALIZED FREE ENERGY PREDICTED BY IDOCK:    9.33 KCAL/MOL
REMARK 922        TOTAL FREE ENERGY PREDICTED BY IDOCK:   10.61 KCAL/MOL
REMARK 923 INTER-LIGAND FREE ENERGY PREDICTED BY IDOCK:   11.71 KCAL/MOL
REMARK 924 INTRA-LIGAND FREE ENERGY PREDICTED BY IDOCK:   -1.11 KCAL/MOL
REMARK 927      BINDING AFFINITY PREDICTED BY RF-SCORE:    0.00 PKD
ROOT
HETATM    1  C   UNL     1      -6.647  13.902  71.694  1.00  0.00     1.524 C  
HETATM    2  C   UNL     1      -8.009  14.579  71.767  1.00  0.00     4.832 C  
ENDROOT
BRANCH   2   3
HETATM    3  C   UNL     1      -8.950  14.198  70.615  1.00  0.00     3.502 C  
BRANCH   3   4
HETATM    4  C   UNL     1      -8.300  13.275  69.635  1.00  0.00     1.597 A  
HETATM    5  N   UNL     1      -7.267  13.623  68.889  1.00  0.00    -0.103 NA 
HETATM    6  C   UNL     1      -7.025  12.570  68.048  1.00  0.00    -0.095 A  
HETATM    7  C   UNL     1      -7.908  11.534  68.312  1.00  0.00    -0.138 A  
HETATM    8  N   UNL     1      -8.680  11.973  69.368  1.00  0.00     0.810 NA 
HETATM    9  C   UNL     1      -7.925  10.357  67.562  1.00  0.00    -0.106 A  
HETATM   10  C   UNL     1      -6.084  12.451  67.006  1.00  0.00     0.020 A  
HETATM   11  C   UNL     1      -6.948  10.176  66.576  1.00  0.00    -0.102 A  
HETATM   12  C   UNL     1      -5.155  13.573  66.645  1.00  0.00     2.067 C  
HETATM   13  C   UNL     1      -6.062  11.230  66.293  1.00  0.00    -0.084 A  
BRANCH   8  14
HETATM   14  C   UNL     1      -9.806  11.223  69.926  1.00  0.00     1.047 C  
BRANCH  14  15
HETATM   15  C   UNL     1      -9.721   9.709  69.841  1.00  0.00    -0.262 A  
HETATM   16  C   UNL     1     -10.573   8.929  69.060  1.00  0.00    -0.203 A  
HETATM   17  C   UNL     1      -8.391   7.673  70.246  1.00  0.00    -0.132 A  
HETATM   18  C   UNL     1      -8.642   9.046  70.456  1.00  0.00    -0.229 A  
HETATM   19  C   UNL     1     -10.338   7.548  68.892  1.00  0.00    -0.220 A  
HETATM   20  C   UNL     1      -9.226   6.878  69.448  1.00  0.00    -0.147 A  
BRANCH  20  21
HETATM   21  C   UNL     1      -8.959   5.434  69.124  1.00  0.00    -0.120 A  
HETATM   22  C   UNL     1      -8.072   3.813  67.472  1.00  0.00    -0.090 A  
HETATM   23  C   UNL     1      -8.329   5.128  67.897  1.00  0.00    -0.097 A  
HETATM   24  C   UNL     1      -9.001   2.991  69.498  1.00  0.00    -0.174 A  
HETATM   25  C   UNL     1      -9.264   4.318  69.938  1.00  0.00    -0.208 A  
HETATM   26  C   UNL     1      -8.427   2.743  68.260  1.00  0.00    -0.100 A  
HETATM   27  C   UNL     1      -9.915   4.410  71.266  1.00  0.00    -0.175 C  
HETATM   28  O   UNL     1      -9.287   3.558  72.108  1.00  0.00    -0.107 OA 
HETATM   29  O   UNL     1     -10.902   5.054  71.563  1.00  0.00    -0.110 OA 
ENDBRANCH  20  21
ENDBRANCH  14  15
ENDBRANCH   8  14
BRANCH  11  30
HETATM   30  C   UNL     1      -6.852   8.915  65.819  1.00  0.00    -0.072 A  
HETATM   31  C   UNL     1      -5.775   5.606  65.185  1.00  0.00    -0.017 A  
HETATM   32  C   UNL     1      -6.134   4.780  64.111  1.00  0.00    -0.022 A  
HETATM   33  N   UNL     1      -6.129   7.874  66.201  1.00  0.00    -0.041 NA 
HETATM   34  C   UNL     1      -8.493   9.430  63.950  1.00  0.00    -0.197 C  
HETATM   35  C   UNL     1      -6.315   6.899  65.256  1.00  0.00    -0.043 A  
HETATM   36  C   UNL     1      -7.010   5.235  63.127  1.00  0.00    -0.038 A  
HETATM   37  N   UNL     1      -7.526   8.609  64.643  1.00  0.00    -0.098 NA 
HETATM   38  C   UNL     1      -7.185   7.330  64.263  1.00  0.00    -0.075 A  
HETATM   39  C   UNL     1      -7.555   6.522  63.180  1.00  0.00    -0.080 A  
ENDBRANCH  11  30
ENDBRANCH   3   4
ENDBRANCH   2   3
TORSDOF 6
ENDMDL
MODEL      221
REMARK 921   NORMALIZED FREE ENERGY PREDICTED BY IDOCK:    9.50 KCAL/MOL
REMARK 922        TOTAL FREE ENERGY PREDICTED BY IDOCK:   10.84 KCAL/MOL
REMARK 923 INTER-LIGAND FREE ENERGY PREDICTED BY IDOCK:   10.03 KCAL/MOL
REMARK 924 INTRA-LIGAND FREE ENERGY PREDICTED BY IDOCK:    0.81 KCAL/MOL
REMARK 927      BINDING AFFINITY PREDICTED BY RF-SCORE:    0.00 PKD
ROOT
HETATM    1  C   UNL     1     -13.296  10.793  65.210  1.00  0.00     8.979 C  
HETATM    2  C   UNL     1     -12.546  10.526  66.508  1.00  0.00     6.584 C  
ENDROOT
BRANCH   2   3
HETATM    3  C   UNL     1     -11.027  10.717  66.393  1.00  0.00    -0.108 C  
BRANCH   3   4
HETATM    4  C   UNL     1     -10.637  12.160  66.385  1.00  0.00    -0.241 A  
HETATM    5  N   UNL     1     -11.101  13.029  65.506  1.00  0.00    -0.274 NA 
HETATM    6  C   UNL     1     -10.443  14.207  65.740  1.00  0.00    -0.311 A  
HETATM    7  C   UNL     1      -9.581  14.066  66.818  1.00  0.00    -0.286 A  
HETATM    8  N   UNL     1      -9.758  12.771  67.260  1.00  0.00    -0.202 NA 
HETATM    9  C   UNL     1      -8.738  15.095  67.241  1.00  0.00    -0.221 A  
HETATM   10  C   UNL     1     -10.509  15.428  65.041  1.00  0.00    -0.411 A  
HETATM   11  C   UNL     1      -8.843  16.346  66.620  1.00  0.00    -0.283 A  
HETATM   12  C   UNL     1     -11.378  15.601  63.831  1.00  0.00     0.514 C  
HETATM   13  C   UNL     1      -9.702  16.488  65.516  1.00  0.00     0.023 A  
BRANCH   8  14
HETATM   14  C   UNL     1      -8.981  12.160  68.339  1.00  0.00    -0.146 C  
BRANCH  14  15
HETATM   15  C   UNL     1      -8.572  10.710  68.145  1.00  0.00    -0.123 A  
HETATM   16  C   UNL     1      -7.331  10.316  67.646  1.00  0.00    -0.088 A  
HETATM   17  C   UNL     1      -9.008   8.339  68.659  1.00  0.00    -0.137 A  
HETATM   18  C   UNL     1      -9.415   9.690  68.623  1.00  0.00    -0.147 A  
HETATM   19  C   UNL     1      -6.950   8.958  67.647  1.00  0.00    -0.075 A  
HETATM   20  C   UNL     1      -7.755   7.927  68.181  1.00  0.00    -0.125 A  
BRANCH  20  21
HETATM   21  C   UNL     1      -7.238   6.518  68.272  1.00  0.00    -0.085 A  
HETATM   22  C   UNL     1      -6.695   4.604  69.750  1.00  0.00    -0.037 A  
HETATM   23  C   UNL     1      -7.200   5.900  69.542  1.00  0.00    -0.070 A  
HETATM   24  C   UNL     1      -6.276   4.407  67.420  1.00  0.00    -0.036 A  
HETATM   25  C   UNL     1      -6.786   5.716  67.198  1.00  0.00    -0.062 A  
HETATM   26  C   UNL     1      -6.212   3.865  68.695  1.00  0.00    -0.032 A  
HETATM   27  C   UNL     1      -6.750   6.161  65.785  1.00  0.00    -0.048 C  
HETATM   28  O   UNL     1      -7.197   5.148  65.008  1.00  0.00    -0.064 OA 
HETATM   29  O   UNL     1      -6.312   7.208  65.351  1.00  0.00    -0.036 OA 
ENDBRANCH  20  21
ENDBRANCH  14  15
ENDBRANCH   8  14
BRANCH  11  30
HETATM   30  C   UNL     1      -8.052  17.498  67.087  1.00  0.00    -0.210 A  
HETATM   31  C   UNL     1      -6.536  20.684  66.838  1.00  0.00    -0.323 A  
HETATM   32  C   UNL     1      -5.823  21.372  67.829  1.00  0.00    -0.373 A  
HETATM   33  N   UNL     1      -7.798  18.569  66.351  1.00  0.00    -0.265 NA 
HETATM   34  C   UNL     1      -7.644  16.774  69.487  1.00  0.00     0.178 C  
HETATM   35  C   UNL     1      -7.063  19.419  67.137  1.00  0.00    -0.199 A  
HETATM   36  C   UNL     1      -5.634  20.809  69.089  1.00  0.00    -0.413 A  
HETATM   37  N   UNL     1      -7.508  17.662  68.355  1.00  0.00    -0.243 NA 
HETATM   38  C   UNL     1      -6.862  18.878  68.400  1.00  0.00    -0.252 A  
HETATM   39  C   UNL     1      -6.150  19.547  69.403  1.00  0.00    -0.323 A  
ENDBRANCH  11  30
ENDBRANCH   3   4
ENDBRANCH   2   3
TORSDOF 6
ENDMDL
MODEL      222
REMARK 921   NORMALIZED FREE ENERGY PREDICTED BY IDOCK:   10.02 KCAL/MOL
REMARK 922        TOTAL FREE ENERGY PREDICTED BY IDOCK:   11.53 KCAL/MOL
REMARK 923 INTER-LIGAND FREE ENERGY PREDICTED BY IDOCK:    1.01 KCAL/MOL
REMARK 924 INTRA-LIGAND FREE ENERGY PREDICTED BY IDOCK:   10.53 KCAL/MOL
REMARK 927      BINDING AFFINITY PREDICTED BY RF-SCORE:    0.00 PKD
ROOT
HETATM    1  C   UNL     1      -8.519  11.507  66.273  1.00  0.00    -0.108 C  
HETATM    2  C   UNL     1      -8.917  11.389  64.808  1.00  0.00     0.125 C  
ENDROOT
BRANCH   2   3
HETATM    3  C   UNL     1      -9.294   9.963  64.384  1.00  0.00    -0.326 C  
BRANCH   3   4
HETATM    4  C   UNL     1      -9.246   9.001  65.528  1.00  0.00    -0.198 A  
HETATM    5  N   UNL     1     -10.313   8.376  65.992  1.00  0.00     0.381 NA 
HETATM    6  C   UNL     1      -9.904   7.677  67.095  1.00  0.00    -0.202 A  
HETATM    7  C   UNL     1      -8.542   7.847  67.290  1.00  0.00    -0.128 A  
HETATM    8  N   UNL     1      -8.121   8.647  66.248  1.00  0.00    -0.101 NA 
HETATM    9  C   UNL     1      -7.867   7.293  68.380  1.00  0.00    -0.122 A  
HETATM   10  C   UNL     1     -10.658   6.904  68.000  1.00  0.00    -0.273 A  
HETATM   11  C   UNL     1      -8.573   6.451  69.248  1.00  0.00    -0.125 A  
HETATM   12  C   UNL     1     -12.144   6.749  67.862  1.00  0.00     2.678 C  
HETATM   13  C   UNL     1      -9.958   6.290  69.064  1.00  0.00    -0.175 A  
BRANCH   8  14
HETATM   14  C   UNL     1      -6.754   9.151  66.102  1.00  0.00    -0.074 C  
BRANCH  14  15
HETATM   15  C   UNL     1      -6.484  10.545  66.643  1.00  0.00    -0.086 A  
HETATM   16  C   UNL     1      -6.874  11.715  65.994  1.00  0.00     0.535 A  
HETATM   17  C   UNL     1      -5.860  11.942  68.576  1.00  0.00    -0.049 A  
HETATM   18  C   UNL     1      -5.946  10.687  67.935  1.00  0.00    -0.043 A  
HETATM   19  C   UNL     1      -6.745  12.970  66.626  1.00  0.00     1.399 A  
HETATM   20  C   UNL     1      -6.267  13.127  67.946  1.00  0.00    -0.140 A  
BRANCH  20  21
HETATM   21  C   UNL     1      -6.276  14.476  68.610  1.00  0.00    -0.083 A  
HETATM   22  C   UNL     1      -5.179  15.989  70.237  1.00  0.00    -0.155 A  
HETATM   23  C   UNL     1      -5.244  14.778  69.526  1.00  0.00    -0.087 A  
HETATM   24  C   UNL     1      -7.145  16.730  69.130  1.00  0.00    -0.222 A  
HETATM   25  C   UNL     1      -7.220  15.509  68.404  1.00  0.00    -0.114 A  
HETATM   26  C   UNL     1      -6.140  16.956  70.059  1.00  0.00    -0.131 A  
HETATM   27  C   UNL     1      -8.375  15.410  67.481  1.00  0.00    -0.174 C  
HETATM   28  O   UNL     1      -8.481  16.576  66.805  1.00  0.00    -0.192 OA 
HETATM   29  O   UNL     1      -9.169  14.495  67.387  1.00  0.00    -0.188 OA 
ENDBRANCH  20  21
ENDBRANCH  14  15
ENDBRANCH   8  14
BRANCH  11  30
HETATM   30  C   UNL     1      -7.895   5.758  70.357  1.00  0.00    -0.104 A  
HETATM   31  C   UNL     1      -5.671   3.438  71.835  1.00  0.00    -0.008 A  
HETATM   32  C   UNL     1      -5.401   3.261  73.199  1.00  0.00     0.000 A  
HETATM   33  N   UNL     1      -7.011   4.787  70.195  1.00  0.00    -0.047 NA 
HETATM   34  C   UNL     1      -8.824   7.095  72.307  1.00  0.00    -0.128 C  
HETATM   35  C   UNL     1      -6.595   4.421  71.449  1.00  0.00    -0.027 A  
HETATM   36  C   UNL     1      -6.042   4.043  74.158  1.00  0.00    -0.028 A  
HETATM   37  N   UNL     1      -8.036   6.041  71.710  1.00  0.00    -0.106 NA 
HETATM   38  C   UNL     1      -7.222   5.187  72.423  1.00  0.00    -0.091 A  
HETATM   39  C   UNL     1      -6.968   5.024  73.791  1.00  0.00    -0.080 A  
ENDBRANCH  11  30
ENDBRANCH   3   4
ENDBRANCH   2   3
TORSDOF 6
ENDMDL
MODEL      223
REMARK 921   NORMALIZED FREE ENERGY PREDICTED BY IDOCK:   10.09 KCAL/MOL
REMARK 922        TOTAL FREE ENERGY PREDICTED BY IDOCK:   11.63 KCAL/MOL
REMARK 923 INTER-LIGAND FREE ENERGY PREDICTED BY IDOCK:   10.12 KCAL/MOL
REMARK 924 INTRA-LIGAND FREE ENERGY PREDICTED BY IDOCK:    1.51 KCAL/MOL
REMARK 927      BINDING AFFINITY PREDICTED BY RF-SCORE:    0.00 PKD
ROOT
HETATM    1  C   UNL     1     -10.113   6.091  65.896  1.00  0.00     0.263 C  
HETATM    2  C   UNL     1     -10.153   7.211  64.865  1.00  0.00     3.634 C  
ENDROOT
BRANCH   2   3
HETATM    3  C   UNL     1     -10.795   8.505  65.386  1.00  0.00     4.292 C  
BRANCH   3   4
HETATM    4  C   UNL     1      -9.776   9.492  65.857  1.00  0.00    -0.282 A  
HETATM    5  N   UNL     1      -8.594   9.141  66.330  1.00  0.00    -0.123 NA 
HETATM    6  C   UNL     1      -7.991  10.293  66.760  1.00  0.00    -0.114 A  
HETATM    7  C   UNL     1      -8.809  11.383  66.508  1.00  0.00    -0.187 A  
HETATM    8  N   UNL     1      -9.922  10.867  65.877  1.00  0.00    -0.233 NA 
HETATM    9  C   UNL     1      -8.469  12.680  66.898  1.00  0.00    -0.118 A  
HETATM   10  C   UNL     1      -6.754  10.470  67.410  1.00  0.00    -0.071 A  
HETATM   11  C   UNL     1      -7.210  12.899  67.471  1.00  0.00    -0.149 A  
HETATM   12  C   UNL     1      -5.869   9.310  67.760  1.00  0.00    -0.045 C  
HETATM   13  C   UNL     1      -6.384  11.794  67.744  1.00  0.00    -0.067 A  
BRANCH   8  14
HETATM   14  C   UNL     1     -11.093  11.661  65.501  1.00  0.00    -0.237 C  
BRANCH  14  15
HETATM   15  C   UNL     1     -10.926  13.170  65.528  1.00  0.00    -0.296 A  
HETATM   16  C   UNL     1     -11.862  14.042  66.082  1.00  0.00    -0.422 A  
HETATM   17  C   UNL     1      -9.409  15.101  65.304  1.00  0.00     0.406 A  
HETATM   18  C   UNL     1      -9.704  13.733  65.114  1.00  0.00     0.014 A  
HETATM   19  C   UNL     1     -11.574  15.416  66.228  1.00  0.00     0.107 A  
HETATM   20  C   UNL     1     -10.331  15.988  65.877  1.00  0.00    -0.386 A  
BRANCH  20  21
HETATM   21  C   UNL     1     -10.038  17.432  66.179  1.00  0.00    -0.309 A  
HETATM   22  C   UNL     1      -8.970  19.531  65.411  1.00  0.00     0.939 A  
HETATM   23  C   UNL     1      -9.336  18.188  65.215  1.00  0.00     1.782 A  
HETATM   24  C   UNL     1     -10.033  19.498  67.535  1.00  0.00    -0.495 A  
HETATM   25  C   UNL     1     -10.409  18.140  67.347  1.00  0.00    -0.402 A  
HETATM   26  C   UNL     1      -9.296  20.181  66.578  1.00  0.00    -0.473 A  
HETATM   27  C   UNL     1     -11.158  17.545  68.478  1.00  0.00     0.178 C  
HETATM   28  O   UNL     1     -12.098  18.430  68.880  1.00  0.00     3.704 OA 
HETATM   29  O   UNL     1     -10.936  16.489  69.038  1.00  0.00    -0.309 OA 
ENDBRANCH  20  21
ENDBRANCH  14  15
ENDBRANCH   8  14
BRANCH  11  30
HETATM   30  C   UNL     1      -6.753  14.257  67.812  1.00  0.00    -0.176 A  
HETATM   31  C   UNL     1      -5.216  17.388  67.223  1.00  0.00    -0.149 A  
HETATM   32  C   UNL     1      -5.125  18.476  68.102  1.00  0.00    -0.171 A  
HETATM   33  N   UNL     1      -6.097  15.050  66.979  1.00  0.00     0.025 NA 
HETATM   34  C   UNL     1      -7.740  14.450  70.145  1.00  0.00     0.748 C  
HETATM   35  C   UNL     1      -5.871  16.224  67.651  1.00  0.00    -0.147 A  
HETATM   36  C   UNL     1      -5.673  18.403  69.381  1.00  0.00    -0.232 A  
HETATM   37  N   UNL     1      -6.976  14.922  69.012  1.00  0.00    -0.111 NA 
HETATM   38  C   UNL     1      -6.409  16.175  68.930  1.00  0.00    -0.129 A  
HETATM   39  C   UNL     1      -6.327  17.249  69.825  1.00  0.00    -0.141 A  
ENDBRANCH  11  30
ENDBRANCH   3   4
ENDBRANCH   2   3
TORSDOF 6
ENDMDL
MODEL      224
REMARK 921   NORMALIZED FREE ENERGY PREDICTED BY IDOCK:   10.52 KCAL/MOL
REMARK 922        TOTAL FREE ENERGY PREDICTED BY IDOCK:   12.20 KCAL/MOL
REMARK 923 INTER-LIGAND FREE ENERGY PREDICTED BY IDOCK:   12.93 KCAL/MOL
REMARK 924 INTRA-LIGAND FREE ENERGY PREDICTED BY IDOCK:   -0.73 KCAL/MOL
REMARK 927      BINDING AFFINITY PREDICTED BY RF-SCORE:    0.00 PKD
ROOT
HETATM    1  C   UNL     1     -11.605   9.166  62.342  1.00  0.00    10.616 C  
HETATM    2  C   UNL     1     -10.767   9.774  63.459  1.00  0.00     3.441 C  
ENDROOT
BRANCH   2   3
HETATM    3  C   UNL     1      -9.780  10.846  62.977  1.00  0.00    -0.380 C  
BRANCH   3   4
HETATM    4  C   UNL     1      -9.580  11.927  63.988  1.00  0.00    -0.059 A  
HETATM    5  N   UNL     1     -10.294  13.038  64.010  1.00  0.00    -0.365 NA 
HETATM    6  C   UNL     1      -9.756  13.826  64.992  1.00  0.00     0.114 A  
HETATM    7  C   UNL     1      -8.709  13.164  65.615  1.00  0.00     1.287 A  
HETATM    8  N   UNL     1      -8.644  11.928  65.005  1.00  0.00     0.707 NA 
HETATM    9  C   UNL     1      -7.940  13.758  66.617  1.00  0.00     0.618 A  
HETATM   10  C   UNL     1     -10.095  15.138  65.378  1.00  0.00    -0.384 A  
HETATM   11  C   UNL     1      -8.305  15.028  67.080  1.00  0.00    -0.254 A  
HETATM   12  C   UNL     1     -11.177  15.913  64.685  1.00  0.00    -0.361 C  
HETATM   13  C   UNL     1      -9.355  15.710  66.439  1.00  0.00    -0.332 A  
BRANCH   8  14
HETATM   14  C   UNL     1      -7.621  10.923  65.298  1.00  0.00     0.185 C  
BRANCH  14  15
HETATM   15  C   UNL     1      -7.961   9.900  66.368  1.00  0.00    -0.111 A  
HETATM   16  C   UNL     1      -7.157   8.802  66.671  1.00  0.00    -0.081 A  
HETATM   17  C   UNL     1      -9.313   9.334  68.350  1.00  0.00    -0.142 A  
HETATM   18  C   UNL     1      -9.062  10.132  67.213  1.00  0.00    -0.151 A  
HETATM   19  C   UNL     1      -7.441   7.984  67.786  1.00  0.00    -0.094 A  
HETATM   20  C   UNL     1      -8.504   8.237  68.682  1.00  0.00    -0.125 A  
BRANCH  20  21
HETATM   21  C   UNL     1      -8.674   7.407  69.924  1.00  0.00    -0.141 A  
HETATM   22  C   UNL     1      -8.795   7.386  72.399  1.00  0.00    -0.151 A  
HETATM   23  C   UNL     1      -8.686   8.066  71.173  1.00  0.00    -0.149 A  
HETATM   24  C   UNL     1      -8.950   5.325  71.227  1.00  0.00    -0.158 A  
HETATM   25  C   UNL     1      -8.842   6.003  69.982  1.00  0.00    -0.139 A  
HETATM   26  C   UNL     1      -8.903   6.016  72.430  1.00  0.00    -0.133 A  
HETATM   27  C   UNL     1      -8.871   5.119  68.793  1.00  0.00    -0.093 C  
HETATM   28  O   UNL     1      -9.863   4.215  68.958  1.00  0.00    -0.154 OA 
HETATM   29  O   UNL     1      -8.095   5.112  67.858  1.00  0.00    -0.098 OA 
ENDBRANCH  20  21
ENDBRANCH  14  15
ENDBRANCH   8  14
BRANCH  11  30
HETATM   30  C   UNL     1      -7.595  15.666  68.202  1.00  0.00    -0.120 A  
HETATM   31  C   UNL     1      -5.901  15.773  71.306  1.00  0.00     0.509 A  
HETATM   32  C   UNL     1      -5.320  16.887  71.925  1.00  0.00     0.664 A  
HETATM   33  N   UNL     1      -7.154  15.014  69.266  1.00  0.00    -0.155 NA 
HETATM   34  C   UNL     1      -7.442  18.035  67.300  1.00  0.00    -0.199 C  
HETATM   35  C   UNL     1      -6.534  15.940  70.064  1.00  0.00    -0.055 A  
HETATM   36  C   UNL     1      -5.372  18.143  71.322  1.00  0.00    -0.128 A  
HETATM   37  N   UNL     1      -7.240  17.006  68.294  1.00  0.00    -0.189 NA 
HETATM   38  C   UNL     1      -6.572  17.201  69.483  1.00  0.00    -0.181 A  
HETATM   39  C   UNL     1      -6.001  18.328  70.087  1.00  0.00    -0.127 A  
ENDBRANCH  11  30
ENDBRANCH   3   4
ENDBRANCH   2   3
TORSDOF 6
ENDMDL
MODEL      225
REMARK 921   NORMALIZED FREE ENERGY PREDICTED BY IDOCK:   10.53 KCAL/MOL
REMARK 922        TOTAL FREE ENERGY PREDICTED BY IDOCK:   12.22 KCAL/MOL
REMARK 923 INTER-LIGAND FREE ENERGY PREDICTED BY IDOCK:   11.68 KCAL/MOL
REMARK 924 INTRA-LIGAND FREE ENERGY PREDICTED BY IDOCK:    0.54 KCAL/MOL
REMARK 927      BINDING AFFINITY PREDICTED BY RF-SCORE:    0.00 PKD
ROOT
HETATM    1  C   UNL     1      -6.902   9.359  73.826  1.00  0.00     0.779 C  
HETATM    2  C   UNL     1      -7.296   8.896  72.430  1.00  0.00     0.169 C  
ENDROOT
BRANCH   2   3
HETATM    3  C   UNL     1      -6.649   7.568  72.015  1.00  0.00    -0.050 C  
BRANCH   3   4
HETATM    4  C   UNL     1      -7.544   6.751  71.140  1.00  0.00    -0.088 A  
HETATM    5  N   UNL     1      -8.241   5.719  71.581  1.00  0.00    -0.118 NA 
HETATM    6  C   UNL     1      -8.844   5.162  70.485  1.00  0.00    -0.119 A  
HETATM    7  C   UNL     1      -8.539   5.894  69.348  1.00  0.00    -0.113 A  
HETATM    8  N   UNL     1      -7.756   6.942  69.788  1.00  0.00    -0.110 NA 
HETATM    9  C   UNL     1      -8.974   5.517  68.076  1.00  0.00    -0.108 A  
HETATM   10  C   UNL     1      -9.637   4.002  70.389  1.00  0.00    -0.265 A  
HETATM   11  C   UNL     1      -9.832   4.417  67.960  1.00  0.00    -0.135 A  
HETATM   12  C   UNL     1      -9.935   3.145  71.584  1.00  0.00    -0.164 C  
HETATM   13  C   UNL     1     -10.130   3.661  69.108  1.00  0.00     0.545 A  
BRANCH   8  14
HETATM   14  C   UNL     1      -7.136   7.929  68.902  1.00  0.00    -0.074 C  
BRANCH  14  15
HETATM   15  C   UNL     1      -8.021   8.517  67.816  1.00  0.00    -0.107 A  
HETATM   16  C   UNL     1      -9.414   8.539  67.881  1.00  0.00    -0.157 A  
HETATM   17  C   UNL     1      -8.189   9.955  65.821  1.00  0.00    -0.125 A  
HETATM   18  C   UNL     1      -7.425   9.214  66.749  1.00  0.00    -0.087 A  
HETATM   19  C   UNL     1     -10.171   9.247  66.923  1.00  0.00    -0.327 A  
HETATM   20  C   UNL     1      -9.589  10.005  65.882  1.00  0.00    -0.283 A  
BRANCH  20  21
HETATM   21  C   UNL     1     -10.445  10.843  64.973  1.00  0.00    -0.331 A  
HETATM   22  C   UNL     1     -12.623  11.980  64.648  1.00  0.00    -0.124 A  
HETATM   23  C   UNL     1     -11.724  11.234  65.430  1.00  0.00     0.468 A  
HETATM   24  C   UNL     1     -11.016  12.062  62.900  1.00  0.00     0.203 A  
HETATM   25  C   UNL     1     -10.098  11.309  63.683  1.00  0.00    -0.432 A  
HETATM   26  C   UNL     1     -12.281  12.374  63.376  1.00  0.00    -0.623 A  
HETATM   27  C   UNL     1      -8.805  11.027  63.017  1.00  0.00    -0.189 C  
HETATM   28  O   UNL     1      -8.374  12.163  62.423  1.00  0.00     0.669 OA 
HETATM   29  O   UNL     1      -8.244   9.954  62.917  1.00  0.00    -0.134 OA 
ENDBRANCH  20  21
ENDBRANCH  14  15
ENDBRANCH   8  14
BRANCH  11  30
HETATM   30  C   UNL     1     -10.404   4.029  66.659  1.00  0.00     0.485 A  
HETATM   31  C   UNL     1     -11.738   4.575  63.428  1.00  0.00     2.019 A  
HETATM   32  C   UNL     1     -12.129   3.610  62.490  1.00  0.00     2.139 A  
HETATM   33  N   UNL     1     -10.775   4.891  65.725  1.00  0.00    -0.229 NA 
HETATM   34  C   UNL     1     -10.223   1.504  66.866  1.00  0.00     1.795 C  
HETATM   35  C   UNL     1     -11.229   4.150  64.665  1.00  0.00     0.304 A  
HETATM   36  C   UNL     1     -12.019   2.251  62.780  1.00  0.00     1.153 A  
HETATM   37  N   UNL     1     -10.592   2.732  66.198  1.00  0.00     2.439 NA 
HETATM   38  C   UNL     1     -11.130   2.791  64.931  1.00  0.00     1.941 A  
HETATM   39  C   UNL     1     -11.518   1.811  64.009  1.00  0.00     1.061 A  
ENDBRANCH  11  30
ENDBRANCH   3   4
ENDBRANCH   2   3
TORSDOF 6
ENDMDL
MODEL      226
REMARK 921   NORMALIZED FREE ENERGY PREDICTED BY IDOCK:   10.60 KCAL/MOL
REMARK 922        TOTAL FREE ENERGY PREDICTED BY IDOCK:   12.31 KCAL/MOL
REMARK 923 INTER-LIGAND FREE ENERGY PREDICTED BY IDOCK:   13.53 KCAL/MOL
REMARK 924 INTRA-LIGAND FREE ENERGY PREDICTED BY IDOCK:   -1.22 KCAL/MOL
REMARK 927      BINDING AFFINITY PREDICTED BY RF-SCORE:    0.00 PKD
ROOT
HETATM    1  C   UNL     1      -6.290  13.855  71.692  1.00  0.00     0.808 C  
HETATM    2  C   UNL     1      -7.646  14.504  71.932  1.00  0.00     4.123 C  
ENDROOT
BRANCH   2   3
HETATM    3  C   UNL     1      -8.692  14.162  70.862  1.00  0.00     4.387 C  
BRANCH   3   4
HETATM    4  C   UNL     1      -8.119  13.340  69.753  1.00  0.00     1.692 A  
HETATM    5  N   UNL     1      -7.141  13.760  68.972  1.00  0.00    -0.108 NA 
HETATM    6  C   UNL     1      -6.964  12.795  68.018  1.00  0.00    -0.107 A  
HETATM    7  C   UNL     1      -7.831  11.736  68.243  1.00  0.00    -0.137 A  
HETATM    8  N   UNL     1      -8.523  12.068  69.389  1.00  0.00     0.732 NA 
HETATM    9  C   UNL     1      -7.907  10.637  67.386  1.00  0.00    -0.110 A  
HETATM   10  C   UNL     1      -6.101  12.780  66.904  1.00  0.00     0.565 A  
HETATM   11  C   UNL     1      -7.004  10.554  66.319  1.00  0.00    -0.128 A  
HETATM   12  C   UNL     1      -5.195  13.933  66.588  1.00  0.00     2.507 C  
HETATM   13  C   UNL     1      -6.136  11.633  66.077  1.00  0.00     0.513 A  
BRANCH   8  14
HETATM   14  C   UNL     1      -9.609  11.266  69.952  1.00  0.00     1.251 C  
BRANCH  14  15
HETATM   15  C   UNL     1      -9.270   9.833  70.326  1.00  0.00    -0.225 A  
HETATM   16  C   UNL     1      -8.102   9.462  70.992  1.00  0.00    -0.020 A  
HETATM   17  C   UNL     1     -10.067   7.521  70.645  1.00  0.00    -0.187 A  
HETATM   18  C   UNL     1     -10.236   8.827  70.136  1.00  0.00    -0.207 A  
HETATM   19  C   UNL     1      -7.924   8.143  71.459  1.00  0.00    -0.135 A  
HETATM   20  C   UNL     1      -8.907   7.137  71.334  1.00  0.00    -0.131 A  
BRANCH  20  21
HETATM   21  C   UNL     1      -8.710   5.788  71.969  1.00  0.00    -0.137 A  
HETATM   22  C   UNL     1      -9.034   4.382  73.984  1.00  0.00    -0.101 A  
HETATM   23  C   UNL     1      -9.201   5.587  73.278  1.00  0.00    -0.132 A  
HETATM   24  C   UNL     1      -7.919   3.451  72.105  1.00  0.00    -0.059 A  
HETATM   25  C   UNL     1      -8.084   4.664  71.381  1.00  0.00    -0.101 A  
HETATM   26  C   UNL     1      -8.374   3.322  73.409  1.00  0.00    -0.074 A  
HETATM   27  C   UNL     1      -7.509   4.652  70.016  1.00  0.00    -0.054 C  
HETATM   28  O   UNL     1      -7.852   3.487  69.420  1.00  0.00    -0.051 OA 
HETATM   29  O   UNL     1      -6.773   5.479  69.516  1.00  0.00    -0.054 OA 
ENDBRANCH  20  21
ENDBRANCH  14  15
ENDBRANCH   8  14
BRANCH  11  30
HETATM   30  C   UNL     1      -6.969   9.373  65.439  1.00  0.00    -0.090 A  
HETATM   31  C   UNL     1      -6.158   6.054  64.523  1.00  0.00    -0.026 A  
HETATM   32  C   UNL     1      -6.510   5.381  63.346  1.00  0.00    -0.026 A  
HETATM   33  N   UNL     1      -6.376   8.232  65.753  1.00  0.00    -0.051 NA 
HETATM   34  C   UNL     1      -8.411  10.235  63.534  1.00  0.00    -0.169 C  
HETATM   35  C   UNL     1      -6.580   7.381  64.698  1.00  0.00    -0.040 A  
HETATM   36  C   UNL     1      -7.264   6.018  62.361  1.00  0.00    -0.047 A  
HETATM   37  N   UNL     1      -7.579   9.256  64.196  1.00  0.00    -0.109 NA 
HETATM   38  C   UNL     1      -7.330   7.994  63.703  1.00  0.00    -0.106 A  
HETATM   39  C   UNL     1      -7.690   7.340  62.518  1.00  0.00    -0.122 A  
ENDBRANCH  11  30
ENDBRANCH   3   4
ENDBRANCH   2   3
TORSDOF 6
ENDMDL
MODEL      227
REMARK 921   NORMALIZED FREE ENERGY PREDICTED BY IDOCK:   11.26 KCAL/MOL
REMARK 922        TOTAL FREE ENERGY PREDICTED BY IDOCK:   13.20 KCAL/MOL
REMARK 923 INTER-LIGAND FREE ENERGY PREDICTED BY IDOCK:   10.38 KCAL/MOL
REMARK 924 INTRA-LIGAND FREE ENERGY PREDICTED BY IDOCK:    2.82 KCAL/MOL
REMARK 927      BINDING AFFINITY PREDICTED BY RF-SCORE:    0.00 PKD
ROOT
HETATM    1  C   UNL     1     -13.816  12.498  63.818  1.00  0.00     2.319 C  
HETATM    2  C   UNL     1     -13.439  11.081  63.410  1.00  0.00     2.857 C  
ENDROOT
BRANCH   2   3
HETATM    3  C   UNL     1     -12.103  10.990  62.659  1.00  0.00     1.842 C  
BRANCH   3   4
HETATM    4  C   UNL     1     -10.929  11.125  63.574  1.00  0.00    -0.115 A  
HETATM    5  N   UNL     1      -9.690  10.857  63.205  1.00  0.00    -0.333 NA 
HETATM    6  C   UNL     1      -8.914  10.986  64.326  1.00  0.00    -0.038 A  
HETATM    7  C   UNL     1      -9.693  11.382  65.402  1.00  0.00    -0.230 A  
HETATM    8  N   UNL     1     -10.969  11.526  64.896  1.00  0.00    -0.283 NA 
HETATM    9  C   UNL     1      -9.171  11.533  66.688  1.00  0.00    -0.194 A  
HETATM   10  C   UNL     1      -7.538  10.741  64.499  1.00  0.00     0.290 A  
HETATM   11  C   UNL     1      -7.792  11.379  66.874  1.00  0.00    -0.158 A  
HETATM   12  C   UNL     1      -6.674  10.248  63.376  1.00  0.00    -0.096 C  
HETATM   13  C   UNL     1      -7.001  10.961  65.789  1.00  0.00     0.014 A  
BRANCH   8  14
HETATM   14  C   UNL     1     -12.141  11.856  65.710  1.00  0.00     0.268 C  
BRANCH  14  15
HETATM   15  C   UNL     1     -11.940  12.898  66.796  1.00  0.00    -0.418 A  
HETATM   16  C   UNL     1     -10.867  12.891  67.687  1.00  0.00    -0.252 A  
HETATM   17  C   UNL     1     -12.531  15.122  67.680  1.00  0.00     0.801 A  
HETATM   18  C   UNL     1     -12.785  14.023  66.832  1.00  0.00     0.248 A  
HETATM   19  C   UNL     1     -10.646  13.976  68.561  1.00  0.00    -0.260 A  
HETATM   20  C   UNL     1     -11.445  15.141  68.568  1.00  0.00    -0.335 A  
BRANCH  20  21
HETATM   21  C   UNL     1     -11.080  16.317  69.431  1.00  0.00    -0.328 A  
HETATM   22  C   UNL     1      -9.751  18.399  69.638  1.00  0.00     0.459 A  
HETATM   23  C   UNL     1     -10.194  17.284  68.905  1.00  0.00    -0.349 A  
HETATM   24  C   UNL     1     -11.091  17.708  71.474  1.00  0.00     2.179 A  
HETATM   25  C   UNL     1     -11.547  16.578  70.741  1.00  0.00     0.017 A  
HETATM   26  C   UNL     1     -10.179  18.600  70.929  1.00  0.00     2.526 A  
HETATM   27  C   UNL     1     -12.489  15.703  71.478  1.00  0.00    -0.437 C  
HETATM   28  O   UNL     1     -13.399  16.486  72.100  1.00  0.00     0.496 OA 
HETATM   29  O   UNL     1     -12.431  14.496  71.605  1.00  0.00    -0.325 OA 
ENDBRANCH  20  21
ENDBRANCH  14  15
ENDBRANCH   8  14
BRANCH  11  30
HETATM   30  C   UNL     1      -7.167  11.623  68.185  1.00  0.00    -0.085 A  
HETATM   31  C   UNL     1      -5.882  13.586  70.833  1.00  0.00    -0.150 A  
HETATM   32  C   UNL     1      -5.369  13.139  72.059  1.00  0.00     0.018 A  
HETATM   33  N   UNL     1      -6.895  12.827  68.665  1.00  0.00    -0.093 NA 
HETATM   34  C   UNL     1      -7.043   9.232  69.034  1.00  0.00    -0.067 C  
HETATM   35  C   UNL     1      -6.346  12.639  69.907  1.00  0.00    -0.031 A  
HETATM   36  C   UNL     1      -5.316  11.778  72.353  1.00  0.00     0.632 A  
HETATM   37  N   UNL     1      -6.820  10.658  69.122  1.00  0.00    -0.070 NA 
HETATM   38  C   UNL     1      -6.282  11.289  70.223  1.00  0.00    -0.124 A  
HETATM   39  C   UNL     1      -5.771  10.821  71.440  1.00  0.00     0.188 A  
ENDBRANCH  11  30
ENDBRANCH   3   4
ENDBRANCH   2   3
TORSDOF 6
ENDMDL
MODEL      228
REMARK 921   NORMALIZED FREE ENERGY PREDICTED BY IDOCK:   11.36 KCAL/MOL
REMARK 922        TOTAL FREE ENERGY PREDICTED BY IDOCK:   13.34 KCAL/MOL
REMARK 923 INTER-LIGAND FREE ENERGY PREDICTED BY IDOCK:   13.22 KCAL/MOL
REMARK 924 INTRA-LIGAND FREE ENERGY PREDICTED BY IDOCK:    0.12 KCAL/MOL
REMARK 927      BINDING AFFINITY PREDICTED BY RF-SCORE:    0.00 PKD
ROOT
HETATM    1  C   UNL     1     -13.378   8.366  68.018  1.00  0.00    16.423 C  
HETATM    2  C   UNL     1     -12.273   7.472  68.565  1.00  0.00     3.199 C  
ENDROOT
BRANCH   2   3
HETATM    3  C   UNL     1     -10.864   7.896  68.130  1.00  0.00     0.002 C  
BRANCH   3   4
HETATM    4  C   UNL     1     -10.807   9.331  67.717  1.00  0.00    -0.126 A  
HETATM    5  N   UNL     1     -10.943   9.730  66.465  1.00  0.00     0.140 NA 
HETATM    6  C   UNL     1     -10.724  11.081  66.462  1.00  0.00    -0.241 A  
HETATM    7  C   UNL     1     -10.485  11.529  67.752  1.00  0.00    -0.188 A  
HETATM    8  N   UNL     1     -10.600  10.412  68.554  1.00  0.00    -0.196 NA 
HETATM    9  C   UNL     1     -10.172  12.860  68.036  1.00  0.00    -0.229 A  
HETATM   10  C   UNL     1     -10.677  11.981  65.379  1.00  0.00    -0.330 A  
HETATM   11  C   UNL     1     -10.201  13.793  66.993  1.00  0.00    -0.254 A  
HETATM   12  C   UNL     1     -10.864  11.526  63.962  1.00  0.00    -0.453 C  
HETATM   13  C   UNL     1     -10.425  13.340  65.680  1.00  0.00    -0.286 A  
BRANCH   8  14
HETATM   14  C   UNL     1     -10.344  10.408  69.995  1.00  0.00    -0.128 C  
BRANCH  14  15
HETATM   15  C   UNL     1      -9.490   9.270  70.529  1.00  0.00    -0.317 A  
HETATM   16  C   UNL     1      -9.781   8.567  71.697  1.00  0.00    -0.322 A  
HETATM   17  C   UNL     1      -7.728   7.604  70.083  1.00  0.00    -0.091 A  
HETATM   18  C   UNL     1      -8.428   8.782  69.744  1.00  0.00    -0.129 A  
HETATM   19  C   UNL     1      -9.047   7.415  72.050  1.00  0.00    -0.149 A  
HETATM   20  C   UNL     1      -8.021   6.873  71.244  1.00  0.00    -0.108 A  
BRANCH  20  21
HETATM   21  C   UNL     1      -7.366   5.570  71.608  1.00  0.00    -0.091 A  
HETATM   22  C   UNL     1      -6.780   3.274  70.883  1.00  0.00    -0.032 A  
HETATM   23  C   UNL     1      -7.327   4.545  70.637  1.00  0.00    -0.049 A  
HETATM   24  C   UNL     1      -6.206   3.961  73.083  1.00  0.00    -0.012 A  
HETATM   25  C   UNL     1      -6.755   5.251  72.844  1.00  0.00    -0.071 A  
HETATM   26  C   UNL     1      -6.241   2.972  72.111  1.00  0.00    -0.014 A  
HETATM   27  C   UNL     1      -6.674   6.180  73.996  1.00  0.00    -0.079 C  
HETATM   28  O   UNL     1      -5.434   6.089  74.529  1.00  0.00    -0.043 OA 
HETATM   29  O   UNL     1      -7.569   6.851  74.469  1.00  0.00    -0.111 OA 
ENDBRANCH  20  21
ENDBRANCH  14  15
ENDBRANCH   8  14
BRANCH  11  30
HETATM   30  C   UNL     1      -9.977  15.227  67.244  1.00  0.00    -0.226 A  
HETATM   31  C   UNL     1     -10.883  18.525  68.146  1.00  0.00    -0.064 A  
HETATM   32  C   UNL     1     -10.046  19.644  68.251  1.00  0.00    -0.560 A  
HETATM   33  N   UNL     1     -10.927  16.072  67.614  1.00  0.00    -0.313 NA 
HETATM   34  C   UNL     1      -7.459  15.314  66.921  1.00  0.00     0.048 C  
HETATM   35  C   UNL     1     -10.325  17.294  67.769  1.00  0.00    -0.356 A  
HETATM   36  C   UNL     1      -8.683  19.540  67.981  1.00  0.00    -0.369 A  
HETATM   37  N   UNL     1      -8.758  15.891  67.186  1.00  0.00    -0.189 NA 
HETATM   38  C   UNL     1      -8.964  17.215  67.506  1.00  0.00    -0.221 A  
HETATM   39  C   UNL     1      -8.111  18.321  67.602  1.00  0.00    -0.249 A  
ENDBRANCH  11  30
ENDBRANCH   3   4
ENDBRANCH   2   3
TORSDOF 6
ENDMDL
MODEL      229
REMARK 921   NORMALIZED FREE ENERGY PREDICTED BY IDOCK:   12.15 KCAL/MOL
REMARK 922        TOTAL FREE ENERGY PREDICTED BY IDOCK:   14.41 KCAL/MOL
REMARK 923 INTER-LIGAND FREE ENERGY PREDICTED BY IDOCK:   14.88 KCAL/MOL
REMARK 924 INTRA-LIGAND FREE ENERGY PREDICTED BY IDOCK:   -0.47 KCAL/MOL
REMARK 927      BINDING AFFINITY PREDICTED BY RF-SCORE:    0.00 PKD
ROOT
HETATM    1  C   UNL     1     -13.304   8.475  68.189  1.00  0.00    15.459 C  
HETATM    2  C   UNL     1     -12.228   7.511  68.674  1.00  0.00     3.009 C  
ENDROOT
BRANCH   2   3
HETATM    3  C   UNL     1     -10.804   7.930  68.285  1.00  0.00     0.019 C  
BRANCH   3   4
HETATM    4  C   UNL     1     -10.691   9.402  68.050  1.00  0.00    -0.190 A  
HETATM    5  N   UNL     1     -10.845   9.959  66.862  1.00  0.00    -0.131 NA 
HETATM    6  C   UNL     1     -10.562  11.289  67.017  1.00  0.00    -0.246 A  
HETATM    7  C   UNL     1     -10.264  11.562  68.344  1.00  0.00    -0.205 A  
HETATM    8  N   UNL     1     -10.408  10.360  69.006  1.00  0.00    -0.201 NA 
HETATM    9  C   UNL     1      -9.878  12.832  68.778  1.00  0.00     0.020 A  
HETATM   10  C   UNL     1     -10.505  12.315  66.053  1.00  0.00    -0.284 A  
HETATM   11  C   UNL     1      -9.894  13.888  67.859  1.00  0.00    -0.228 A  
HETATM   12  C   UNL     1     -10.756  12.048  64.598  1.00  0.00    -0.355 C  
HETATM   13  C   UNL     1     -10.179  13.613  66.510  1.00  0.00    -0.284 A  
BRANCH   8  14
HETATM   14  C   UNL     1     -10.109  10.165  70.425  1.00  0.00     0.012 C  
BRANCH  14  15
HETATM   15  C   UNL     1      -9.305   8.927  70.785  1.00  0.00    -0.280 A  
HETATM   16  C   UNL     1      -7.947   8.778  70.508  1.00  0.00    -0.117 A  
HETATM   17  C   UNL     1      -9.160   6.853  72.110  1.00  0.00    -0.139 A  
HETATM   18  C   UNL     1      -9.904   7.925  71.571  1.00  0.00    -0.206 A  
HETATM   19  C   UNL     1      -7.221   7.680  71.016  1.00  0.00    -0.058 A  
HETATM   20  C   UNL     1      -7.789   6.699  71.858  1.00  0.00    -0.098 A  
BRANCH  20  21
HETATM   21  C   UNL     1      -6.933   5.626  72.474  1.00  0.00    -0.083 A  
HETATM   22  C   UNL     1      -6.091   4.595  74.564  1.00  0.00    -0.050 A  
HETATM   23  C   UNL     1      -6.890   5.530  73.882  1.00  0.00    -0.081 A  
HETATM   24  C   UNL     1      -5.350   3.729  72.480  1.00  0.00     0.000 A  
HETATM   25  C   UNL     1      -6.156   4.669  71.780  1.00  0.00    -0.021 A  
HETATM   26  C   UNL     1      -5.303   3.710  73.866  1.00  0.00     0.000 A  
HETATM   27  C   UNL     1      -6.064   4.582  70.304  1.00  0.00    -0.018 C  
HETATM   28  O   UNL     1      -6.128   3.279  69.948  1.00  0.00    -0.022 OA 
HETATM   29  O   UNL     1      -5.869   5.491  69.521  1.00  0.00    -0.015 OA 
ENDBRANCH  20  21
ENDBRANCH  14  15
ENDBRANCH   8  14
BRANCH  11  30
HETATM   30  C   UNL     1      -9.595  15.269  68.278  1.00  0.00    -0.206 A  
HETATM   31  C   UNL     1     -10.322  18.659  68.974  1.00  0.00    -0.039 A  
HETATM   32  C   UNL     1      -9.452  19.635  69.478  1.00  0.00     0.060 A  
HETATM   33  N   UNL     1     -10.486  16.247  68.300  1.00  0.00    -0.271 NA 
HETATM   34  C   UNL     1      -7.172  14.970  68.981  1.00  0.00    -0.142 C  
HETATM   35  C   UNL     1      -9.836  17.360  68.764  1.00  0.00    -0.311 A  
HETATM   36  C   UNL     1      -8.123  19.324  69.762  1.00  0.00     0.530 A  
HETATM   37  N   UNL     1      -8.375  15.737  68.751  1.00  0.00    -0.180 NA 
HETATM   38  C   UNL     1      -8.508  17.074  69.054  1.00  0.00    -0.124 A  
HETATM   39  C   UNL     1      -7.621  18.036  69.555  1.00  0.00     0.357 A  
ENDBRANCH  11  30
ENDBRANCH   3   4
ENDBRANCH   2   3
TORSDOF 6
ENDMDL
MODEL      230
REMARK 921   NORMALIZED FREE ENERGY PREDICTED BY IDOCK:   12.51 KCAL/MOL
REMARK 922        TOTAL FREE ENERGY PREDICTED BY IDOCK:   14.90 KCAL/MOL
REMARK 923 INTER-LIGAND FREE ENERGY PREDICTED BY IDOCK:   16.29 KCAL/MOL
REMARK 924 INTRA-LIGAND FREE ENERGY PREDICTED BY IDOCK:   -1.40 KCAL/MOL
REMARK 927      BINDING AFFINITY PREDICTED BY RF-SCORE:    0.00 PKD
ROOT
HETATM    1  C   UNL     1     -12.011  14.872  70.397  1.00  0.00    -0.368 C  
HETATM    2  C   UNL     1     -10.968  15.207  71.454  1.00  0.00    -0.119 C  
ENDROOT
BRANCH   2   3
HETATM    3  C   UNL     1     -10.026  14.041  71.784  1.00  0.00     6.457 C  
BRANCH   3   4
HETATM    4  C   UNL     1      -9.359  13.491  70.565  1.00  0.00     4.889 A  
HETATM    5  N   UNL     1      -8.518  14.189  69.823  1.00  0.00     0.797 NA 
HETATM    6  C   UNL     1      -8.204  13.403  68.748  1.00  0.00     0.066 A  
HETATM    7  C   UNL     1      -8.838  12.174  68.853  1.00  0.00     0.246 A  
HETATM    8  N   UNL     1      -9.525  12.219  70.049  1.00  0.00     2.735 NA 
HETATM    9  C   UNL     1      -8.741  11.195  67.863  1.00  0.00    -0.136 A  
HETATM   10  C   UNL     1      -7.408  13.695  67.623  1.00  0.00    -0.185 A  
HETATM   11  C   UNL     1      -7.891  11.424  66.774  1.00  0.00    -0.157 A  
HETATM   12  C   UNL     1      -6.759  15.035  67.439  1.00  0.00    -0.104 C  
HETATM   13  C   UNL     1      -7.260  12.675  66.654  1.00  0.00     0.635 A  
BRANCH   8  14
HETATM   14  C   UNL     1     -10.408  11.154  70.527  1.00  0.00     1.752 C  
BRANCH  14  15
HETATM   15  C   UNL     1      -9.762   9.805  70.789  1.00  0.00    -0.054 A  
HETATM   16  C   UNL     1     -10.159   8.623  70.165  1.00  0.00    -0.196 A  
HETATM   17  C   UNL     1      -7.841   8.560  71.705  1.00  0.00    -0.160 A  
HETATM   18  C   UNL     1      -8.605   9.741  71.587  1.00  0.00     1.759 A  
HETATM   19  C   UNL     1      -9.413   7.436  70.323  1.00  0.00    -0.165 A  
HETATM   20  C   UNL     1      -8.215   7.367  71.068  1.00  0.00    -0.110 A  
BRANCH  20  21
HETATM   21  C   UNL     1      -7.396   6.106  71.090  1.00  0.00    -0.084 A  
HETATM   22  C   UNL     1      -6.177   4.406  69.762  1.00  0.00    -0.027 A  
HETATM   23  C   UNL     1      -6.914   5.599  69.863  1.00  0.00    -0.062 A  
HETATM   24  C   UNL     1      -6.288   4.152  72.121  1.00  0.00    -0.021 A  
HETATM   25  C   UNL     1      -7.033   5.358  72.235  1.00  0.00    -0.081 A  
HETATM   26  C   UNL     1      -5.883   3.669  70.885  1.00  0.00    -0.014 A  
HETATM   27  C   UNL     1      -7.422   5.715  73.620  1.00  0.00    -0.091 C  
HETATM   28  O   UNL     1      -6.349   5.534  74.424  1.00  0.00    -0.066 OA 
HETATM   29  O   UNL     1      -8.525   6.028  74.020  1.00  0.00    -0.119 OA 
ENDBRANCH  20  21
ENDBRANCH  14  15
ENDBRANCH   8  14
BRANCH  11  30
HETATM   30  C   UNL     1      -7.669  10.391  65.748  1.00  0.00    -0.146 A  
HETATM   31  C   UNL     1      -5.764   8.414  63.517  1.00  0.00    -0.071 A  
HETATM   32  C   UNL     1      -6.219   7.379  62.689  1.00  0.00    -0.054 A  
HETATM   33  N   UNL     1      -6.486  10.104  65.227  1.00  0.00    -0.113 NA 
HETATM   34  C   UNL     1     -10.026   9.456  65.588  1.00  0.00    -0.139 C  
HETATM   35  C   UNL     1      -6.687   9.083  64.335  1.00  0.00    -0.079 A  
HETATM   36  C   UNL     1      -7.566   7.021  62.673  1.00  0.00    -0.097 A  
HETATM   37  N   UNL     1      -8.632   9.542  65.216  1.00  0.00    -0.146 NA 
HETATM   38  C   UNL     1      -8.024   8.708  64.302  1.00  0.00    -0.148 A  
HETATM   39  C   UNL     1      -8.500   7.679  63.480  1.00  0.00     0.267 A  
ENDBRANCH  11  30
ENDBRANCH   3   4
ENDBRANCH   2   3
TORSDOF 6
ENDMDL
MODEL      231
REMARK 921   NORMALIZED FREE ENERGY PREDICTED BY IDOCK:   12.59 KCAL/MOL
REMARK 922        TOTAL FREE ENERGY PREDICTED BY IDOCK:   15.01 KCAL/MOL
REMARK 923 INTER-LIGAND FREE ENERGY PREDICTED BY IDOCK:   16.02 KCAL/MOL
REMARK 924 INTRA-LIGAND FREE ENERGY PREDICTED BY IDOCK:   -1.01 KCAL/MOL
REMARK 927      BINDING AFFINITY PREDICTED BY RF-SCORE:    0.00 PKD
ROOT
HETATM    1  C   UNL     1      -7.657  17.302  64.304  1.00  0.00     8.962 C  
HETATM    2  C   UNL     1      -8.911  17.960  64.866  1.00  0.00     3.975 C  
ENDROOT
BRANCH   2   3
HETATM    3  C   UNL     1      -9.587  17.148  65.980  1.00  0.00    -0.190 C  
BRANCH   3   4
HETATM    4  C   UNL     1      -9.607  15.684  65.681  1.00  0.00    -0.284 A  
HETATM    5  N   UNL     1     -10.677  15.052  65.234  1.00  0.00    -0.359 NA 
HETATM    6  C   UNL     1     -10.352  13.723  65.187  1.00  0.00    -0.372 A  
HETATM    7  C   UNL     1      -9.034  13.540  65.578  1.00  0.00     1.081 A  
HETATM    8  N   UNL     1      -8.550  14.807  65.835  1.00  0.00     0.637 NA 
HETATM    9  C   UNL     1      -8.453  12.275  65.680  1.00  0.00     0.881 A  
HETATM   10  C   UNL     1     -11.152  12.613  64.852  1.00  0.00    -0.331 A  
HETATM   11  C   UNL     1      -9.196  11.161  65.274  1.00  0.00    -0.218 A  
HETATM   12  C   UNL     1     -12.600  12.762  64.488  1.00  0.00    -0.463 C  
HETATM   13  C   UNL     1     -10.538  11.339  64.893  1.00  0.00    -0.364 A  
BRANCH   8  14
HETATM   14  C   UNL     1      -7.211  15.082  66.358  1.00  0.00     1.942 C  
BRANCH  14  15
HETATM   15  C   UNL     1      -6.867  14.460  67.701  1.00  0.00    -0.202 A  
HETATM   16  C   UNL     1      -7.821  14.094  68.651  1.00  0.00    -0.137 A  
HETATM   17  C   UNL     1      -5.183  13.325  69.099  1.00  0.00    -0.073 A  
HETATM   18  C   UNL     1      -5.536  14.087  67.964  1.00  0.00    -0.124 A  
HETATM   19  C   UNL     1      -7.451  13.370  69.804  1.00  0.00     0.821 A  
HETATM   20  C   UNL     1      -6.132  12.931  70.054  1.00  0.00    -0.110 A  
BRANCH  20  21
HETATM   21  C   UNL     1      -5.826  12.050  71.234  1.00  0.00     0.488 A  
HETATM   22  C   UNL     1      -5.150  11.941  73.615  1.00  0.00     0.476 A  
HETATM   23  C   UNL     1      -5.496  12.666  72.462  1.00  0.00     0.665 A  
HETATM   24  C   UNL     1      -5.494   9.913  72.429  1.00  0.00     0.139 A  
HETATM   25  C   UNL     1      -5.847  10.636  71.256  1.00  0.00     0.155 A  
HETATM   26  C   UNL     1      -5.125  10.567  73.595  1.00  0.00     0.208 A  
HETATM   27  C   UNL     1      -6.177   9.790  70.085  1.00  0.00    -0.070 C  
HETATM   28  O   UNL     1      -6.984   8.787  70.498  1.00  0.00    -0.039 OA 
HETATM   29  O   UNL     1      -5.743   9.890  68.955  1.00  0.00    -0.036 OA 
ENDBRANCH  20  21
ENDBRANCH  14  15
ENDBRANCH   8  14
BRANCH  11  30
HETATM   30  C   UNL     1      -8.606   9.811  65.264  1.00  0.00    -0.153 A  
HETATM   31  C   UNL     1      -8.093   6.504  66.411  1.00  0.00    -0.113 A  
HETATM   32  C   UNL     1      -7.284   5.515  65.837  1.00  0.00    -0.072 A  
HETATM   33  N   UNL     1      -8.882   8.874  66.158  1.00  0.00    -0.151 NA 
HETATM   34  C   UNL     1      -7.259   9.966  63.116  1.00  0.00    -0.128 C  
HETATM   35  C   UNL     1      -8.162   7.765  65.798  1.00  0.00    -0.132 A  
HETATM   36  C   UNL     1      -6.555   5.778  64.678  1.00  0.00    -0.042 A  
HETATM   37  N   UNL     1      -7.730   9.305  64.312  1.00  0.00    -0.114 NA 
HETATM   38  C   UNL     1      -7.426   8.003  64.645  1.00  0.00    -0.097 A  
HETATM   39  C   UNL     1      -6.609   7.029  64.056  1.00  0.00    -0.043 A  
ENDBRANCH  11  30
ENDBRANCH   3   4
ENDBRANCH   2   3
TORSDOF 6
ENDMDL
MODEL      232
REMARK 921   NORMALIZED FREE ENERGY PREDICTED BY IDOCK:   12.88 KCAL/MOL
REMARK 922        TOTAL FREE ENERGY PREDICTED BY IDOCK:   15.39 KCAL/MOL
REMARK 923 INTER-LIGAND FREE ENERGY PREDICTED BY IDOCK:   14.52 KCAL/MOL
REMARK 924 INTRA-LIGAND FREE ENERGY PREDICTED BY IDOCK:    0.87 KCAL/MOL
REMARK 927      BINDING AFFINITY PREDICTED BY RF-SCORE:    0.00 PKD
ROOT
HETATM    1  C   UNL     1     -13.734  16.066  62.926  1.00  0.00     7.271 C  
HETATM    2  C   UNL     1     -13.412  15.160  64.107  1.00  0.00     2.498 C  
ENDROOT
BRANCH   2   3
HETATM    3  C   UNL     1     -12.883  15.913  65.336  1.00  0.00     2.226 C  
BRANCH   3   4
HETATM    4  C   UNL     1     -11.657  15.275  65.905  1.00  0.00     0.003 A  
HETATM    5  N   UNL     1     -10.445  15.778  65.757  1.00  0.00    -0.346 NA 
HETATM    6  C   UNL     1      -9.579  14.873  66.310  1.00  0.00    -0.307 A  
HETATM    7  C   UNL     1     -10.283  13.806  66.848  1.00  0.00    -0.261 A  
HETATM    8  N   UNL     1     -11.614  14.103  66.636  1.00  0.00    -0.366 NA 
HETATM    9  C   UNL     1      -9.647  12.705  67.425  1.00  0.00    -0.194 A  
HETATM   10  C   UNL     1      -8.171  14.887  66.353  1.00  0.00     0.374 A  
HETATM   11  C   UNL     1      -8.254  12.729  67.558  1.00  0.00    -0.179 A  
HETATM   12  C   UNL     1      -7.370  15.989  65.726  1.00  0.00     2.446 C  
HETATM   13  C   UNL     1      -7.535  13.801  66.999  1.00  0.00     0.292 A  
BRANCH   8  14
HETATM   14  C   UNL     1     -12.717  13.203  66.974  1.00  0.00     0.854 C  
BRANCH  14  15
HETATM   15  C   UNL     1     -12.337  11.846  67.542  1.00  0.00     0.823 A  
HETATM   16  C   UNL     1     -11.582  10.901  66.848  1.00  0.00     0.331 A  
HETATM   17  C   UNL     1     -12.118  10.411  69.535  1.00  0.00    -0.125 A  
HETATM   18  C   UNL     1     -12.621  11.562  68.891  1.00  0.00     0.626 A  
HETATM   19  C   UNL     1     -11.120   9.732  67.489  1.00  0.00    -0.089 A  
HETATM   20  C   UNL     1     -11.341   9.460  68.857  1.00  0.00     0.216 A  
BRANCH  20  21
HETATM   21  C   UNL     1     -10.711   8.263  69.513  1.00  0.00    -0.179 A  
HETATM   22  C   UNL     1      -9.851   5.957  69.223  1.00  0.00    -0.205 A  
HETATM   23  C   UNL     1     -10.401   7.144  68.708  1.00  0.00    -0.200 A  
HETATM   24  C   UNL     1      -9.819   6.926  71.391  1.00  0.00    -0.184 A  
HETATM   25  C   UNL     1     -10.373   8.133  70.881  1.00  0.00    -0.218 A  
HETATM   26  C   UNL     1      -9.582   5.837  70.566  1.00  0.00    -0.214 A  
HETATM   27  C   UNL     1     -10.600   9.186  71.898  1.00  0.00    -0.233 C  
HETATM   28  O   UNL     1      -9.507   9.257  72.691  1.00  0.00     0.296 OA 
HETATM   29  O   UNL     1     -11.615   9.829  72.082  1.00  0.00     0.012 OA 
ENDBRANCH  20  21
ENDBRANCH  14  15
ENDBRANCH   8  14
BRANCH  11  30
HETATM   30  C   UNL     1      -7.533  11.645  68.247  1.00  0.00    -0.097 A  
HETATM   31  C   UNL     1      -6.468   9.736  71.028  1.00  0.00    -0.017 A  
HETATM   32  C   UNL     1      -5.676   8.580  71.020  1.00  0.00    -0.033 A  
HETATM   33  N   UNL     1      -7.540  11.467  69.559  1.00  0.00     0.101 NA 
HETATM   34  C   UNL     1      -6.624  10.404  66.226  1.00  0.00    -0.107 C  
HETATM   35  C   UNL     1      -6.782  10.352  69.807  1.00  0.00    -0.117 A  
HETATM   36  C   UNL     1      -5.202   8.052  69.821  1.00  0.00    -0.023 A  
HETATM   37  N   UNL     1      -6.796  10.634  67.642  1.00  0.00    -0.073 NA 
HETATM   38  C   UNL     1      -6.299   9.807  68.625  1.00  0.00    -0.046 A  
HETATM   39  C   UNL     1      -5.503   8.655  68.595  1.00  0.00    -0.037 A  
ENDBRANCH  11  30
ENDBRANCH   3   4
ENDBRANCH   2   3
TORSDOF 6
ENDMDL
MODEL      233
REMARK 921   NORMALIZED FREE ENERGY PREDICTED BY IDOCK:   13.83 KCAL/MOL
REMARK 922        TOTAL FREE ENERGY PREDICTED BY IDOCK:   16.68 KCAL/MOL
REMARK 923 INTER-LIGAND FREE ENERGY PREDICTED BY IDOCK:   17.85 KCAL/MOL
REMARK 924 INTRA-LIGAND FREE ENERGY PREDICTED BY IDOCK:   -1.17 KCAL/MOL
REMARK 927      BINDING AFFINITY PREDICTED BY RF-SCORE:    0.00 PKD
ROOT
HETATM    1  C   UNL     1     -11.633   9.111  62.367  1.00  0.00    10.616 C  
HETATM    2  C   UNL     1     -10.805   9.568  63.560  1.00  0.00     5.399 C  
ENDROOT
BRANCH   2   3
HETATM    3  C   UNL     1      -9.700  10.569  63.196  1.00  0.00    -0.351 C  
BRANCH   3   4
HETATM    4  C   UNL     1      -9.460  11.567  64.282  1.00  0.00    -0.085 A  
HETATM    5  N   UNL     1     -10.082  12.730  64.346  1.00  0.00    -0.294 NA 
HETATM    6  C   UNL     1      -9.529  13.410  65.398  1.00  0.00     0.265 A  
HETATM    7  C   UNL     1      -8.568  12.627  66.020  1.00  0.00     0.578 A  
HETATM    8  N   UNL     1      -8.574  11.429  65.335  1.00  0.00     0.059 NA 
HETATM    9  C   UNL     1      -7.800  13.093  67.088  1.00  0.00    -0.061 A  
HETATM   10  C   UNL     1      -9.778  14.720  65.853  1.00  0.00    -0.355 A  
HETATM   11  C   UNL     1      -8.083  14.358  67.616  1.00  0.00    -0.188 A  
HETATM   12  C   UNL     1     -10.761  15.622  65.168  1.00  0.00    -0.463 C  
HETATM   13  C   UNL     1      -9.044  15.163  66.978  1.00  0.00    -0.249 A  
BRANCH   8  14
HETATM   14  C   UNL     1      -7.650  10.327  65.604  1.00  0.00    -0.148 C  
BRANCH  14  15
HETATM   15  C   UNL     1      -8.140   9.246  66.552  1.00  0.00    -0.104 A  
HETATM   16  C   UNL     1      -7.576   9.001  67.804  1.00  0.00    -0.093 A  
HETATM   17  C   UNL     1      -9.936   7.673  67.164  1.00  0.00    -0.297 A  
HETATM   18  C   UNL     1      -9.316   8.540  66.239  1.00  0.00    -0.287 A  
HETATM   19  C   UNL     1      -8.180   8.100  68.706  1.00  0.00    -0.125 A  
HETATM   20  C   UNL     1      -9.394   7.430  68.435  1.00  0.00    -0.144 A  
BRANCH  20  21
HETATM   21  C   UNL     1     -10.055   6.584  69.488  1.00  0.00    -0.203 A  
HETATM   22  C   UNL     1     -10.558   4.294  70.288  1.00  0.00     0.860 A  
HETATM   23  C   UNL     1      -9.943   5.180  69.386  1.00  0.00    -0.292 A  
HETATM   24  C   UNL     1     -11.404   6.146  71.512  1.00  0.00    -0.340 A  
HETATM   25  C   UNL     1     -10.785   7.051  70.607  1.00  0.00    -0.255 A  
HETATM   26  C   UNL     1     -11.307   4.773  71.337  1.00  0.00     1.016 A  
HETATM   27  C   UNL     1     -11.016   8.483  70.911  1.00  0.00    -0.251 C  
HETATM   28  O   UNL     1     -10.841   8.669  72.239  1.00  0.00    -0.354 OA 
HETATM   29  O   UNL     1     -11.392   9.350  70.147  1.00  0.00    -0.243 OA 
ENDBRANCH  20  21
ENDBRANCH  14  15
ENDBRANCH   8  14
BRANCH  11  30
HETATM   30  C   UNL     1      -7.376  14.865  68.805  1.00  0.00    -0.127 A  
HETATM   31  C   UNL     1      -6.186  17.332  71.044  1.00  0.00     1.494 A  
HETATM   32  C   UNL     1      -5.477  17.135  72.236  1.00  0.00     1.453 A  
HETATM   33  N   UNL     1      -7.272  16.149  69.114  1.00  0.00    -0.202 NA 
HETATM   34  C   UNL     1      -6.745  12.654  69.884  1.00  0.00     0.247 C  
HETATM   35  C   UNL     1      -6.571  16.213  70.290  1.00  0.00     0.349 A  
HETATM   36  C   UNL     1      -5.155  15.849  72.666  1.00  0.00     1.082 A  
HETATM   37  N   UNL     1      -6.768  14.096  69.789  1.00  0.00    -0.103 NA 
HETATM   38  C   UNL     1      -6.238  14.942  70.739  1.00  0.00     0.027 A  
HETATM   39  C   UNL     1      -5.527  14.723  71.926  1.00  0.00     0.014 A  
ENDBRANCH  11  30
ENDBRANCH   3   4
ENDBRANCH   2   3
TORSDOF 6
ENDMDL
MODEL      234
REMARK 921   NORMALIZED FREE ENERGY PREDICTED BY IDOCK:   14.17 KCAL/MOL
REMARK 922        TOTAL FREE ENERGY PREDICTED BY IDOCK:   17.14 KCAL/MOL
REMARK 923 INTER-LIGAND FREE ENERGY PREDICTED BY IDOCK:   15.83 KCAL/MOL
REMARK 924 INTRA-LIGAND FREE ENERGY PREDICTED BY IDOCK:    1.30 KCAL/MOL
REMARK 927      BINDING AFFINITY PREDICTED BY RF-SCORE:    0.00 PKD
ROOT
HETATM    1  C   UNL     1      -7.638  19.616  70.146  1.00  0.00     0.608 C  
HETATM    2  C   UNL     1      -8.021  18.299  70.807  1.00  0.00     4.700 C  
ENDROOT
BRANCH   2   3
HETATM    3  C   UNL     1      -9.514  18.193  71.151  1.00  0.00     5.808 C  
BRANCH   3   4
HETATM    4  C   UNL     1     -10.066  16.835  70.859  1.00  0.00     2.300 A  
HETATM    5  N   UNL     1     -11.342  16.527  71.005  1.00  0.00    -0.196 NA 
HETATM    6  C   UNL     1     -11.449  15.185  70.755  1.00  0.00    -0.309 A  
HETATM    7  C   UNL     1     -10.211  14.665  70.407  1.00  0.00     0.612 A  
HETATM    8  N   UNL     1      -9.346  15.740  70.419  1.00  0.00     0.695 NA 
HETATM    9  C   UNL     1     -10.016  13.306  70.156  1.00  0.00     2.677 A  
HETATM   10  C   UNL     1     -12.573  14.341  70.843  1.00  0.00    -0.426 A  
HETATM   11  C   UNL     1     -11.129  12.457  70.155  1.00  0.00     0.579 A  
HETATM   12  C   UNL     1     -13.915  14.852  71.279  1.00  0.00    -0.489 C  
HETATM   13  C   UNL     1     -12.382  12.977  70.523  1.00  0.00    -0.365 A  
BRANCH   8  14
HETATM   14  C   UNL     1      -7.905  15.634  70.190  1.00  0.00     0.607 C  
BRANCH  14  15
HETATM   15  C   UNL     1      -7.441  14.487  69.308  1.00  0.00    -0.102 A  
HETATM   16  C   UNL     1      -6.387  13.636  69.637  1.00  0.00    -0.110 A  
HETATM   17  C   UNL     1      -7.937  12.981  67.420  1.00  0.00    -0.173 A  
HETATM   18  C   UNL     1      -8.192  14.153  68.166  1.00  0.00    -0.149 A  
HETATM   19  C   UNL     1      -6.113  12.490  68.861  1.00  0.00    -0.075 A  
HETATM   20  C   UNL     1      -6.894  12.103  67.749  1.00  0.00    -0.106 A  
BRANCH  20  21
HETATM   21  C   UNL     1      -6.632  10.802  67.042  1.00  0.00    -0.085 A  
HETATM   22  C   UNL     1      -5.343   8.685  67.013  1.00  0.00    -0.037 A  
HETATM   23  C   UNL     1      -5.697   9.908  67.611  1.00  0.00    -0.039 A  
HETATM   24  C   UNL     1      -6.877   9.116  65.251  1.00  0.00    -0.077 A  
HETATM   25  C   UNL     1      -7.244  10.354  65.848  1.00  0.00    -0.135 A  
HETATM   26  C   UNL     1      -5.913   8.299  65.824  1.00  0.00    -0.041 A  
HETATM   27  C   UNL     1      -8.257  11.127  65.092  1.00  0.00     0.260 C  
HETATM   28  O   UNL     1      -9.235  10.278  64.701  1.00  0.00    -0.201 OA 
HETATM   29  O   UNL     1      -8.209  12.299  64.776  1.00  0.00     1.967 OA 
ENDBRANCH  20  21
ENDBRANCH  14  15
ENDBRANCH   8  14
BRANCH  11  30
HETATM   30  C   UNL     1     -11.002  11.032  69.800  1.00  0.00    -0.193 A  
HETATM   31  C   UNL     1     -10.564   7.578  70.423  1.00  0.00    -0.236 A  
HETATM   32  C   UNL     1     -10.587   6.531  69.493  1.00  0.00    -0.293 A  
HETATM   33  N   UNL     1     -10.793  10.065  70.679  1.00  0.00    -0.315 NA 
HETATM   34  C   UNL     1     -11.462  11.186  67.307  1.00  0.00    -0.136 C  
HETATM   35  C   UNL     1     -10.760   8.892  69.971  1.00  0.00    -0.228 A  
HETATM   36  C   UNL     1     -10.796   6.788  68.139  1.00  0.00    -0.296 A  
HETATM   37  N   UNL     1     -11.130  10.488  68.528  1.00  0.00    -0.259 NA 
HETATM   38  C   UNL     1     -10.965   9.123  68.617  1.00  0.00     0.047 A  
HETATM   39  C   UNL     1     -10.989   8.092  67.670  1.00  0.00     0.046 A  
ENDBRANCH  11  30
ENDBRANCH   3   4
ENDBRANCH   2   3
TORSDOF 6
ENDMDL
MODEL      235
REMARK 921   NORMALIZED FREE ENERGY PREDICTED BY IDOCK:   15.83 KCAL/MOL
REMARK 922        TOTAL FREE ENERGY PREDICTED BY IDOCK:   19.38 KCAL/MOL
REMARK 923 INTER-LIGAND FREE ENERGY PREDICTED BY IDOCK:   20.35 KCAL/MOL
REMARK 924 INTRA-LIGAND FREE ENERGY PREDICTED BY IDOCK:   -0.97 KCAL/MOL
REMARK 927      BINDING AFFINITY PREDICTED BY RF-SCORE:    0.00 PKD
ROOT
HETATM    1  C   UNL     1      -6.960  10.446  72.631  1.00  0.00     3.853 C  
HETATM    2  C   UNL     1      -6.288  10.680  71.285  1.00  0.00     0.634 C  
ENDROOT
BRANCH   2   3
HETATM    3  C   UNL     1      -5.527  12.011  71.199  1.00  0.00    -0.029 C  
BRANCH   3   4
HETATM    4  C   UNL     1      -6.408  13.141  70.779  1.00  0.00     0.543 A  
HETATM    5  N   UNL     1      -7.385  13.616  71.531  1.00  0.00     3.470 NA 
HETATM    6  C   UNL     1      -8.033  14.557  70.778  1.00  0.00     2.253 A  
HETATM    7  C   UNL     1      -7.414  14.692  69.544  1.00  0.00    -0.074 A  
HETATM    8  N   UNL     1      -6.340  13.825  69.579  1.00  0.00    -0.115 NA 
HETATM    9  C   UNL     1      -7.902  15.542  68.551  1.00  0.00    -0.135 A  
HETATM   10  C   UNL     1      -9.186  15.309  71.077  1.00  0.00     2.321 A  
HETATM   11  C   UNL     1      -8.995  16.364  68.849  1.00  0.00    -0.256 A  
HETATM   12  C   UNL     1      -9.924  15.146  72.373  1.00  0.00     4.006 C  
HETATM   13  C   UNL     1      -9.637  16.218  70.092  1.00  0.00     0.780 A  
BRANCH   8  14
HETATM   14  C   UNL     1      -5.449  13.580  68.444  1.00  0.00    -0.095 C  
BRANCH  14  15
HETATM   15  C   UNL     1      -5.876  12.498  67.467  1.00  0.00    -0.145 A  
HETATM   16  C   UNL     1      -5.146  12.149  66.331  1.00  0.00     0.508 A  
HETATM   17  C   UNL     1      -7.313  10.544  67.023  1.00  0.00    -0.099 A  
HETATM   18  C   UNL     1      -6.985  11.690  67.780  1.00  0.00    -0.084 A  
HETATM   19  C   UNL     1      -5.507  11.027  65.556  1.00  0.00    -0.051 A  
HETATM   20  C   UNL     1      -6.578  10.167  65.889  1.00  0.00    -0.105 A  
BRANCH  20  21
HETATM   21  C   UNL     1      -6.830   8.913  65.099  1.00  0.00    -0.076 A  
HETATM   22  C   UNL     1      -7.278   7.927  62.870  1.00  0.00    -0.091 A  
HETATM   23  C   UNL     1      -6.994   9.025  63.700  1.00  0.00    -0.089 A  
HETATM   24  C   UNL     1      -7.199   6.493  64.762  1.00  0.00    -0.067 A  
HETATM   25  C   UNL     1      -6.910   7.597  65.611  1.00  0.00    -0.049 A  
HETATM   26  C   UNL     1      -7.404   6.665  63.401  1.00  0.00    -0.072 A  
HETATM   27  C   UNL     1      -6.758   7.250  67.043  1.00  0.00    -0.068 C  
HETATM   28  O   UNL     1      -5.989   6.141  67.134  1.00  0.00    -0.016 OA 
HETATM   29  O   UNL     1      -7.292   7.786  67.994  1.00  0.00    -0.096 OA 
ENDBRANCH  20  21
ENDBRANCH  14  15
ENDBRANCH   8  14
BRANCH  11  30
HETATM   30  C   UNL     1      -9.494  17.353  67.878  1.00  0.00    -0.265 A  
HETATM   31  C   UNL     1      -9.993  20.585  66.531  1.00  0.00    -0.329 A  
HETATM   32  C   UNL     1     -10.635  20.923  65.332  1.00  0.00     1.471 A  
HETATM   33  N   UNL     1      -9.315  18.660  67.992  1.00  0.00    -0.303 NA 
HETATM   34  C   UNL     1     -10.473  15.773  66.147  1.00  0.00    -0.317 C  
HETATM   35  C   UNL     1      -9.898  19.233  66.892  1.00  0.00    -0.342 A  
HETATM   36  C   UNL     1     -11.176  19.934  64.512  1.00  0.00     2.649 A  
HETATM   37  N   UNL     1     -10.168  17.075  66.695  1.00  0.00    -0.303 NA 
HETATM   38  C   UNL     1     -10.445  18.265  66.059  1.00  0.00    -0.361 A  
HETATM   39  C   UNL     1     -11.094  18.581  64.859  1.00  0.00     1.899 A  
ENDBRANCH  11  30
ENDBRANCH   3   4
ENDBRANCH   2   3
TORSDOF 6
ENDMDL
MODEL      236
REMARK 921   NORMALIZED FREE ENERGY PREDICTED BY IDOCK:   16.21 KCAL/MOL
REMARK 922        TOTAL FREE ENERGY PREDICTED BY IDOCK:   19.90 KCAL/MOL
REMARK 923 INTER-LIGAND FREE ENERGY PREDICTED BY IDOCK:   19.99 KCAL/MOL
REMARK 924 INTRA-LIGAND FREE ENERGY PREDICTED BY IDOCK:   -0.09 KCAL/MOL
REMARK 927      BINDING AFFINITY PREDICTED BY RF-SCORE:    0.00 PKD
ROOT
HETATM    1  C   UNL     1     -14.120   8.447  73.512  1.00  0.00     1.792 C  
HETATM    2  C   UNL     1     -12.769   8.381  74.211  1.00  0.00     7.822 C  
ENDROOT
BRANCH   2   3
HETATM    3  C   UNL     1     -11.674   9.202  73.516  1.00  0.00     3.988 C  
BRANCH   3   4
HETATM    4  C   UNL     1     -10.776   8.352  72.677  1.00  0.00    -0.242 A  
HETATM    5  N   UNL     1      -9.754   7.676  73.167  1.00  0.00    -0.243 NA 
HETATM    6  C   UNL     1      -9.109   7.116  72.097  1.00  0.00    -0.129 A  
HETATM    7  C   UNL     1      -9.778   7.424  70.922  1.00  0.00    -0.169 A  
HETATM    8  N   UNL     1     -10.875   8.166  71.310  1.00  0.00    -0.232 NA 
HETATM    9  C   UNL     1      -9.307   7.031  69.668  1.00  0.00    -0.149 A  
HETATM   10  C   UNL     1      -7.921   6.359  72.058  1.00  0.00    -0.108 A  
HETATM   11  C   UNL     1      -8.177   6.208  69.604  1.00  0.00    -0.116 A  
HETATM   12  C   UNL     1      -7.133   6.060  73.299  1.00  0.00    -0.085 C  
HETATM   13  C   UNL     1      -7.486   5.907  70.791  1.00  0.00    -0.091 A  
BRANCH   8  14
HETATM   14  C   UNL     1     -11.823   8.776  70.377  1.00  0.00     0.058 C  
BRANCH  14  15
HETATM   15  C   UNL     1     -12.015  10.279  70.492  1.00  0.00    -0.415 A  
HETATM   16  C   UNL     1     -12.688  10.894  71.547  1.00  0.00    -0.533 A  
HETATM   17  C   UNL     1     -11.331  12.527  69.748  1.00  0.00    -0.111 A  
HETATM   18  C   UNL     1     -11.362  11.126  69.578  1.00  0.00    -0.359 A  
HETATM   19  C   UNL     1     -12.688  12.299  71.684  1.00  0.00    -0.309 A  
HETATM   20  C   UNL     1     -11.985  13.162  70.814  1.00  0.00    -0.158 A  
BRANCH  20  21
HETATM   21  C   UNL     1     -11.915  14.639  71.090  1.00  0.00    -0.405 A  
HETATM   22  C   UNL     1     -11.324  16.415  72.713  1.00  0.00     0.487 A  
HETATM   23  C   UNL     1     -11.395  15.064  72.332  1.00  0.00    -0.146 A  
HETATM   24  C   UNL     1     -12.233  17.042  70.609  1.00  0.00     3.138 A  
HETATM   25  C   UNL     1     -12.308  15.678  70.214  1.00  0.00    -0.402 A  
HETATM   26  C   UNL     1     -11.763  17.403  71.864  1.00  0.00     1.979 A  
HETATM   27  C   UNL     1     -12.869  15.458  68.860  1.00  0.00     0.919 C  
HETATM   28  O   UNL     1     -12.304  16.350  68.015  1.00  0.00     0.797 OA 
HETATM   29  O   UNL     1     -13.752  14.686  68.542  1.00  0.00     4.016 OA 
ENDBRANCH  20  21
ENDBRANCH  14  15
ENDBRANCH   8  14
BRANCH  11  30
HETATM   30  C   UNL     1      -7.690   5.678  68.318  1.00  0.00    -0.089 A  
HETATM   31  C   UNL     1      -6.630   3.178  66.052  1.00  0.00    -0.040 A  
HETATM   32  C   UNL     1      -6.271   3.338  64.707  1.00  0.00    -0.023 A  
HETATM   33  N   UNL     1      -7.428   4.400  68.095  1.00  0.00    -0.065 NA 
HETATM   34  C   UNL     1      -7.748   7.813  66.944  1.00  0.00    -0.103 C  
HETATM   35  C   UNL     1      -7.025   4.305  66.788  1.00  0.00    -0.059 A  
HETATM   36  C   UNL     1      -6.301   4.597  64.109  1.00  0.00    -0.030 A  
HETATM   37  N   UNL     1      -7.483   6.408  67.154  1.00  0.00    -0.083 NA 
HETATM   38  C   UNL     1      -7.046   5.549  66.170  1.00  0.00    -0.068 A  
HETATM   39  C   UNL     1      -6.689   5.731  64.829  1.00  0.00    -0.047 A  
ENDBRANCH  11  30
ENDBRANCH   3   4
ENDBRANCH   2   3
TORSDOF 6
ENDMDL
MODEL      237
REMARK 921   NORMALIZED FREE ENERGY PREDICTED BY IDOCK:   16.46 KCAL/MOL
REMARK 922        TOTAL FREE ENERGY PREDICTED BY IDOCK:   20.23 KCAL/MOL
REMARK 923 INTER-LIGAND FREE ENERGY PREDICTED BY IDOCK:   21.62 KCAL/MOL
REMARK 924 INTRA-LIGAND FREE ENERGY PREDICTED BY IDOCK:   -1.39 KCAL/MOL
REMARK 927      BINDING AFFINITY PREDICTED BY RF-SCORE:    0.00 PKD
ROOT
HETATM    1  C   UNL     1      -6.961  10.447  72.632  1.00  0.00     3.853 C  
HETATM    2  C   UNL     1      -6.281  10.683  71.290  1.00  0.00     0.472 C  
ENDROOT
BRANCH   2   3
HETATM    3  C   UNL     1      -5.525  12.016  71.208  1.00  0.00     0.030 C  
BRANCH   3   4
HETATM    4  C   UNL     1      -6.410  13.144  70.785  1.00  0.00     0.543 A  
HETATM    5  N   UNL     1      -7.390  13.614  71.535  1.00  0.00     3.470 NA 
HETATM    6  C   UNL     1      -8.040  14.553  70.780  1.00  0.00     2.418 A  
HETATM    7  C   UNL     1      -7.417  14.691  69.549  1.00  0.00    -0.074 A  
HETATM    8  N   UNL     1      -6.340  13.828  69.586  1.00  0.00    -0.120 NA 
HETATM    9  C   UNL     1      -7.905  15.540  68.554  1.00  0.00    -0.135 A  
HETATM   10  C   UNL     1      -9.197  15.301  71.076  1.00  0.00     2.321 A  
HETATM   11  C   UNL     1      -9.003  16.357  68.850  1.00  0.00    -0.256 A  
HETATM   12  C   UNL     1      -9.938  15.133  72.370  1.00  0.00     4.006 C  
HETATM   13  C   UNL     1      -9.648  16.209  70.090  1.00  0.00     0.647 A  
BRANCH   8  14
HETATM   14  C   UNL     1      -5.444  13.587  68.454  1.00  0.00    -0.095 C  
BRANCH  14  15
HETATM   15  C   UNL     1      -5.865  12.505  67.475  1.00  0.00    -0.145 A  
HETATM   16  C   UNL     1      -5.131  12.159  66.341  1.00  0.00     0.508 A  
HETATM   17  C   UNL     1      -7.292  10.545  67.025  1.00  0.00    -0.099 A  
HETATM   18  C   UNL     1      -6.972  11.692  67.784  1.00  0.00    -0.084 A  
HETATM   19  C   UNL     1      -5.485  11.036  65.564  1.00  0.00    -0.051 A  
HETATM   20  C   UNL     1      -6.553  10.172  65.893  1.00  0.00    -0.105 A  
BRANCH  20  21
HETATM   21  C   UNL     1      -6.798   8.918  65.101  1.00  0.00    -0.076 A  
HETATM   22  C   UNL     1      -6.575   6.451  65.008  1.00  0.00    -0.039 A  
HETATM   23  C   UNL     1      -6.432   7.680  65.676  1.00  0.00    -0.042 A  
HETATM   24  C   UNL     1      -7.521   7.587  63.148  1.00  0.00    -0.104 A  
HETATM   25  C   UNL     1      -7.383   8.835  63.815  1.00  0.00    -0.099 A  
HETATM   26  C   UNL     1      -7.096   6.404  63.736  1.00  0.00    -0.050 A  
HETATM   27  C   UNL     1      -7.848  10.006  63.036  1.00  0.00    -0.142 C  
HETATM   28  O   UNL     1      -9.038   9.698  62.473  1.00  0.00    -0.267 OA 
HETATM   29  O   UNL     1      -7.250  11.045  62.834  1.00  0.00     0.141 OA 
ENDBRANCH  20  21
ENDBRANCH  14  15
ENDBRANCH   8  14
BRANCH  11  30
HETATM   30  C   UNL     1      -9.503  17.345  67.877  1.00  0.00    -0.265 A  
HETATM   31  C   UNL     1     -11.703  18.629  65.423  1.00  0.00     3.214 A  
HETATM   32  C   UNL     1     -11.649  19.881  64.797  1.00  0.00     2.531 A  
HETATM   33  N   UNL     1     -10.577  17.166  67.125  1.00  0.00    -0.286 NA 
HETATM   34  C   UNL     1      -7.859  19.230  68.323  1.00  0.00    -0.319 C  
HETATM   35  C   UNL     1     -10.727  18.306  66.378  1.00  0.00    -0.161 A  
HETATM   36  C   UNL     1     -10.641  20.791  65.112  1.00  0.00     1.184 A  
HETATM   37  N   UNL     1      -8.970  18.606  67.640  1.00  0.00    -0.274 NA 
HETATM   38  C   UNL     1      -9.732  19.228  66.676  1.00  0.00    -0.353 A  
HETATM   39  C   UNL     1      -9.659  20.484  66.059  1.00  0.00    -0.078 A  
ENDBRANCH  11  30
ENDBRANCH   3   4
ENDBRANCH   2   3
TORSDOF 6
ENDMDL
MODEL      238
REMARK 921   NORMALIZED FREE ENERGY PREDICTED BY IDOCK:   16.68 KCAL/MOL
REMARK 922        TOTAL FREE ENERGY PREDICTED BY IDOCK:   20.52 KCAL/MOL
REMARK 923 INTER-LIGAND FREE ENERGY PREDICTED BY IDOCK:   20.23 KCAL/MOL
REMARK 924 INTRA-LIGAND FREE ENERGY PREDICTED BY IDOCK:    0.29 KCAL/MOL
REMARK 927      BINDING AFFINITY PREDICTED BY RF-SCORE:    0.00 PKD
ROOT
HETATM    1  C   UNL     1      -7.036  20.704  67.413  1.00  0.00    -0.399 C  
HETATM    2  C   UNL     1      -6.665  20.226  66.015  1.00  0.00    -0.273 C  
ENDROOT
BRANCH   2   3
HETATM    3  C   UNL     1      -7.004  18.751  65.757  1.00  0.00    -0.291 C  
BRANCH   3   4
HETATM    4  C   UNL     1      -8.123  18.268  66.622  1.00  0.00    -0.260 A  
HETATM    5  N   UNL     1      -9.251  18.935  66.785  1.00  0.00    -0.308 NA 
HETATM    6  C   UNL     1      -9.977  18.248  67.720  1.00  0.00    -0.332 A  
HETATM    7  C   UNL     1      -9.293  17.107  68.112  1.00  0.00    -0.264 A  
HETATM    8  N   UNL     1      -8.136  17.099  67.360  1.00  0.00    -0.175 NA 
HETATM    9  C   UNL     1      -9.775  16.248  69.101  1.00  0.00    -0.265 A  
HETATM   10  C   UNL     1     -11.218  18.566  68.306  1.00  0.00     0.758 A  
HETATM   11  C   UNL     1     -11.043  16.493  69.641  1.00  0.00    -0.235 A  
HETATM   12  C   UNL     1     -11.958  19.824  67.959  1.00  0.00     2.717 C  
HETATM   13  C   UNL     1     -11.733  17.657  69.260  1.00  0.00     2.729 A  
BRANCH   8  14
HETATM   14  C   UNL     1      -7.069  16.108  67.508  1.00  0.00    -0.163 C  
BRANCH  14  15
HETATM   15  C   UNL     1      -7.482  14.648  67.414  1.00  0.00    -0.212 A  
HETATM   16  C   UNL     1      -8.629  14.210  66.754  1.00  0.00    -0.097 A  
HETATM   17  C   UNL     1      -6.827  12.282  67.642  1.00  0.00    -0.124 A  
HETATM   18  C   UNL     1      -6.601  13.655  67.881  1.00  0.00    -0.158 A  
HETATM   19  C   UNL     1      -8.868  12.833  66.558  1.00  0.00    -0.046 A  
HETATM   20  C   UNL     1      -7.966  11.824  66.962  1.00  0.00    -0.164 A  
BRANCH  20  21
HETATM   21  C   UNL     1      -8.215  10.384  66.607  1.00  0.00    -0.128 A  
HETATM   22  C   UNL     1      -7.322   8.330  65.547  1.00  0.00    -0.072 A  
HETATM   23  C   UNL     1      -7.183   9.666  65.963  1.00  0.00    -0.098 A  
HETATM   24  C   UNL     1      -9.523   8.295  66.440  1.00  0.00    -0.287 A  
HETATM   25  C   UNL     1      -9.393   9.645  66.866  1.00  0.00    -0.183 A  
HETATM   26  C   UNL     1      -8.498   7.651  65.763  1.00  0.00    -0.153 A  
HETATM   27  C   UNL     1     -10.591  10.198  67.540  1.00  0.00    -0.273 C  
HETATM   28  O   UNL     1     -11.047   9.279  68.421  1.00  0.00    -0.049 OA 
HETATM   29  O   UNL     1     -11.153  11.249  67.303  1.00  0.00    -0.274 OA 
ENDBRANCH  20  21
ENDBRANCH  14  15
ENDBRANCH   8  14
BRANCH  11  30
HETATM   30  C   UNL     1     -11.649  15.568  70.615  1.00  0.00    -0.349 A  
HETATM   31  C   UNL     1     -14.271  13.737  72.127  1.00  0.00    -0.544 A  
HETATM   32  C   UNL     1     -14.179  12.831  73.192  1.00  0.00     2.348 A  
HETATM   33  N   UNL     1     -12.938  15.268  70.649  1.00  0.00    -0.408 NA 
HETATM   34  C   UNL     1      -9.549  14.808  71.825  1.00  0.00     4.221 C  
HETATM   35  C   UNL     1     -13.104  14.367  71.669  1.00  0.00    -0.350 A  
HETATM   36  C   UNL     1     -12.950  12.563  73.792  1.00  0.00     7.640 A  
HETATM   37  N   UNL     1     -10.975  14.847  71.592  1.00  0.00     0.091 NA 
HETATM   38  C   UNL     1     -11.891  14.084  72.283  1.00  0.00     0.837 A  
HETATM   39  C   UNL     1     -11.778  13.184  73.351  1.00  0.00     5.827 A  
ENDBRANCH  11  30
ENDBRANCH   3   4
ENDBRANCH   2   3
TORSDOF 6
ENDMDL
MODEL      239
REMARK 921   NORMALIZED FREE ENERGY PREDICTED BY IDOCK:   16.93 KCAL/MOL
REMARK 922        TOTAL FREE ENERGY PREDICTED BY IDOCK:   20.87 KCAL/MOL
REMARK 923 INTER-LIGAND FREE ENERGY PREDICTED BY IDOCK:   22.55 KCAL/MOL
REMARK 924 INTRA-LIGAND FREE ENERGY PREDICTED BY IDOCK:   -1.68 KCAL/MOL
REMARK 927      BINDING AFFINITY PREDICTED BY RF-SCORE:    0.00 PKD
ROOT
HETATM    1  C   UNL     1     -12.354  18.150  73.695  1.00  0.00     3.265 C  
HETATM    2  C   UNL     1     -11.305  18.449  72.632  1.00  0.00     3.256 C  
ENDROOT
BRANCH   2   3
HETATM    3  C   UNL     1     -10.294  17.312  72.426  1.00  0.00     5.484 C  
BRANCH   3   4
HETATM    4  C   UNL     1     -10.297  16.799  71.023  1.00  0.00     1.907 A  
HETATM    5  N   UNL     1      -9.719  17.434  70.019  1.00  0.00     0.926 NA 
HETATM    6  C   UNL     1     -10.023  16.728  68.886  1.00  0.00    -0.271 A  
HETATM    7  C   UNL     1     -10.775  15.609  69.209  1.00  0.00    -0.239 A  
HETATM    8  N   UNL     1     -10.893  15.632  70.583  1.00  0.00    -0.327 NA 
HETATM    9  C   UNL     1     -11.275  14.738  68.238  1.00  0.00    -0.299 A  
HETATM   10  C   UNL     1      -9.717  17.013  67.541  1.00  0.00    -0.251 A  
HETATM   11  C   UNL     1     -10.917  14.948  66.901  1.00  0.00    -0.327 A  
HETATM   12  C   UNL     1      -8.964  18.248  67.144  1.00  0.00    -0.264 C  
HETATM   13  C   UNL     1     -10.170  16.091  66.568  1.00  0.00    -0.301 A  
BRANCH   8  14
HETATM   14  C   UNL     1     -11.685  14.672  71.354  1.00  0.00    -0.234 C  
BRANCH  14  15
HETATM   15  C   UNL     1     -11.558  13.212  70.953  1.00  0.00     0.714 A  
HETATM   16  C   UNL     1     -12.575  12.490  70.329  1.00  0.00    -0.026 A  
HETATM   17  C   UNL     1     -10.071  11.291  70.532  1.00  0.00     2.450 A  
HETATM   18  C   UNL     1     -10.309  12.574  71.071  1.00  0.00     6.354 A  
HETATM   19  C   UNL     1     -12.339  11.191  69.832  1.00  0.00    -0.330 A  
HETATM   20  C   UNL     1     -11.076  10.559  69.884  1.00  0.00    -0.371 A  
BRANCH  20  21
HETATM   21  C   UNL     1     -10.856   9.228  69.219  1.00  0.00    -0.170 A  
HETATM   22  C   UNL     1     -10.361   8.025  67.110  1.00  0.00    -0.395 A  
HETATM   23  C   UNL     1     -10.544   9.212  67.841  1.00  0.00    -0.272 A  
HETATM   24  C   UNL     1     -10.729   6.763  69.088  1.00  0.00    -0.287 A  
HETATM   25  C   UNL     1     -10.914   7.957  69.839  1.00  0.00    -0.179 A  
HETATM   26  C   UNL     1     -10.477   6.801  67.725  1.00  0.00    -0.274 A  
HETATM   27  C   UNL     1     -11.214   7.744  71.274  1.00  0.00    -0.255 C  
HETATM   28  O   UNL     1     -10.371   6.801  71.750  1.00  0.00    -0.199 OA 
HETATM   29  O   UNL     1     -12.115   8.240  71.922  1.00  0.00    -0.295 OA 
ENDBRANCH  20  21
ENDBRANCH  14  15
ENDBRANCH   8  14
BRANCH  11  30
HETATM   30  C   UNL     1     -11.330  14.009  65.844  1.00  0.00    -0.317 A  
HETATM   31  C   UNL     1     -13.464  12.696  63.347  1.00  0.00     1.472 A  
HETATM   32  C   UNL     1     -13.225  11.602  62.505  1.00  0.00     2.094 A  
HETATM   33  N   UNL     1     -12.479  14.086  65.191  1.00  0.00    -0.526 NA 
HETATM   34  C   UNL     1      -9.229  12.587  65.711  1.00  0.00     0.122 C  
HETATM   35  C   UNL     1     -12.483  13.061  64.281  1.00  0.00    -0.315 A  
HETATM   36  C   UNL     1     -12.034  10.882  62.596  1.00  0.00     2.106 A  
HETATM   37  N   UNL     1     -10.578  12.953  65.344  1.00  0.00    -0.284 NA 
HETATM   38  C   UNL     1     -11.305  12.329  64.353  1.00  0.00    -0.336 A  
HETATM   39  C   UNL     1     -11.047  11.230  63.524  1.00  0.00    -0.261 A  
ENDBRANCH  11  30
ENDBRANCH   3   4
ENDBRANCH   2   3
TORSDOF 6
ENDMDL
MODEL      240
REMARK 921   NORMALIZED FREE ENERGY PREDICTED BY IDOCK:   17.88 KCAL/MOL
REMARK 922        TOTAL FREE ENERGY PREDICTED BY IDOCK:   22.15 KCAL/MOL
REMARK 923 INTER-LIGAND FREE ENERGY PREDICTED BY IDOCK:   19.77 KCAL/MOL
REMARK 924 INTRA-LIGAND FREE ENERGY PREDICTED BY IDOCK:    2.38 KCAL/MOL
REMARK 927      BINDING AFFINITY PREDICTED BY RF-SCORE:    0.00 PKD
ROOT
HETATM    1  C   UNL     1      -5.938  14.763  66.259  1.00  0.00     4.630 C  
HETATM    2  C   UNL     1      -6.592  13.634  65.475  1.00  0.00     9.506 C  
ENDROOT
BRANCH   2   3
HETATM    3  C   UNL     1      -5.589  12.653  64.853  1.00  0.00     7.546 C  
BRANCH   3   4
HETATM    4  C   UNL     1      -5.827  11.244  65.292  1.00  0.00     0.602 A  
HETATM    5  N   UNL     1      -5.446  10.193  64.588  1.00  0.00    -0.097 NA 
HETATM    6  C   UNL     1      -5.930   9.092  65.242  1.00  0.00    -0.062 A  
HETATM    7  C   UNL     1      -6.592   9.476  66.398  1.00  0.00    -0.071 A  
HETATM    8  N   UNL     1      -6.469  10.850  66.451  1.00  0.00    -0.121 NA 
HETATM    9  C   UNL     1      -7.238   8.560  67.230  1.00  0.00    -0.084 A  
HETATM   10  C   UNL     1      -5.869   7.732  64.879  1.00  0.00    -0.038 A  
HETATM   11  C   UNL     1      -7.123   7.195  66.941  1.00  0.00    -0.082 A  
HETATM   12  C   UNL     1      -5.220   7.282  63.604  1.00  0.00    -0.033 C  
HETATM   13  C   UNL     1      -6.467   6.802  65.761  1.00  0.00    -0.050 A  
BRANCH   8  14
HETATM   14  C   UNL     1      -7.095  11.690  67.472  1.00  0.00    -0.111 C  
BRANCH  14  15
HETATM   15  C   UNL     1      -7.850  10.968  68.576  1.00  0.00    -0.129 A  
HETATM   16  C   UNL     1      -9.207  11.154  68.835  1.00  0.00    -0.106 A  
HETATM   17  C   UNL     1      -7.901   9.099  70.182  1.00  0.00    -0.114 A  
HETATM   18  C   UNL     1      -7.204   9.943  69.291  1.00  0.00    -0.073 A  
HETATM   19  C   UNL     1      -9.886  10.333  69.759  1.00  0.00    -0.201 A  
HETATM   20  C   UNL     1      -9.271   9.259  70.440  1.00  0.00    -0.291 A  
BRANCH  20  21
HETATM   21  C   UNL     1     -10.079   8.339  71.312  1.00  0.00    -0.249 A  
HETATM   22  C   UNL     1     -10.231   6.113  72.390  1.00  0.00    -0.212 A  
HETATM   23  C   UNL     1      -9.544   7.068  71.622  1.00  0.00    -0.160 A  
HETATM   24  C   UNL     1     -12.030   7.641  72.659  1.00  0.00    -0.208 A  
HETATM   25  C   UNL     1     -11.343   8.616  71.884  1.00  0.00    -0.417 A  
HETATM   26  C   UNL     1     -11.482   6.387  72.890  1.00  0.00    -0.107 A  
HETATM   27  C   UNL     1     -12.080   9.888  71.699  1.00  0.00    -0.373 C  
HETATM   28  O   UNL     1     -12.603  10.255  72.890  1.00  0.00     0.856 OA 
HETATM   29  O   UNL     1     -12.283  10.479  70.657  1.00  0.00    -0.294 OA 
ENDBRANCH  20  21
ENDBRANCH  14  15
ENDBRANCH   8  14
BRANCH  11  30
HETATM   30  C   UNL     1      -7.697   6.174  67.835  1.00  0.00    -0.102 A  
HETATM   31  C   UNL     1     -10.274   4.217  69.264  1.00  0.00     0.396 A  
HETATM   32  C   UNL     1     -10.145   3.195  70.214  1.00  0.00     0.573 A  
HETATM   33  N   UNL     1      -8.988   5.888  67.901  1.00  0.00    -0.112 NA 
HETATM   34  C   UNL     1      -5.553   5.254  68.840  1.00  0.00    -0.014 C  
HETATM   35  C   UNL     1      -9.119   4.880  68.820  1.00  0.00    -0.112 A  
HETATM   36  C   UNL     1      -8.893   2.844  70.716  1.00  0.00    -0.147 A  
HETATM   37  N   UNL     1      -6.988   5.337  68.688  1.00  0.00    -0.055 NA 
HETATM   38  C   UNL     1      -7.883   4.513  69.335  1.00  0.00    -0.062 A  
HETATM   39  C   UNL     1      -7.732   3.496  70.287  1.00  0.00    -0.047 A  
ENDBRANCH  11  30
ENDBRANCH   3   4
ENDBRANCH   2   3
TORSDOF 6
ENDMDL
MODEL      241
REMARK 921   NORMALIZED FREE ENERGY PREDICTED BY IDOCK:   20.19 KCAL/MOL
REMARK 922        TOTAL FREE ENERGY PREDICTED BY IDOCK:   25.28 KCAL/MOL
REMARK 923 INTER-LIGAND FREE ENERGY PREDICTED BY IDOCK:    8.13 KCAL/MOL
REMARK 924 INTRA-LIGAND FREE ENERGY PREDICTED BY IDOCK:   17.14 KCAL/MOL
REMARK 927      BINDING AFFINITY PREDICTED BY RF-SCORE:    0.00 PKD
ROOT
HETATM    1  C   UNL     1     -10.460  18.526  69.058  1.00  0.00     0.117 C  
HETATM    2  C   UNL     1     -11.491  18.255  67.971  1.00  0.00     1.062 C  
ENDROOT
BRANCH   2   3
HETATM    3  C   UNL     1     -12.863  17.832  68.514  1.00  0.00     6.901 C  
BRANCH   3   4
HETATM    4  C   UNL     1     -12.869  16.417  68.994  1.00  0.00     2.345 A  
HETATM    5  N   UNL     1     -13.240  16.068  70.212  1.00  0.00     0.246 NA 
HETATM    6  C   UNL     1     -13.009  14.723  70.319  1.00  0.00    -0.135 A  
HETATM    7  C   UNL     1     -12.520  14.226  69.120  1.00  0.00     0.024 A  
HETATM    8  N   UNL     1     -12.491  15.306  68.262  1.00  0.00     0.379 NA 
HETATM    9  C   UNL     1     -12.141  12.892  68.962  1.00  0.00    -0.198 A  
HETATM   10  C   UNL     1     -13.161  13.869  71.429  1.00  0.00    -0.392 A  
HETATM   11  C   UNL     1     -12.359  12.003  70.021  1.00  0.00    -0.179 A  
HETATM   12  C   UNL     1     -13.624  14.379  72.762  1.00  0.00    -0.531 C  
HETATM   13  C   UNL     1     -12.839  12.505  71.244  1.00  0.00    -0.337 A  
BRANCH   8  14
HETATM   14  C   UNL     1     -11.961  15.256  66.898  1.00  0.00     0.251 C  
BRANCH  14  15
HETATM   15  C   UNL     1     -10.968  14.146  66.597  1.00  0.00    -0.303 A  
HETATM   16  C   UNL     1      -9.933  14.264  65.671  1.00  0.00    -0.346 A  
HETATM   17  C   UNL     1      -9.965  12.005  67.297  1.00  0.00    -0.205 A  
HETATM   18  C   UNL     1     -10.981  12.981  67.387  1.00  0.00    -0.284 A  
HETATM   19  C   UNL     1      -8.946  13.262  65.558  1.00  0.00     0.969 A  
HETATM   20  C   UNL     1      -8.905  12.118  66.385  1.00  0.00    -0.100 A  
BRANCH  20  21
HETATM   21  C   UNL     1      -7.754  11.153  66.306  1.00  0.00    -0.097 A  
HETATM   22  C   UNL     1      -5.299  10.871  66.124  1.00  0.00    -0.121 A  
HETATM   23  C   UNL     1      -6.444  11.678  66.245  1.00  0.00     0.230 A  
HETATM   24  C   UNL     1      -6.673   8.935  66.174  1.00  0.00    -0.069 A  
HETATM   25  C   UNL     1      -7.838   9.741  66.298  1.00  0.00    -0.106 A  
HETATM   26  C   UNL     1      -5.412   9.502  66.065  1.00  0.00    -0.040 A  
HETATM   27  C   UNL     1      -9.110   8.983  66.365  1.00  0.00    -0.170 C  
HETATM   28  O   UNL     1      -8.943   7.945  67.216  1.00  0.00    -0.125 OA 
HETATM   29  O   UNL     1     -10.117   9.171  65.713  1.00  0.00    -0.229 OA 
ENDBRANCH  20  21
ENDBRANCH  14  15
ENDBRANCH   8  14
BRANCH  11  30
HETATM   30  C   UNL     1     -12.073  10.564  69.881  1.00  0.00    -0.245 A  
HETATM   31  C   UNL     1     -12.438   7.118  70.590  1.00  0.00    -0.148 A  
HETATM   32  C   UNL     1     -11.786   6.043  69.971  1.00  0.00     0.136 A  
HETATM   33  N   UNL     1     -12.663   9.618  70.595  1.00  0.00    -0.107 NA 
HETATM   34  C   UNL     1     -10.438  10.655  67.940  1.00  0.00    -0.208 C  
HETATM   35  C   UNL     1     -12.152   8.423  70.161  1.00  0.00     0.574 A  
HETATM   36  C   UNL     1     -10.863   6.265  68.950  1.00  0.00    -0.396 A  
HETATM   37  N   UNL     1     -11.201   9.985  68.968  1.00  0.00    -0.177 NA 
HETATM   38  C   UNL     1     -11.229   8.618  69.142  1.00  0.00     0.321 A  
HETATM   39  C   UNL     1     -10.564   7.559  68.513  1.00  0.00    -0.172 A  
ENDBRANCH  11  30
ENDBRANCH   3   4
ENDBRANCH   2   3
TORSDOF 6
ENDMDL
MODEL      242
REMARK 921   NORMALIZED FREE ENERGY PREDICTED BY IDOCK:   20.69 KCAL/MOL
REMARK 922        TOTAL FREE ENERGY PREDICTED BY IDOCK:   25.94 KCAL/MOL
REMARK 923 INTER-LIGAND FREE ENERGY PREDICTED BY IDOCK:   25.29 KCAL/MOL
REMARK 924 INTRA-LIGAND FREE ENERGY PREDICTED BY IDOCK:    0.65 KCAL/MOL
REMARK 927      BINDING AFFINITY PREDICTED BY RF-SCORE:    0.00 PKD
ROOT
HETATM    1  C   UNL     1      -8.538   3.204  63.663  1.00  0.00    -0.089 C  
HETATM    2  C   UNL     1      -9.200   2.368  64.750  1.00  0.00    -0.139 C  
ENDROOT
BRANCH   2   3
HETATM    3  C   UNL     1      -9.101   2.989  66.151  1.00  0.00    -0.146 C  
BRANCH   3   4
HETATM    4  C   UNL     1      -9.558   4.412  66.173  1.00  0.00    -0.190 A  
HETATM    5  N   UNL     1     -10.805   4.775  65.936  1.00  0.00    -0.219 NA 
HETATM    6  C   UNL     1     -10.817   6.144  65.933  1.00  0.00     1.054 A  
HETATM    7  C   UNL     1      -9.551   6.634  66.214  1.00  0.00    -0.039 A  
HETATM    8  N   UNL     1      -8.767   5.518  66.424  1.00  0.00    -0.120 NA 
HETATM    9  C   UNL     1      -9.260   7.999  66.217  1.00  0.00    -0.237 A  
HETATM   10  C   UNL     1     -11.876   7.033  65.659  1.00  0.00     6.886 A  
HETATM   11  C   UNL     1     -10.308   8.908  66.031  1.00  0.00     0.256 A  
HETATM   12  C   UNL     1     -13.244   6.544  65.286  1.00  0.00    11.030 C  
HETATM   13  C   UNL     1     -11.590   8.417  65.729  1.00  0.00     6.925 A  
BRANCH   8  14
HETATM   14  C   UNL     1      -7.325   5.564  66.671  1.00  0.00    -0.083 C  
BRANCH  14  15
HETATM   15  C   UNL     1      -6.856   6.492  67.780  1.00  0.00    -0.080 A  
HETATM   16  C   UNL     1      -5.874   7.467  67.609  1.00  0.00    -0.034 A  
HETATM   17  C   UNL     1      -7.289   7.458  70.006  1.00  0.00    -0.082 A  
HETATM   18  C   UNL     1      -7.537   6.488  69.011  1.00  0.00    -0.100 A  
HETATM   19  C   UNL     1      -5.603   8.406  68.626  1.00  0.00    -0.037 A  
HETATM   20  C   UNL     1      -6.319   8.458  69.843  1.00  0.00    -0.035 A  
BRANCH  20  21
HETATM   21  C   UNL     1      -6.072   9.564  70.832  1.00  0.00    -0.077 A  
HETATM   22  C   UNL     1      -5.327  10.170  73.116  1.00  0.00     0.279 A  
HETATM   23  C   UNL     1      -5.554   9.224  72.102  1.00  0.00    -0.063 A  
HETATM   24  C   UNL     1      -6.062  11.894  71.657  1.00  0.00     1.708 A  
HETATM   25  C   UNL     1      -6.294  10.945  70.622  1.00  0.00     0.072 A  
HETATM   26  C   UNL     1      -5.602  11.500  72.905  1.00  0.00     1.406 A  
HETATM   27  C   UNL     1      -6.822  11.522  69.364  1.00  0.00    -0.099 C  
HETATM   28  O   UNL     1      -6.114  12.638  69.076  1.00  0.00    -0.074 OA 
HETATM   29  O   UNL     1      -7.782  11.143  68.723  1.00  0.00    -0.121 OA 
ENDBRANCH  20  21
ENDBRANCH  14  15
ENDBRANCH   8  14
BRANCH  11  30
HETATM   30  C   UNL     1     -10.083  10.361  66.122  1.00  0.00    -0.237 A  
HETATM   31  C   UNL     1      -9.034  13.375  67.647  1.00  0.00    -0.202 A  
HETATM   32  C   UNL     1      -9.048  14.664  67.096  1.00  0.00    -0.236 A  
HETATM   33  N   UNL     1      -9.570  10.967  67.181  1.00  0.00    -0.168 NA 
HETATM   34  C   UNL     1     -10.780  11.034  63.774  1.00  0.00    -0.224 C  
HETATM   35  C   UNL     1      -9.498  12.301  66.873  1.00  0.00    -0.217 A  
HETATM   36  C   UNL     1      -9.520  14.878  65.802  1.00  0.00    -0.237 A  
HETATM   37  N   UNL     1     -10.319  11.293  65.119  1.00  0.00    -0.281 NA 
HETATM   38  C   UNL     1      -9.963  12.539  65.586  1.00  0.00    -0.245 A  
HETATM   39  C   UNL     1      -9.989  13.819  65.018  1.00  0.00    -0.211 A  
ENDBRANCH  11  30
ENDBRANCH   3   4
ENDBRANCH   2   3
TORSDOF 6
ENDMDL
MODEL      243
REMARK 921   NORMALIZED FREE ENERGY PREDICTED BY IDOCK:   22.17 KCAL/MOL
REMARK 922        TOTAL FREE ENERGY PREDICTED BY IDOCK:   27.94 KCAL/MOL
REMARK 923 INTER-LIGAND FREE ENERGY PREDICTED BY IDOCK:   27.69 KCAL/MOL
REMARK 924 INTRA-LIGAND FREE ENERGY PREDICTED BY IDOCK:    0.26 KCAL/MOL
REMARK 927      BINDING AFFINITY PREDICTED BY RF-SCORE:    0.00 PKD
ROOT
HETATM    1  C   UNL     1     -13.816   8.364  67.994  1.00  0.00    21.790 C  
HETATM    2  C   UNL     1     -12.860   7.184  68.105  1.00  0.00     8.408 C  
ENDROOT
BRANCH   2   3
HETATM    3  C   UNL     1     -11.485   7.443  67.474  1.00  0.00     0.717 C  
BRANCH   3   4
HETATM    4  C   UNL     1     -11.169   8.901  67.383  1.00  0.00     0.690 A  
HETATM    5  N   UNL     1     -11.492   9.646  66.342  1.00  0.00     1.312 NA 
HETATM    6  C   UNL     1     -10.949  10.883  66.566  1.00  0.00    -0.121 A  
HETATM    7  C   UNL     1     -10.309  10.907  67.796  1.00  0.00    -0.187 A  
HETATM    8  N   UNL     1     -10.508   9.652  68.336  1.00  0.00    -0.214 NA 
HETATM    9  C   UNL     1      -9.615  12.027  68.256  1.00  0.00    -0.204 A  
HETATM   10  C   UNL     1     -10.935  12.022  65.738  1.00  0.00    -0.351 A  
HETATM   11  C   UNL     1      -9.655  13.201  67.494  1.00  0.00    -0.208 A  
HETATM   12  C   UNL     1     -11.558  12.017  64.373  1.00  0.00    -0.411 C  
HETATM   13  C   UNL     1     -10.287  13.176  66.238  1.00  0.00    -0.291 A  
BRANCH   8  14
HETATM   14  C   UNL     1      -9.928   9.205  69.603  1.00  0.00    -0.190 C  
BRANCH  14  15
HETATM   15  C   UNL     1      -9.288   7.827  69.607  1.00  0.00    -0.153 A  
HETATM   16  C   UNL     1      -8.461   7.355  68.588  1.00  0.00    -0.129 A  
HETATM   17  C   UNL     1      -8.664   5.826  70.905  1.00  0.00    -0.135 A  
HETATM   18  C   UNL     1      -9.399   7.022  70.756  1.00  0.00    -0.161 A  
HETATM   19  C   UNL     1      -7.764   6.137  68.729  1.00  0.00    -0.096 A  
HETATM   20  C   UNL     1      -7.812   5.347  69.899  1.00  0.00    -0.081 A  
BRANCH  20  21
HETATM   21  C   UNL     1      -6.944   4.127  70.039  1.00  0.00    -0.041 A  
HETATM   22  C   UNL     1      -5.176   2.984  71.345  1.00  0.00    -0.004 A  
HETATM   23  C   UNL     1      -6.063   4.055  71.140  1.00  0.00    -0.014 A  
HETATM   24  C   UNL     1      -6.018   1.930  69.390  1.00  0.00    -0.024 A  
HETATM   25  C   UNL     1      -6.921   3.007  69.175  1.00  0.00    -0.041 A  
HETATM   26  C   UNL     1      -5.135   1.933  70.460  1.00  0.00    -0.004 A  
HETATM   27  C   UNL     1      -7.769   2.870  67.967  1.00  0.00    -0.056 C  
HETATM   28  O   UNL     1      -8.244   1.605  67.922  1.00  0.00    -0.058 OA 
HETATM   29  O   UNL     1      -7.953   3.696  67.096  1.00  0.00    -0.086 OA 
ENDBRANCH  20  21
ENDBRANCH  14  15
ENDBRANCH   8  14
BRANCH  11  30
HETATM   30  C   UNL     1      -9.026  14.444  67.972  1.00  0.00    -0.183 A  
HETATM   31  C   UNL     1      -6.445  16.433  69.350  1.00  0.00    -0.206 A  
HETATM   32  C   UNL     1      -6.448  17.820  69.550  1.00  0.00    -0.185 A  
HETATM   33  N   UNL     1      -7.807  14.509  68.484  1.00  0.00    -0.129 NA 
HETATM   34  C   UNL     1     -10.847  16.097  67.338  1.00  0.00    -0.265 C  
HETATM   35  C   UNL     1      -7.578  15.826  68.785  1.00  0.00    -0.173 A  
HETATM   36  C   UNL     1      -7.558  18.586  69.199  1.00  0.00    -0.119 A  
HETATM   37  N   UNL     1      -9.578  15.718  67.917  1.00  0.00    -0.213 NA 
HETATM   38  C   UNL     1      -8.671  16.611  68.444  1.00  0.00    -0.225 A  
HETATM   39  C   UNL     1      -8.696  17.998  68.638  1.00  0.00    -0.272 A  
ENDBRANCH  11  30
ENDBRANCH   3   4
ENDBRANCH   2   3
TORSDOF 6
ENDMDL
MODEL      244
REMARK 921   NORMALIZED FREE ENERGY PREDICTED BY IDOCK:   23.45 KCAL/MOL
REMARK 922        TOTAL FREE ENERGY PREDICTED BY IDOCK:   29.68 KCAL/MOL
REMARK 923 INTER-LIGAND FREE ENERGY PREDICTED BY IDOCK:   26.84 KCAL/MOL
REMARK 924 INTRA-LIGAND FREE ENERGY PREDICTED BY IDOCK:    2.84 KCAL/MOL
REMARK 927      BINDING AFFINITY PREDICTED BY RF-SCORE:    0.00 PKD
ROOT
HETATM    1  C   UNL     1     -13.907  11.617  63.420  1.00  0.00     1.938 C  
HETATM    2  C   UNL     1     -13.557  10.186  63.033  1.00  0.00     9.141 C  
ENDROOT
BRANCH   2   3
HETATM    3  C   UNL     1     -12.195  10.051  62.338  1.00  0.00     6.798 C  
BRANCH   3   4
HETATM    4  C   UNL     1     -11.056  10.141  63.301  1.00  0.00     3.165 A  
HETATM    5  N   UNL     1      -9.818   9.801  62.991  1.00  0.00     0.477 NA 
HETATM    6  C   UNL     1      -9.086   9.909  64.143  1.00  0.00    -0.252 A  
HETATM    7  C   UNL     1      -9.889  10.365  65.178  1.00  0.00    -0.313 A  
HETATM    8  N   UNL     1     -11.132  10.566  64.614  1.00  0.00     0.571 NA 
HETATM    9  C   UNL     1      -9.415  10.511  66.483  1.00  0.00    -0.200 A  
HETATM   10  C   UNL     1      -7.733   9.596  64.380  1.00  0.00    -0.128 A  
HETATM   11  C   UNL     1      -8.055  10.289  66.732  1.00  0.00    -0.121 A  
HETATM   12  C   UNL     1      -6.849   9.039  63.305  1.00  0.00    -0.089 C  
HETATM   13  C   UNL     1      -7.242   9.810  65.690  1.00  0.00    -0.106 A  
BRANCH   8  14
HETATM   14  C   UNL     1     -12.318  10.971  65.370  1.00  0.00     2.962 C  
BRANCH  14  15
HETATM   15  C   UNL     1     -12.102  11.988  66.478  1.00  0.00     0.131 A  
HETATM   16  C   UNL     1     -11.103  11.879  67.444  1.00  0.00    -0.336 A  
HETATM   17  C   UNL     1     -12.547  14.256  67.336  1.00  0.00     0.356 A  
HETATM   18  C   UNL     1     -12.840  13.187  66.462  1.00  0.00     0.724 A  
HETATM   19  C   UNL     1     -10.847  12.937  68.342  1.00  0.00    -0.276 A  
HETATM   20  C   UNL     1     -11.532  14.172  68.301  1.00  0.00    -0.335 A  
BRANCH  20  21
HETATM   21  C   UNL     1     -11.124  15.307  69.198  1.00  0.00    -0.266 A  
HETATM   22  C   UNL     1     -11.327  16.354  71.435  1.00  0.00    -0.151 A  
HETATM   23  C   UNL     1     -11.609  15.320  70.524  1.00  0.00    -0.340 A  
HETATM   24  C   UNL     1      -9.997  17.427  69.785  1.00  0.00     0.402 A  
HETATM   25  C   UNL     1     -10.274  16.386  68.857  1.00  0.00    -0.258 A  
HETATM   26  C   UNL     1     -10.542  17.419  71.061  1.00  0.00     1.924 A  
HETATM   27  C   UNL     1      -9.648  16.563  67.525  1.00  0.00    -0.231 C  
HETATM   28  O   UNL     1      -8.364  16.948  67.706  1.00  0.00    -0.189 OA 
HETATM   29  O   UNL     1     -10.185  16.479  66.439  1.00  0.00    -0.292 OA 
ENDBRANCH  20  21
ENDBRANCH  14  15
ENDBRANCH   8  14
BRANCH  11  30
HETATM   30  C   UNL     1      -7.475  10.522  68.066  1.00  0.00    -0.090 A  
HETATM   31  C   UNL     1      -6.205  12.462  70.738  1.00  0.00     0.558 A  
HETATM   32  C   UNL     1      -5.770  12.011  71.991  1.00  0.00     1.102 A  
HETATM   33  N   UNL     1      -7.163  11.719  68.539  1.00  0.00    -0.089 NA 
HETATM   34  C   UNL     1      -7.511   8.143  68.954  1.00  0.00    -0.089 C  
HETATM   35  C   UNL     1      -6.677  11.525  69.806  1.00  0.00    -0.047 A  
HETATM   36  C   UNL     1      -5.799  10.653  72.307  1.00  0.00     0.965 A  
HETATM   37  N   UNL     1      -7.219   9.556  69.031  1.00  0.00    -0.070 NA 
HETATM   38  C   UNL     1      -6.697  10.178  70.144  1.00  0.00    -0.138 A  
HETATM   39  C   UNL     1      -6.263   9.706  71.389  1.00  0.00     0.036 A  
ENDBRANCH  11  30
ENDBRANCH   3   4
ENDBRANCH   2   3
TORSDOF 6
ENDMDL
MODEL      245
REMARK 921   NORMALIZED FREE ENERGY PREDICTED BY IDOCK:   23.97 KCAL/MOL
REMARK 922        TOTAL FREE ENERGY PREDICTED BY IDOCK:   30.38 KCAL/MOL
REMARK 923 INTER-LIGAND FREE ENERGY PREDICTED BY IDOCK:   29.35 KCAL/MOL
REMARK 924 INTRA-LIGAND FREE ENERGY PREDICTED BY IDOCK:    1.03 KCAL/MOL
REMARK 927      BINDING AFFINITY PREDICTED BY RF-SCORE:    0.00 PKD
ROOT
HETATM    1  C   UNL     1      -7.041  20.697  67.396  1.00  0.00    -0.399 C  
HETATM    2  C   UNL     1      -6.646  20.440  65.948  1.00  0.00    -0.267 C  
ENDROOT
BRANCH   2   3
HETATM    3  C   UNL     1      -6.981  19.023  65.459  1.00  0.00    -0.233 C  
BRANCH   3   4
HETATM    4  C   UNL     1      -8.107  18.411  66.227  1.00  0.00    -0.221 A  
HETATM    5  N   UNL     1      -9.196  19.076  66.570  1.00  0.00    -0.329 NA 
HETATM    6  C   UNL     1      -9.938  18.231  67.349  1.00  0.00    -0.334 A  
HETATM    7  C   UNL     1      -9.307  17.001  67.455  1.00  0.00    -0.233 A  
HETATM    8  N   UNL     1      -8.167  17.108  66.685  1.00  0.00    -0.233 NA 
HETATM    9  C   UNL     1      -9.814  15.965  68.241  1.00  0.00    -0.217 A  
HETATM   10  C   UNL     1     -11.149  18.467  68.030  1.00  0.00     0.206 A  
HETATM   11  C   UNL     1     -11.057  16.140  68.861  1.00  0.00    -0.347 A  
HETATM   12  C   UNL     1     -11.830  19.803  67.995  1.00  0.00     2.283 C  
HETATM   13  C   UNL     1     -11.693  17.392  68.771  1.00  0.00     1.547 A  
BRANCH   8  14
HETATM   14  C   UNL     1      -7.151  16.060  66.576  1.00  0.00     0.301 C  
BRANCH  14  15
HETATM   15  C   UNL     1      -7.630  14.697  66.107  1.00  0.00     2.620 A  
HETATM   16  C   UNL     1      -8.787  14.500  65.353  1.00  0.00     1.729 A  
HETATM   17  C   UNL     1      -7.092  12.323  65.717  1.00  0.00     2.435 A  
HETATM   18  C   UNL     1      -6.804  13.574  66.303  1.00  0.00     3.567 A  
HETATM   19  C   UNL     1      -9.088  13.235  64.807  1.00  0.00     1.662 A  
HETATM   20  C   UNL     1      -8.241  12.112  64.939  1.00  0.00     2.162 A  
BRANCH  20  21
HETATM   21  C   UNL     1      -8.552  10.827  64.224  1.00  0.00    -0.034 A  
HETATM   22  C   UNL     1     -10.078   9.637  62.676  1.00  0.00     1.561 A  
HETATM   23  C   UNL     1      -9.669  10.795  63.360  1.00  0.00    -0.394 A  
HETATM   24  C   UNL     1      -8.246   8.451  63.615  1.00  0.00    -0.105 A  
HETATM   25  C   UNL     1      -7.823   9.617  64.311  1.00  0.00    -0.130 A  
HETATM   26  C   UNL     1      -9.383   8.459  62.820  1.00  0.00     1.493 A  
HETATM   27  C   UNL     1      -6.614   9.433  65.147  1.00  0.00    -0.079 C  
HETATM   28  O   UNL     1      -5.702   8.736  64.431  1.00  0.00    -0.062 OA 
HETATM   29  O   UNL     1      -6.463   9.752  66.310  1.00  0.00    -0.068 OA 
ENDBRANCH  20  21
ENDBRANCH  14  15
ENDBRANCH   8  14
BRANCH  11  30
HETATM   30  C   UNL     1     -11.692  15.050  69.622  1.00  0.00    -0.321 A  
HETATM   31  C   UNL     1     -14.374  13.038  70.750  1.00  0.00     3.373 A  
HETATM   32  C   UNL     1     -14.309  11.918  71.590  1.00  0.00     2.234 A  
HETATM   33  N   UNL     1     -12.992  14.801  69.616  1.00  0.00     0.210 NA 
HETATM   34  C   UNL     1      -9.613  13.960  70.593  1.00  0.00     3.891 C  
HETATM   35  C   UNL     1     -13.185  13.706  70.418  1.00  0.00     0.350 A  
HETATM   36  C   UNL     1     -13.086  11.476  72.092  1.00  0.00    -0.286 A  
HETATM   37  N   UNL     1     -11.039  14.105  70.404  1.00  0.00     0.122 NA 
HETATM   38  C   UNL     1     -11.979  13.247  70.930  1.00  0.00    -0.000 A  
HETATM   39  C   UNL     1     -11.893  12.131  71.773  1.00  0.00     1.902 A  
ENDBRANCH  11  30
ENDBRANCH   3   4
ENDBRANCH   2   3
TORSDOF 6
ENDMDL
MODEL      246
REMARK 921   NORMALIZED FREE ENERGY PREDICTED BY IDOCK:   24.45 KCAL/MOL
REMARK 922        TOTAL FREE ENERGY PREDICTED BY IDOCK:   31.02 KCAL/MOL
REMARK 923 INTER-LIGAND FREE ENERGY PREDICTED BY IDOCK:   30.89 KCAL/MOL
REMARK 924 INTRA-LIGAND FREE ENERGY PREDICTED BY IDOCK:    0.13 KCAL/MOL
REMARK 927      BINDING AFFINITY PREDICTED BY RF-SCORE:    0.00 PKD
ROOT
HETATM    1  C   UNL     1      -5.912  10.557  73.842  1.00  0.00     1.346 C  
HETATM    2  C   UNL     1      -7.425  10.581  73.669  1.00  0.00     6.870 C  
ENDROOT
BRANCH   2   3
HETATM    3  C   UNL     1      -7.906   9.941  72.359  1.00  0.00     3.287 C  
BRANCH   3   4
HETATM    4  C   UNL     1      -8.012  10.936  71.249  1.00  0.00     5.179 A  
HETATM    5  N   UNL     1      -7.034  11.761  70.921  1.00  0.00     1.725 NA 
HETATM    6  C   UNL     1      -7.531  12.586  69.949  1.00  0.00     1.322 A  
HETATM    7  C   UNL     1      -8.837  12.233  69.645  1.00  0.00     1.945 A  
HETATM    8  N   UNL     1      -9.114  11.139  70.439  1.00  0.00     2.110 NA 
HETATM    9  C   UNL     1      -9.611  12.945  68.727  1.00  0.00     0.089 A  
HETATM   10  C   UNL     1      -6.927  13.686  69.308  1.00  0.00    -0.025 A  
HETATM   11  C   UNL     1      -9.011  13.990  68.013  1.00  0.00    -0.182 A  
HETATM   12  C   UNL     1      -5.541  14.141  69.656  1.00  0.00    -0.097 C  
HETATM   13  C   UNL     1      -7.693  14.363  68.331  1.00  0.00    -0.132 A  
BRANCH   8  14
HETATM   14  C   UNL     1     -10.421  10.484  70.505  1.00  0.00     0.352 C  
BRANCH  14  15
HETATM   15  C   UNL     1     -10.416   8.967  70.589  1.00  0.00    -0.271 A  
HETATM   16  C   UNL     1      -9.690   8.146  69.726  1.00  0.00    -0.173 A  
HETATM   17  C   UNL     1     -10.909   6.955  71.926  1.00  0.00    -0.258 A  
HETATM   18  C   UNL     1     -11.049   8.337  71.677  1.00  0.00    -0.326 A  
HETATM   19  C   UNL     1      -9.592   6.758  69.959  1.00  0.00    -0.160 A  
HETATM   20  C   UNL     1     -10.167   6.118  71.079  1.00  0.00    -0.244 A  
BRANCH  20  21
HETATM   21  C   UNL     1      -9.917   4.659  71.342  1.00  0.00    -0.267 A  
HETATM   22  C   UNL     1      -9.514   2.902  73.042  1.00  0.00    -0.130 A  
HETATM   23  C   UNL     1      -9.792   4.232  72.683  1.00  0.00    -0.201 A  
HETATM   24  C   UNL     1      -9.520   2.294  70.746  1.00  0.00    -0.203 A  
HETATM   25  C   UNL     1      -9.803   3.636  70.371  1.00  0.00    -0.096 A  
HETATM   26  C   UNL     1      -9.354   1.937  72.076  1.00  0.00    -0.155 A  
HETATM   27  C   UNL     1      -9.911   3.860  68.911  1.00  0.00     0.231 C  
HETATM   28  O   UNL     1     -10.660   2.865  68.382  1.00  0.00     2.161 OA 
HETATM   29  O   UNL     1      -9.361   4.719  68.251  1.00  0.00    -0.121 OA 
ENDBRANCH  20  21
ENDBRANCH  14  15
ENDBRANCH   8  14
BRANCH  11  30
HETATM   30  C   UNL     1      -9.744  14.715  66.961  1.00  0.00    -0.243 A  
HETATM   31  C   UNL     1     -10.981  17.563  65.266  1.00  0.00     0.232 A  
HETATM   32  C   UNL     1     -11.717  17.597  64.074  1.00  0.00     5.044 A  
HETATM   33  N   UNL     1      -9.853  16.033  66.907  1.00  0.00    -0.239 NA 
HETATM   34  C   UNL     1     -10.404  12.751  65.491  1.00  0.00    -0.284 C  
HETATM   35  C   UNL     1     -10.581  16.321  65.781  1.00  0.00    -0.324 A  
HETATM   36  C   UNL     1     -12.052  16.418  63.412  1.00  0.00     3.576 A  
HETATM   37  N   UNL     1     -10.376  14.148  65.861  1.00  0.00    -0.304 NA 
HETATM   38  C   UNL     1     -10.927  15.159  65.103  1.00  0.00    -0.417 A  
HETATM   39  C   UNL     1     -11.664  15.171  63.913  1.00  0.00     0.271 A  
ENDBRANCH  11  30
ENDBRANCH   3   4
ENDBRANCH   2   3
TORSDOF 6
ENDMDL
MODEL      247
REMARK 921   NORMALIZED FREE ENERGY PREDICTED BY IDOCK:   27.75 KCAL/MOL
REMARK 922        TOTAL FREE ENERGY PREDICTED BY IDOCK:   35.48 KCAL/MOL
REMARK 923 INTER-LIGAND FREE ENERGY PREDICTED BY IDOCK:   22.82 KCAL/MOL
REMARK 924 INTRA-LIGAND FREE ENERGY PREDICTED BY IDOCK:   12.66 KCAL/MOL
REMARK 927      BINDING AFFINITY PREDICTED BY RF-SCORE:    0.00 PKD
ROOT
HETATM    1  C   UNL     1      -7.735  17.375  66.423  1.00  0.00    -0.343 C  
HETATM    2  C   UNL     1      -8.960  17.678  67.274  1.00  0.00    -0.242 C  
ENDROOT
BRANCH   2   3
HETATM    3  C   UNL     1      -8.724  17.499  68.781  1.00  0.00    -0.214 C  
BRANCH   3   4
HETATM    4  C   UNL     1      -8.572  16.062  69.163  1.00  0.00    -0.247 A  
HETATM    5  N   UNL     1      -8.194  15.670  70.366  1.00  0.00     0.988 NA 
HETATM    6  C   UNL     1      -8.062  14.308  70.306  1.00  0.00     1.547 A  
HETATM    7  C   UNL     1      -8.407  13.850  69.044  1.00  0.00     0.188 A  
HETATM    8  N   UNL     1      -8.789  14.973  68.339  1.00  0.00    -0.171 NA 
HETATM    9  C   UNL     1      -8.308  12.505  68.684  1.00  0.00     0.021 A  
HETATM   10  C   UNL     1      -7.613  13.405  71.290  1.00  0.00     5.772 A  
HETATM   11  C   UNL     1      -7.946  11.573  69.664  1.00  0.00     0.726 A  
HETATM   12  C   UNL     1      -7.168  13.868  72.646  1.00  0.00     5.146 C  
HETATM   13  C   UNL     1      -7.579  12.035  70.941  1.00  0.00     5.421 A  
BRANCH   8  14
HETATM   14  C   UNL     1      -9.158  14.965  66.923  1.00  0.00    -0.250 C  
BRANCH  14  15
HETATM   15  C   UNL     1      -9.115  13.620  66.218  1.00  0.00     0.003 A  
HETATM   16  C   UNL     1      -8.555  13.425  64.957  1.00  0.00     3.240 A  
HETATM   17  C   UNL     1      -9.319  11.170  66.398  1.00  0.00    -0.207 A  
HETATM   18  C   UNL     1      -9.522  12.467  66.916  1.00  0.00    -0.219 A  
HETATM   19  C   UNL     1      -8.395  12.126  64.429  1.00  0.00     2.311 A  
HETATM   20  C   UNL     1      -8.738  10.954  65.139  1.00  0.00    -0.130 A  
BRANCH  20  21
HETATM   21  C   UNL     1      -8.422   9.596  64.577  1.00  0.00    -0.186 A  
HETATM   22  C   UNL     1      -8.919   7.913  62.827  1.00  0.00     0.786 A  
HETATM   23  C   UNL     1      -9.103   9.178  63.412  1.00  0.00     0.160 A  
HETATM   24  C   UNL     1      -7.306   7.392  64.492  1.00  0.00    -0.087 A  
HETATM   25  C   UNL     1      -7.483   8.670  65.091  1.00  0.00    -0.090 A  
HETATM   26  C   UNL     1      -8.040   7.011  63.378  1.00  0.00     0.000 A  
HETATM   27  C   UNL     1      -6.654   8.907  66.295  1.00  0.00    -0.066 C  
HETATM   28  O   UNL     1      -5.397   8.478  66.038  1.00  0.00    -0.030 OA 
HETATM   29  O   UNL     1      -7.021   9.324  67.376  1.00  0.00    -0.076 OA 
ENDBRANCH  20  21
ENDBRANCH  14  15
ENDBRANCH   8  14
BRANCH  11  30
HETATM   30  C   UNL     1      -7.921  10.129  69.373  1.00  0.00    -0.154 A  
HETATM   31  C   UNL     1      -9.149   7.077  68.073  1.00  0.00    -0.127 A  
HETATM   32  C   UNL     1      -8.516   5.827  68.082  1.00  0.00    -0.109 A  
HETATM   33  N   UNL     1      -8.891   9.482  68.746  1.00  0.00    -0.130 NA 
HETATM   34  C   UNL     1      -5.599   9.574  70.242  1.00  0.00    -0.033 C  
HETATM   35  C   UNL     1      -8.490   8.175  68.646  1.00  0.00    -0.127 A  
HETATM   36  C   UNL     1      -7.255   5.673  68.654  1.00  0.00    -0.078 A  
HETATM   37  N   UNL     1      -6.881   9.252  69.656  1.00  0.00    -0.053 NA 
HETATM   38  C   UNL     1      -7.233   7.997  69.210  1.00  0.00    -0.076 A  
HETATM   39  C   UNL     1      -6.585   6.756  69.232  1.00  0.00    -0.048 A  
ENDBRANCH  11  30
ENDBRANCH   3   4
ENDBRANCH   2   3
TORSDOF 6
ENDMDL
MODEL      248
REMARK 921   NORMALIZED FREE ENERGY PREDICTED BY IDOCK:   28.53 KCAL/MOL
REMARK 922        TOTAL FREE ENERGY PREDICTED BY IDOCK:   36.54 KCAL/MOL
REMARK 923 INTER-LIGAND FREE ENERGY PREDICTED BY IDOCK:   36.48 KCAL/MOL
REMARK 924 INTRA-LIGAND FREE ENERGY PREDICTED BY IDOCK:    0.06 KCAL/MOL
REMARK 927      BINDING AFFINITY PREDICTED BY RF-SCORE:    0.00 PKD
ROOT
HETATM    1  C   UNL     1      -7.610  19.593  70.276  1.00  0.00     0.750 C  
HETATM    2  C   UNL     1      -8.056  18.458  71.188  1.00  0.00     6.519 C  
ENDROOT
BRANCH   2   3
HETATM    3  C   UNL     1      -9.451  18.667  71.794  1.00  0.00     7.053 C  
BRANCH   3   4
HETATM    4  C   UNL     1     -10.287  17.429  71.730  1.00  0.00     4.295 A  
HETATM    5  N   UNL     1     -11.578  17.413  72.011  1.00  0.00     1.154 NA 
HETATM    6  C   UNL     1     -11.971  16.102  71.952  1.00  0.00    -0.507 A  
HETATM    7  C   UNL     1     -10.901  15.299  71.588  1.00  0.00     0.154 A  
HETATM    8  N   UNL     1      -9.845  16.164  71.390  1.00  0.00     2.742 NA 
HETATM    9  C   UNL     1     -11.003  13.909  71.509  1.00  0.00     2.690 A  
HETATM   10  C   UNL     1     -13.225  15.527  72.237  1.00  0.00    -0.539 A  
HETATM   11  C   UNL     1     -12.256  13.316  71.704  1.00  0.00     0.209 A  
HETATM   12  C   UNL     1     -14.389  16.353  72.698  1.00  0.00     0.867 C  
HETATM   13  C   UNL     1     -13.339  14.125  72.091  1.00  0.00    -0.527 A  
BRANCH   8  14
HETATM   14  C   UNL     1      -8.482  15.735  71.071  1.00  0.00     3.534 C  
BRANCH  14  15
HETATM   15  C   UNL     1      -8.307  14.929  69.795  1.00  0.00     0.165 A  
HETATM   16  C   UNL     1      -7.522  13.780  69.707  1.00  0.00     0.586 A  
HETATM   17  C   UNL     1      -9.122  14.426  67.523  1.00  0.00    -0.195 A  
HETATM   18  C   UNL     1      -9.084  15.252  68.667  1.00  0.00    -0.193 A  
HETATM   19  C   UNL     1      -7.533  12.984  68.543  1.00  0.00    -0.123 A  
HETATM   20  C   UNL     1      -8.354  13.256  67.426  1.00  0.00    -0.193 A  
BRANCH  20  21
HETATM   21  C   UNL     1      -8.419  12.297  66.269  1.00  0.00     0.199 A  
HETATM   22  C   UNL     1      -7.746  10.088  65.372  1.00  0.00    -0.137 A  
HETATM   23  C   UNL     1      -7.786  11.042  66.404  1.00  0.00    -0.146 A  
HETATM   24  C   UNL     1      -9.024  11.541  63.995  1.00  0.00     0.278 A  
HETATM   25  C   UNL     1      -9.072  12.513  65.033  1.00  0.00     0.755 A  
HETATM   26  C   UNL     1      -8.343  10.344  64.160  1.00  0.00    -0.139 A  
HETATM   27  C   UNL     1      -9.806  13.752  64.684  1.00  0.00     0.206 C  
HETATM   28  O   UNL     1     -10.956  13.406  64.064  1.00  0.00    -0.358 OA 
HETATM   29  O   UNL     1      -9.430  14.899  64.828  1.00  0.00     0.346 OA 
ENDBRANCH  20  21
ENDBRANCH  14  15
ENDBRANCH   8  14
BRANCH  11  30
HETATM   30  C   UNL     1     -12.448  11.865  71.537  1.00  0.00    -0.080 A  
HETATM   31  C   UNL     1     -12.520   8.480  72.560  1.00  0.00    -0.358 A  
HETATM   32  C   UNL     1     -12.895   7.363  71.800  1.00  0.00    -0.365 A  
HETATM   33  N   UNL     1     -12.258  10.975  72.499  1.00  0.00     1.635 NA 
HETATM   34  C   UNL     1     -13.316  11.837  69.150  1.00  0.00     3.401 C  
HETATM   35  C   UNL     1     -12.560   9.750  71.965  1.00  0.00    -0.347 A  
HETATM   36  C   UNL     1     -13.296   7.510  70.473  1.00  0.00     0.662 A  
HETATM   37  N   UNL     1     -12.898  11.223  70.389  1.00  0.00    -0.109 NA 
HETATM   38  C   UNL     1     -12.962   9.870  70.641  1.00  0.00    -0.120 A  
HETATM   39  C   UNL     1     -13.338   8.768  69.863  1.00  0.00     2.711 A  
ENDBRANCH  11  30
ENDBRANCH   3   4
ENDBRANCH   2   3
TORSDOF 6
ENDMDL
MODEL      249
REMARK 921   NORMALIZED FREE ENERGY PREDICTED BY IDOCK:   30.27 KCAL/MOL
REMARK 922        TOTAL FREE ENERGY PREDICTED BY IDOCK:   38.88 KCAL/MOL
REMARK 923 INTER-LIGAND FREE ENERGY PREDICTED BY IDOCK:   37.75 KCAL/MOL
REMARK 924 INTRA-LIGAND FREE ENERGY PREDICTED BY IDOCK:    1.13 KCAL/MOL
REMARK 927      BINDING AFFINITY PREDICTED BY RF-SCORE:    0.00 PKD
ROOT
HETATM    1  C   UNL     1      -9.839  20.896  72.190  1.00  0.00     3.551 C  
HETATM    2  C   UNL     1      -8.831  20.608  71.085  1.00  0.00     2.324 C  
ENDROOT
BRANCH   2   3
HETATM    3  C   UNL     1      -9.185  21.262  69.743  1.00  0.00     3.571 C  
BRANCH   3   4
HETATM    4  C   UNL     1      -9.329  20.259  68.644  1.00  0.00     0.187 A  
HETATM    5  N   UNL     1      -9.235  20.569  67.364  1.00  0.00    -0.377 NA 
HETATM    6  C   UNL     1      -9.529  19.429  66.666  1.00  0.00    -0.350 A  
HETATM    7  C   UNL     1      -9.772  18.381  67.542  1.00  0.00    -0.297 A  
HETATM    8  N   UNL     1      -9.582  18.909  68.803  1.00  0.00    -0.382 NA 
HETATM    9  C   UNL     1     -10.154  17.113  67.103  1.00  0.00    -0.295 A  
HETATM   10  C   UNL     1      -9.643  19.231  65.275  1.00  0.00     1.367 A  
HETATM   11  C   UNL     1     -10.194  16.863  65.726  1.00  0.00    -0.287 A  
HETATM   12  C   UNL     1      -9.454  20.352  64.298  1.00  0.00     4.168 C  
HETATM   13  C   UNL     1      -9.966  17.926  64.834  1.00  0.00     2.442 A  
BRANCH   8  14
HETATM   14  C   UNL     1      -9.815  18.169  70.044  1.00  0.00     1.158 C  
BRANCH  14  15
HETATM   15  C   UNL     1      -8.871  17.013  70.331  1.00  0.00     3.221 A  
HETATM   16  C   UNL     1      -8.960  16.206  71.465  1.00  0.00     6.220 A  
HETATM   17  C   UNL     1      -7.182  15.441  69.464  1.00  0.00    -0.202 A  
HETATM   18  C   UNL     1      -7.944  16.623  69.347  1.00  0.00     0.077 A  
HETATM   19  C   UNL     1      -8.163  15.048  71.592  1.00  0.00     4.475 A  
HETATM   20  C   UNL     1      -7.274  14.606  70.588  1.00  0.00     0.758 A  
BRANCH  20  21
HETATM   21  C   UNL     1      -6.551  13.294  70.726  1.00  0.00     0.979 A  
HETATM   22  C   UNL     1      -5.631  11.306  69.568  1.00  0.00    -0.057 A  
HETATM   23  C   UNL     1      -6.262  12.562  69.553  1.00  0.00    -0.120 A  
HETATM   24  C   UNL     1      -5.467  11.431  71.935  1.00  0.00     0.451 A  
HETATM   25  C   UNL     1      -6.103  12.703  71.931  1.00  0.00     1.914 A  
HETATM   26  C   UNL     1      -5.254  10.728  70.758  1.00  0.00    -0.091 A  
HETATM   27  C   UNL     1      -6.291  13.303  73.273  1.00  0.00     2.618 C  
HETATM   28  O   UNL     1      -5.144  13.152  73.972  1.00  0.00    -0.378 OA 
HETATM   29  O   UNL     1      -7.312  13.772  73.736  1.00  0.00     3.075 OA 
ENDBRANCH  20  21
ENDBRANCH  14  15
ENDBRANCH   8  14
BRANCH  11  30
HETATM   30  C   UNL     1     -10.494  15.519  65.202  1.00  0.00    -0.403 A  
HETATM   31  C   UNL     1     -11.995  13.162  63.033  1.00  0.00     0.030 A  
HETATM   32  C   UNL     1     -11.817  11.772  63.025  1.00  0.00    -0.003 A  
HETATM   33  N   UNL     1     -11.302  15.285  64.180  1.00  0.00    -0.061 NA 
HETATM   34  C   UNL     1      -8.949  14.147  66.679  1.00  0.00    -0.169 C  
HETATM   35  C   UNL     1     -11.303  13.929  63.983  1.00  0.00    -0.086 A  
HETATM   36  C   UNL     1     -10.971  11.159  63.948  1.00  0.00    -0.271 A  
HETATM   37  N   UNL     1      -9.950  14.322  65.651  1.00  0.00    -0.332 NA 
HETATM   38  C   UNL     1     -10.466  13.295  64.892  1.00  0.00    -0.371 A  
HETATM   39  C   UNL     1     -10.276  11.907  64.903  1.00  0.00    -0.310 A  
ENDBRANCH  11  30
ENDBRANCH   3   4
ENDBRANCH   2   3
TORSDOF 6
ENDMDL
MODEL      250
REMARK 921   NORMALIZED FREE ENERGY PREDICTED BY IDOCK:   31.65 KCAL/MOL
REMARK 922        TOTAL FREE ENERGY PREDICTED BY IDOCK:   40.75 KCAL/MOL
REMARK 923 INTER-LIGAND FREE ENERGY PREDICTED BY IDOCK:   41.29 KCAL/MOL
REMARK 924 INTRA-LIGAND FREE ENERGY PREDICTED BY IDOCK:   -0.55 KCAL/MOL
REMARK 927      BINDING AFFINITY PREDICTED BY RF-SCORE:    0.00 PKD
ROOT
HETATM    1  C   UNL     1     -11.845  18.419  74.108  1.00  0.00     2.003 C  
HETATM    2  C   UNL     1     -10.487  18.873  73.589  1.00  0.00     3.462 C  
ENDROOT
BRANCH   2   3
HETATM    3  C   UNL     1      -9.536  17.715  73.256  1.00  0.00    11.498 C  
BRANCH   3   4
HETATM    4  C   UNL     1      -9.594  17.333  71.812  1.00  0.00     8.322 A  
HETATM    5  N   UNL     1      -8.719  17.754  70.917  1.00  0.00     5.733 NA 
HETATM    6  C   UNL     1      -9.155  17.296  69.703  1.00  0.00     0.787 A  
HETATM    7  C   UNL     1     -10.306  16.540  69.863  1.00  0.00    -0.083 A  
HETATM    8  N   UNL     1     -10.544  16.520  71.222  1.00  0.00     1.071 NA 
HETATM    9  C   UNL     1     -11.001  15.996  68.781  1.00  0.00    -0.320 A  
HETATM   10  C   UNL     1      -8.629  17.522  68.415  1.00  0.00    -0.275 A  
HETATM   11  C   UNL     1     -10.457  16.133  67.498  1.00  0.00    -0.302 A  
HETATM   12  C   UNL     1      -7.425  18.388  68.193  1.00  0.00    -0.279 C  
HETATM   13  C   UNL     1      -9.300  16.914  67.328  1.00  0.00    -0.238 A  
BRANCH   8  14
HETATM   14  C   UNL     1     -11.717  15.899  71.839  1.00  0.00    -0.499 C  
BRANCH  14  15
HETATM   15  C   UNL     1     -11.790  14.382  71.781  1.00  0.00    -0.085 A  
HETATM   16  C   UNL     1     -12.190  13.585  72.852  1.00  0.00     1.103 A  
HETATM   17  C   UNL     1     -11.844  12.354  70.380  1.00  0.00    -0.249 A  
HETATM   18  C   UNL     1     -11.591  13.733  70.548  1.00  0.00    -0.087 A  
HETATM   19  C   UNL     1     -12.398  12.200  72.685  1.00  0.00     2.714 A  
HETATM   20  C   UNL     1     -12.266  11.541  71.442  1.00  0.00    -0.086 A  
BRANCH  20  21
HETATM   21  C   UNL     1     -12.630  10.089  71.301  1.00  0.00    -0.495 A  
HETATM   22  C   UNL     1     -14.379   8.356  71.582  1.00  0.00    -0.536 A  
HETATM   23  C   UNL     1     -13.944   9.692  71.634  1.00  0.00    -0.135 A  
HETATM   24  C   UNL     1     -12.234   7.702  70.798  1.00  0.00    -0.109 A  
HETATM   25  C   UNL     1     -11.784   9.050  70.845  1.00  0.00    -0.327 A  
HETATM   26  C   UNL     1     -13.521   7.357  71.187  1.00  0.00    -0.244 A  
HETATM   27  C   UNL     1     -10.374   9.245  70.434  1.00  0.00    -0.240 C  
HETATM   28  O   UNL     1     -10.154   8.525  69.311  1.00  0.00    -0.191 OA 
HETATM   29  O   UNL     1      -9.509   9.858  71.028  1.00  0.00     0.036 OA 
ENDBRANCH  20  21
ENDBRANCH  14  15
ENDBRANCH   8  14
BRANCH  11  30
HETATM   30  C   UNL     1     -11.090  15.498  66.329  1.00  0.00    -0.177 A  
HETATM   31  C   UNL     1     -12.151  12.800  64.302  1.00  0.00    -0.497 A  
HETATM   32  C   UNL     1     -12.878  12.863  63.106  1.00  0.00     0.299 A  
HETATM   33  N   UNL     1     -11.142  14.190  66.133  1.00  0.00    -0.308 NA 
HETATM   34  C   UNL     1     -12.017  17.568  65.186  1.00  0.00     3.595 C  
HETATM   35  C   UNL     1     -11.824  13.995  64.961  1.00  0.00    -0.378 A  
HETATM   36  C   UNL     1     -13.267  14.091  62.574  1.00  0.00     4.119 A  
HETATM   37  N   UNL     1     -11.758  16.151  65.300  1.00  0.00     0.400 NA 
HETATM   38  C   UNL     1     -12.222  15.207  64.411  1.00  0.00    -0.275 A  
HETATM   39  C   UNL     1     -12.947  15.292  63.215  1.00  0.00     2.567 A  
ENDBRANCH  11  30
ENDBRANCH   3   4
ENDBRANCH   2   3
TORSDOF 6
ENDMDL
MODEL      251
REMARK 921   NORMALIZED FREE ENERGY PREDICTED BY IDOCK:   32.64 KCAL/MOL
REMARK 922        TOTAL FREE ENERGY PREDICTED BY IDOCK:   42.09 KCAL/MOL
REMARK 923 INTER-LIGAND FREE ENERGY PREDICTED BY IDOCK:   40.73 KCAL/MOL
REMARK 924 INTRA-LIGAND FREE ENERGY PREDICTED BY IDOCK:    1.36 KCAL/MOL
REMARK 927      BINDING AFFINITY PREDICTED BY RF-SCORE:    0.00 PKD
ROOT
HETATM    1  C   UNL     1      -6.868  20.036  66.577  1.00  0.00    -0.246 C  
HETATM    2  C   UNL     1      -6.413  19.792  65.144  1.00  0.00    -0.318 C  
ENDROOT
BRANCH   2   3
HETATM    3  C   UNL     1      -6.836  18.425  64.588  1.00  0.00     1.594 C  
BRANCH   3   4
HETATM    4  C   UNL     1      -7.886  17.772  65.427  1.00  0.00     1.114 A  
HETATM    5  N   UNL     1      -8.991  18.386  65.809  1.00  0.00    -0.309 NA 
HETATM    6  C   UNL     1      -9.646  17.522  66.645  1.00  0.00    -0.282 A  
HETATM    7  C   UNL     1      -8.944  16.331  66.746  1.00  0.00    -0.231 A  
HETATM    8  N   UNL     1      -7.851  16.480  65.916  1.00  0.00    -0.015 NA 
HETATM    9  C   UNL     1      -9.353  15.290  67.580  1.00  0.00    -0.199 A  
HETATM   10  C   UNL     1     -10.833  17.710  67.381  1.00  0.00    -0.178 A  
HETATM   11  C   UNL     1     -10.571  15.413  68.259  1.00  0.00    -0.253 A  
HETATM   12  C   UNL     1     -11.587  19.006  67.351  1.00  0.00     1.010 C  
HETATM   13  C   UNL     1     -11.278  16.626  68.173  1.00  0.00    -0.202 A  
BRANCH   8  14
HETATM   14  C   UNL     1      -6.785  15.486  65.778  1.00  0.00     5.376 C  
BRANCH  14  15
HETATM   15  C   UNL     1      -7.223  14.038  65.641  1.00  0.00     7.259 A  
HETATM   16  C   UNL     1      -8.269  13.620  64.819  1.00  0.00     6.857 A  
HETATM   17  C   UNL     1      -6.682  11.658  65.995  1.00  0.00     0.547 A  
HETATM   18  C   UNL     1      -6.453  13.028  66.249  1.00  0.00     3.068 A  
HETATM   19  C   UNL     1      -8.517  12.248  64.606  1.00  0.00     2.118 A  
HETATM   20  C   UNL     1      -7.717  11.221  65.155  1.00  0.00     0.654 A  
BRANCH  20  21
HETATM   21  C   UNL     1      -7.953   9.783  64.784  1.00  0.00    -0.138 A  
HETATM   22  C   UNL     1      -7.305   7.419  65.148  1.00  0.00    -0.077 A  
HETATM   23  C   UNL     1      -7.198   8.789  65.446  1.00  0.00    -0.084 A  
HETATM   24  C   UNL     1      -8.978   7.912  63.536  1.00  0.00     1.068 A  
HETATM   25  C   UNL     1      -8.880   9.300  63.831  1.00  0.00    -0.160 A  
HETATM   26  C   UNL     1      -8.175   6.981  64.179  1.00  0.00     0.059 A  
HETATM   27  C   UNL     1      -9.777  10.166  63.031  1.00  0.00    -0.041 C  
HETATM   28  O   UNL     1     -11.002   9.593  62.996  1.00  0.00     3.725 OA 
HETATM   29  O   UNL     1      -9.480  11.172  62.417  1.00  0.00    -0.244 OA 
ENDBRANCH  20  21
ENDBRANCH  14  15
ENDBRANCH   8  14
BRANCH  11  30
HETATM   30  C   UNL     1     -11.106  14.310  69.076  1.00  0.00    -0.259 A  
HETATM   31  C   UNL     1     -10.927  11.468  71.175  1.00  0.00     2.814 A  
HETATM   32  C   UNL     1     -11.990  10.771  71.763  1.00  0.00     0.378 A  
HETATM   33  N   UNL     1     -10.353  13.419  69.702  1.00  0.00     0.547 NA 
HETATM   34  C   UNL     1     -13.581  14.864  68.948  1.00  0.00     4.025 C  
HETATM   35  C   UNL     1     -11.209  12.580  70.366  1.00  0.00     0.913 A  
HETATM   36  C   UNL     1     -13.308  11.170  71.547  1.00  0.00    -0.235 A  
HETATM   37  N   UNL     1     -12.445  14.067  69.353  1.00  0.00    -0.197 NA 
HETATM   38  C   UNL     1     -12.530  12.958  70.166  1.00  0.00    -0.074 A  
HETATM   39  C   UNL     1     -13.608  12.273  70.742  1.00  0.00     1.352 A  
ENDBRANCH  11  30
ENDBRANCH   3   4
ENDBRANCH   2   3
TORSDOF 6
ENDMDL
MODEL      252
REMARK 921   NORMALIZED FREE ENERGY PREDICTED BY IDOCK:   33.50 KCAL/MOL
REMARK 922        TOTAL FREE ENERGY PREDICTED BY IDOCK:   43.24 KCAL/MOL
REMARK 923 INTER-LIGAND FREE ENERGY PREDICTED BY IDOCK:   42.78 KCAL/MOL
REMARK 924 INTRA-LIGAND FREE ENERGY PREDICTED BY IDOCK:    0.47 KCAL/MOL
REMARK 927      BINDING AFFINITY PREDICTED BY RF-SCORE:    0.00 PKD
ROOT
HETATM    1  C   UNL     1     -11.731   4.103  69.266  1.00  0.00     9.415 C  
HETATM    2  C   UNL     1     -11.716   5.532  68.740  1.00  0.00     2.489 C  
ENDROOT
BRANCH   2   3
HETATM    3  C   UNL     1     -13.046   6.274  68.931  1.00  0.00     8.756 C  
BRANCH   3   4
HETATM    4  C   UNL     1     -12.902   7.478  69.806  1.00  0.00     2.245 A  
HETATM    5  N   UNL     1     -12.993   7.430  71.123  1.00  0.00    -0.288 NA 
HETATM    6  C   UNL     1     -12.922   8.724  71.564  1.00  0.00    -0.319 A  
HETATM    7  C   UNL     1     -12.743   9.585  70.492  1.00  0.00     0.158 A  
HETATM    8  N   UNL     1     -12.671   8.772  69.379  1.00  0.00     2.910 NA 
HETATM    9  C   UNL     1     -12.696  10.971  70.646  1.00  0.00    -0.375 A  
HETATM   10  C   UNL     1     -13.042   9.235  72.871  1.00  0.00     0.103 A  
HETATM   11  C   UNL     1     -12.727  11.504  71.940  1.00  0.00    -0.250 A  
HETATM   12  C   UNL     1     -13.302   8.344  74.050  1.00  0.00     5.266 C  
HETATM   13  C   UNL     1     -12.926  10.636  73.029  1.00  0.00     2.928 A  
BRANCH   8  14
HETATM   14  C   UNL     1     -12.567   9.270  68.007  1.00  0.00     7.073 C  
BRANCH  14  15
HETATM   15  C   UNL     1     -11.164   9.404  67.439  1.00  0.00     0.377 A  
HETATM   16  C   UNL     1     -10.352   8.317  67.117  1.00  0.00    -0.387 A  
HETATM   17  C   UNL     1      -9.487  10.851  66.355  1.00  0.00    -0.214 A  
HETATM   18  C   UNL     1     -10.692  10.678  67.071  1.00  0.00    -0.317 A  
HETATM   19  C   UNL     1      -9.129   8.504  66.439  1.00  0.00    -0.229 A  
HETATM   20  C   UNL     1      -8.668   9.767  66.005  1.00  0.00    -0.156 A  
BRANCH  20  21
HETATM   21  C   UNL     1      -7.422   9.886  65.172  1.00  0.00    -0.133 A  
HETATM   22  C   UNL     1      -5.938  11.382  63.869  1.00  0.00     1.723 A  
HETATM   23  C   UNL     1      -7.057  11.163  64.692  1.00  0.00     0.969 A  
HETATM   24  C   UNL     1      -5.415   9.068  63.984  1.00  0.00    -0.061 A  
HETATM   25  C   UNL     1      -6.543   8.835  64.818  1.00  0.00    -0.066 A  
HETATM   26  C   UNL     1      -5.130  10.334  63.495  1.00  0.00    -0.121 A  
HETATM   27  C   UNL     1      -6.730   7.422  65.223  1.00  0.00    -0.047 C  
HETATM   28  O   UNL     1      -5.530   6.924  65.599  1.00  0.00    -0.025 OA 
HETATM   29  O   UNL     1      -7.748   6.761  65.155  1.00  0.00    -0.091 OA 
ENDBRANCH  20  21
ENDBRANCH  14  15
ENDBRANCH   8  14
BRANCH  11  30
HETATM   30  C   UNL     1     -12.581  12.951  72.174  1.00  0.00     0.195 A  
HETATM   31  C   UNL     1     -12.320  15.896  74.117  1.00  0.00    -0.746 A  
HETATM   32  C   UNL     1     -12.116  17.205  73.663  1.00  0.00     0.191 A  
HETATM   33  N   UNL     1     -12.576  13.511  73.374  1.00  0.00     0.620 NA 
HETATM   34  C   UNL     1     -12.221  13.722  69.781  1.00  0.00    -0.310 C  
HETATM   35  C   UNL     1     -12.397  14.856  73.178  1.00  0.00    -0.365 A  
HETATM   36  C   UNL     1     -11.994  17.474  72.301  1.00  0.00     2.590 A  
HETATM   37  N   UNL     1     -12.380  13.924  71.203  1.00  0.00    -0.361 NA 
HETATM   38  C   UNL     1     -12.273  15.148  71.826  1.00  0.00    -0.355 A  
HETATM   39  C   UNL     1     -12.071  16.450  71.351  1.00  0.00    -0.017 A  
ENDBRANCH  11  30
ENDBRANCH   3   4
ENDBRANCH   2   3
TORSDOF 6
ENDMDL
MODEL      253
REMARK 921   NORMALIZED FREE ENERGY PREDICTED BY IDOCK:   34.09 KCAL/MOL
REMARK 922        TOTAL FREE ENERGY PREDICTED BY IDOCK:   44.05 KCAL/MOL
REMARK 923 INTER-LIGAND FREE ENERGY PREDICTED BY IDOCK:   41.52 KCAL/MOL
REMARK 924 INTRA-LIGAND FREE ENERGY PREDICTED BY IDOCK:    2.53 KCAL/MOL
REMARK 927      BINDING AFFINITY PREDICTED BY RF-SCORE:    0.00 PKD
ROOT
HETATM    1  C   UNL     1     -13.949  11.580  63.402  1.00  0.00     2.501 C  
HETATM    2  C   UNL     1     -13.577  10.119  63.188  1.00  0.00     9.149 C  
ENDROOT
BRANCH   2   3
HETATM    3  C   UNL     1     -12.303   9.922  62.355  1.00  0.00     7.997 C  
BRANCH   3   4
HETATM    4  C   UNL     1     -11.107  10.551  62.992  1.00  0.00     1.736 A  
HETATM    5  N   UNL     1      -9.866  10.266  62.640  1.00  0.00    -0.108 NA 
HETATM    6  C   UNL     1      -9.052  10.942  63.509  1.00  0.00    -0.202 A  
HETATM    7  C   UNL     1      -9.813  11.692  64.392  1.00  0.00    -0.223 A  
HETATM    8  N   UNL     1     -11.123  11.481  64.015  1.00  0.00    -0.375 NA 
HETATM    9  C   UNL     1      -9.242  12.436  65.426  1.00  0.00     0.288 A  
HETATM   10  C   UNL     1      -7.647  10.927  63.619  1.00  0.00     0.434 A  
HETATM   11  C   UNL     1      -7.847  12.508  65.510  1.00  0.00     2.649 A  
HETATM   12  C   UNL     1      -6.791  10.078  62.726  1.00  0.00    -0.127 C  
HETATM   13  C   UNL     1      -7.071  11.735  64.627  1.00  0.00     3.110 A  
BRANCH   8  14
HETATM   14  C   UNL     1     -12.279  12.020  64.732  1.00  0.00    -0.156 C  
BRANCH  14  15
HETATM   15  C   UNL     1     -12.157  13.447  65.241  1.00  0.00    -0.446 A  
HETATM   16  C   UNL     1     -11.726  13.775  66.526  1.00  0.00    -0.412 A  
HETATM   17  C   UNL     1     -12.042  15.848  64.695  1.00  0.00     0.201 A  
HETATM   18  C   UNL     1     -12.339  14.514  64.342  1.00  0.00    -0.437 A  
HETATM   19  C   UNL     1     -11.473  15.117  66.883  1.00  0.00    -0.215 A  
HETATM   20  C   UNL     1     -11.589  16.194  65.977  1.00  0.00     0.730 A  
BRANCH  20  21
HETATM   21  C   UNL     1     -11.179  17.584  66.380  1.00  0.00     0.765 A  
HETATM   22  C   UNL     1     -11.833  19.688  67.513  1.00  0.00     1.728 A  
HETATM   23  C   UNL     1     -12.094  18.363  67.122  1.00  0.00     3.346 A  
HETATM   24  C   UNL     1      -9.687  19.551  66.503  1.00  0.00    -0.478 A  
HETATM   25  C   UNL     1      -9.940  18.209  66.104  1.00  0.00    -0.301 A  
HETATM   26  C   UNL     1     -10.642  20.291  67.185  1.00  0.00    -0.210 A  
HETATM   27  C   UNL     1      -8.835  17.571  65.350  1.00  0.00     1.402 C  
HETATM   28  O   UNL     1      -7.672  17.854  65.979  1.00  0.00    -0.437 OA 
HETATM   29  O   UNL     1      -8.909  16.971  64.297  1.00  0.00     5.800 OA 
ENDBRANCH  20  21
ENDBRANCH  14  15
ENDBRANCH   8  14
BRANCH  11  30
HETATM   30  C   UNL     1      -7.185  13.355  66.517  1.00  0.00     1.810 A  
HETATM   31  C   UNL     1      -5.653  16.291  67.760  1.00  0.00    -0.157 A  
HETATM   32  C   UNL     1      -5.185  16.528  69.060  1.00  0.00    -0.119 A  
HETATM   33  N   UNL     1      -6.769  14.591  66.288  1.00  0.00     2.836 NA 
HETATM   34  C   UNL     1      -7.335  11.805  68.523  1.00  0.00    -0.103 C  
HETATM   35  C   UNL     1      -6.234  15.049  67.464  1.00  0.00    -0.028 A  
HETATM   36  C   UNL     1      -5.290  15.545  70.043  1.00  0.00    -0.117 A  
HETATM   37  N   UNL     1      -6.945  13.020  67.843  1.00  0.00    -0.110 NA 
HETATM   38  C   UNL     1      -6.327  14.085  68.460  1.00  0.00    -0.093 A  
HETATM   39  C   UNL     1      -5.863  14.300  69.764  1.00  0.00    -0.112 A  
ENDBRANCH  11  30
ENDBRANCH   3   4
ENDBRANCH   2   3
TORSDOF 6
ENDMDL
MODEL      254
REMARK 921   NORMALIZED FREE ENERGY PREDICTED BY IDOCK:   35.36 KCAL/MOL
REMARK 922        TOTAL FREE ENERGY PREDICTED BY IDOCK:   45.76 KCAL/MOL
REMARK 923 INTER-LIGAND FREE ENERGY PREDICTED BY IDOCK:   39.70 KCAL/MOL
REMARK 924 INTRA-LIGAND FREE ENERGY PREDICTED BY IDOCK:    6.06 KCAL/MOL
REMARK 927      BINDING AFFINITY PREDICTED BY RF-SCORE:    0.00 PKD
ROOT
HETATM    1  C   UNL     1      -7.588  19.590  70.312  1.00  0.00     0.811 C  
HETATM    2  C   UNL     1      -7.920  18.404  71.208  1.00  0.00     6.864 C  
ENDROOT
BRANCH   2   3
HETATM    3  C   UNL     1      -9.264  18.539  71.937  1.00  0.00     9.287 C  
BRANCH   3   4
HETATM    4  C   UNL     1     -10.099  17.305  71.817  1.00  0.00     5.523 A  
HETATM    5  N   UNL     1     -11.350  17.235  72.235  1.00  0.00     0.848 NA 
HETATM    6  C   UNL     1     -11.744  15.936  72.063  1.00  0.00    -0.492 A  
HETATM    7  C   UNL     1     -10.721  15.198  71.487  1.00  0.00     0.366 A  
HETATM    8  N   UNL     1      -9.695  16.097  71.280  1.00  0.00     2.737 NA 
HETATM    9  C   UNL     1     -10.828  13.826  71.253  1.00  0.00     2.915 A  
HETATM   10  C   UNL     1     -12.957  15.311  72.414  1.00  0.00    -0.473 A  
HETATM   11  C   UNL     1     -12.050  13.195  71.513  1.00  0.00     0.413 A  
HETATM   12  C   UNL     1     -14.064  16.058  73.098  1.00  0.00     0.047 C  
HETATM   13  C   UNL     1     -13.085  13.935  72.113  1.00  0.00    -0.497 A  
BRANCH   8  14
HETATM   14  C   UNL     1      -8.376  15.730  70.761  1.00  0.00     2.669 C  
BRANCH  14  15
HETATM   15  C   UNL     1      -8.353  14.749  69.601  1.00  0.00     0.143 A  
HETATM   16  C   UNL     1      -7.645  14.965  68.420  1.00  0.00    -0.113 A  
HETATM   17  C   UNL     1      -8.785  12.456  68.807  1.00  0.00     0.148 A  
HETATM   18  C   UNL     1      -8.946  13.483  69.762  1.00  0.00     1.951 A  
HETATM   19  C   UNL     1      -7.526  13.946  67.452  1.00  0.00    -0.147 A  
HETATM   20  C   UNL     1      -8.059  12.649  67.622  1.00  0.00    -0.173 A  
BRANCH  20  21
HETATM   21  C   UNL     1      -7.786  11.568  66.614  1.00  0.00    -0.101 A  
HETATM   22  C   UNL     1      -6.548  10.907  64.571  1.00  0.00     0.490 A  
HETATM   23  C   UNL     1      -6.848  11.828  65.590  1.00  0.00     1.445 A  
HETATM   24  C   UNL     1      -8.060   9.356  65.546  1.00  0.00    -0.116 A  
HETATM   25  C   UNL     1      -8.369  10.279  66.583  1.00  0.00    -0.125 A  
HETATM   26  C   UNL     1      -7.169   9.681  64.533  1.00  0.00    -0.121 A  
HETATM   27  C   UNL     1      -9.367   9.793  67.564  1.00  0.00    -0.133 C  
HETATM   28  O   UNL     1      -9.052   8.521  67.899  1.00  0.00    -0.139 OA 
HETATM   29  O   UNL     1     -10.363  10.371  67.953  1.00  0.00    -0.170 OA 
ENDBRANCH  20  21
ENDBRANCH  14  15
ENDBRANCH   8  14
BRANCH  11  30
HETATM   30  C   UNL     1     -12.257  11.772  71.194  1.00  0.00    -0.103 A  
HETATM   31  C   UNL     1     -14.144   8.837  70.609  1.00  0.00     0.577 A  
HETATM   32  C   UNL     1     -13.668   7.574  70.235  1.00  0.00     1.802 A  
HETATM   33  N   UNL     1     -13.445  11.188  71.143  1.00  0.00     0.168 NA 
HETATM   34  C   UNL     1      -9.857  11.107  70.694  1.00  0.00     3.141 C  
HETATM   35  C   UNL     1     -13.225   9.881  70.795  1.00  0.00    -0.172 A  
HETATM   36  C   UNL     1     -12.303   7.354  70.054  1.00  0.00     0.581 A  
HETATM   37  N   UNL     1     -11.271  10.854  70.855  1.00  0.00     0.239 NA 
HETATM   38  C   UNL     1     -11.871   9.638  70.609  1.00  0.00    -0.256 A  
HETATM   39  C   UNL     1     -11.373   8.382  70.238  1.00  0.00    -0.131 A  
ENDBRANCH  11  30
ENDBRANCH   3   4
ENDBRANCH   2   3
TORSDOF 6
ENDMDL
MODEL      255
REMARK 921   NORMALIZED FREE ENERGY PREDICTED BY IDOCK:   37.39 KCAL/MOL
REMARK 922        TOTAL FREE ENERGY PREDICTED BY IDOCK:   48.51 KCAL/MOL
REMARK 923 INTER-LIGAND FREE ENERGY PREDICTED BY IDOCK:   47.84 KCAL/MOL
REMARK 924 INTRA-LIGAND FREE ENERGY PREDICTED BY IDOCK:    0.67 KCAL/MOL
REMARK 927      BINDING AFFINITY PREDICTED BY RF-SCORE:    0.00 PKD
ROOT
HETATM    1  C   UNL     1     -12.728   6.038  66.588  1.00  0.00     7.787 C  
HETATM    2  C   UNL     1     -13.233   5.067  67.646  1.00  0.00    19.712 C  
ENDROOT
BRANCH   2   3
HETATM    3  C   UNL     1     -12.975   5.534  69.085  1.00  0.00    11.110 C  
BRANCH   3   4
HETATM    4  C   UNL     1     -11.711   6.322  69.207  1.00  0.00     0.240 A  
HETATM    5  N   UNL     1     -10.548   5.780  69.519  1.00  0.00    -0.291 NA 
HETATM    6  C   UNL     1      -9.659   6.813  69.645  1.00  0.00    -0.148 A  
HETATM    7  C   UNL     1     -10.285   8.018  69.364  1.00  0.00    -0.210 A  
HETATM    8  N   UNL     1     -11.581   7.687  69.027  1.00  0.00     0.687 NA 
HETATM    9  C   UNL     1      -9.629   9.245  69.472  1.00  0.00    -0.178 A  
HETATM   10  C   UNL     1      -8.305   6.792  70.034  1.00  0.00    -0.135 A  
HETATM   11  C   UNL     1      -8.262   9.250  69.776  1.00  0.00    -0.131 A  
HETATM   12  C   UNL     1      -7.610   5.517  70.410  1.00  0.00    -0.081 C  
HETATM   13  C   UNL     1      -7.627   8.033  70.078  1.00  0.00    -0.082 A  
BRANCH   8  14
HETATM   14  C   UNL     1     -12.628   8.667  68.734  1.00  0.00     5.252 C  
BRANCH  14  15
HETATM   15  C   UNL     1     -12.201  10.124  68.694  1.00  0.00     1.096 A  
HETATM   16  C   UNL     1     -11.685  10.748  67.559  1.00  0.00     0.206 A  
HETATM   17  C   UNL     1     -12.284  12.346  69.758  1.00  0.00    -0.198 A  
HETATM   18  C   UNL     1     -12.468  10.948  69.804  1.00  0.00    -0.250 A  
HETATM   19  C   UNL     1     -11.464  12.142  67.538  1.00  0.00    -0.410 A  
HETATM   20  C   UNL     1     -11.785  12.994  68.618  1.00  0.00    -0.359 A  
BRANCH  20  21
HETATM   21  C   UNL     1     -11.650  14.486  68.485  1.00  0.00    -0.344 A  
HETATM   22  C   UNL     1     -10.920  16.379  67.064  1.00  0.00    -0.048 A  
HETATM   23  C   UNL     1     -11.130  15.006  67.279  1.00  0.00    -0.334 A  
HETATM   24  C   UNL     1     -11.790  16.839  69.226  1.00  0.00     0.784 A  
HETATM   25  C   UNL     1     -12.009  15.453  69.454  1.00  0.00    -0.351 A  
HETATM   26  C   UNL     1     -11.226  17.295  68.043  1.00  0.00     0.094 A  
HETATM   27  C   UNL     1     -12.581  15.128  70.781  1.00  0.00    -0.393 C  
HETATM   28  O   UNL     1     -13.587  15.996  71.035  1.00  0.00    -0.235 OA 
HETATM   29  O   UNL     1     -12.184  14.299  71.575  1.00  0.00    -0.340 OA 
ENDBRANCH  20  21
ENDBRANCH  14  15
ENDBRANCH   8  14
BRANCH  11  30
HETATM   30  C   UNL     1      -7.491  10.506  69.807  1.00  0.00    -0.119 A  
HETATM   31  C   UNL     1      -6.003  13.413  68.449  1.00  0.00    -0.092 A  
HETATM   32  C   UNL     1      -5.313  14.421  69.135  1.00  0.00    -0.081 A  
HETATM   33  N   UNL     1      -7.235  11.245  68.739  1.00  0.00    -0.097 NA 
HETATM   34  C   UNL     1      -7.116  10.697  72.312  1.00  0.00     4.776 C  
HETATM   35  C   UNL     1      -6.522  12.331  69.176  1.00  0.00    -0.100 A  
HETATM   36  C   UNL     1      -5.140  14.350  70.517  1.00  0.00    -0.103 A  
HETATM   37  N   UNL     1      -6.970  11.121  70.938  1.00  0.00     0.903 NA 
HETATM   38  C   UNL     1      -6.337  12.282  70.552  1.00  0.00     0.442 A  
HETATM   39  C   UNL     1      -5.648  13.278  71.256  1.00  0.00    -0.141 A  
ENDBRANCH  11  30
ENDBRANCH   3   4
ENDBRANCH   2   3
TORSDOF 6
ENDMDL
MODEL      256
REMARK 921   NORMALIZED FREE ENERGY PREDICTED BY IDOCK:   38.61 KCAL/MOL
REMARK 922        TOTAL FREE ENERGY PREDICTED BY IDOCK:   50.15 KCAL/MOL
REMARK 923 INTER-LIGAND FREE ENERGY PREDICTED BY IDOCK:   48.93 KCAL/MOL
REMARK 924 INTRA-LIGAND FREE ENERGY PREDICTED BY IDOCK:    1.22 KCAL/MOL
REMARK 927      BINDING AFFINITY PREDICTED BY RF-SCORE:    0.00 PKD
ROOT
HETATM    1  C   UNL     1     -12.728   6.038  66.588  1.00  0.00     7.787 C  
HETATM    2  C   UNL     1     -13.225   5.075  67.657  1.00  0.00    19.712 C  
ENDROOT
BRANCH   2   3
HETATM    3  C   UNL     1     -12.967   5.559  69.091  1.00  0.00    11.110 C  
BRANCH   3   4
HETATM    4  C   UNL     1     -11.708   6.356  69.202  1.00  0.00     0.227 A  
HETATM    5  N   UNL     1     -10.541   5.824  69.517  1.00  0.00    -0.291 NA 
HETATM    6  C   UNL     1      -9.658   6.864  69.630  1.00  0.00    -0.146 A  
HETATM    7  C   UNL     1     -10.292   8.062  69.338  1.00  0.00    -0.217 A  
HETATM    8  N   UNL     1     -11.587   7.719  69.007  1.00  0.00     0.752 NA 
HETATM    9  C   UNL     1      -9.643   9.295  69.432  1.00  0.00    -0.170 A  
HETATM   10  C   UNL     1      -8.304   6.855  70.018  1.00  0.00    -0.139 A  
HETATM   11  C   UNL     1      -8.276   9.311  69.733  1.00  0.00    -0.131 A  
HETATM   12  C   UNL     1      -7.599   5.589  70.406  1.00  0.00    -0.081 C  
HETATM   13  C   UNL     1      -7.633   8.100  70.047  1.00  0.00    -0.077 A  
BRANCH   8  14
HETATM   14  C   UNL     1     -12.640   8.690  68.706  1.00  0.00     5.252 C  
BRANCH  14  15
HETATM   15  C   UNL     1     -12.222  10.149  68.650  1.00  0.00     1.096 A  
HETATM   16  C   UNL     1     -12.543  11.084  69.632  1.00  0.00    -0.084 A  
HETATM   17  C   UNL     1     -10.751  11.855  67.647  1.00  0.00    -0.253 A  
HETATM   18  C   UNL     1     -11.338  10.571  67.639  1.00  0.00    -0.233 A  
HETATM   19  C   UNL     1     -11.985  12.380  69.608  1.00  0.00    -0.341 A  
HETATM   20  C   UNL     1     -11.047  12.802  68.639  1.00  0.00    -0.304 A  
BRANCH  20  21
HETATM   21  C   UNL     1     -10.389  14.150  68.743  1.00  0.00    -0.230 A  
HETATM   22  C   UNL     1     -10.115  16.222  70.074  1.00  0.00     0.109 A  
HETATM   23  C   UNL     1     -10.641  14.931  69.893  1.00  0.00    -0.152 A  
HETATM   24  C   UNL     1      -8.986  16.040  67.992  1.00  0.00    -0.187 A  
HETATM   25  C   UNL     1      -9.512  14.733  67.799  1.00  0.00    -0.204 A  
HETATM   26  C   UNL     1      -9.308  16.788  69.116  1.00  0.00    -0.155 A  
HETATM   27  C   UNL     1      -9.104  14.085  66.530  1.00  0.00    -0.150 C  
HETATM   28  O   UNL     1      -7.778  14.285  66.357  1.00  0.00     0.771 OA 
HETATM   29  O   UNL     1      -9.821  13.542  65.714  1.00  0.00    -0.268 OA 
ENDBRANCH  20  21
ENDBRANCH  14  15
ENDBRANCH   8  14
BRANCH  11  30
HETATM   30  C   UNL     1      -7.512  10.571  69.749  1.00  0.00    -0.119 A  
HETATM   31  C   UNL     1      -6.044  13.473  68.358  1.00  0.00    -0.094 A  
HETATM   32  C   UNL     1      -5.359  14.493  69.032  1.00  0.00    -0.089 A  
HETATM   33  N   UNL     1      -7.262  11.301  68.673  1.00  0.00    -0.090 NA 
HETATM   34  C   UNL     1      -7.133  10.791  72.251  1.00  0.00     5.307 C  
HETATM   35  C   UNL     1      -6.555  12.395  69.097  1.00  0.00    -0.099 A  
HETATM   36  C   UNL     1      -5.183  14.437  70.414  1.00  0.00    -0.102 A  
HETATM   37  N   UNL     1      -6.993  11.202  70.873  1.00  0.00     0.903 NA 
HETATM   38  C   UNL     1      -6.367  12.363  70.473  1.00  0.00     0.441 A  
HETATM   39  C   UNL     1      -5.683  13.370  71.166  1.00  0.00    -0.140 A  
ENDBRANCH  11  30
ENDBRANCH   3   4
ENDBRANCH   2   3
TORSDOF 6
ENDMDL
MODEL      257
REMARK 921   NORMALIZED FREE ENERGY PREDICTED BY IDOCK:   39.98 KCAL/MOL
REMARK 922        TOTAL FREE ENERGY PREDICTED BY IDOCK:   52.00 KCAL/MOL
REMARK 923 INTER-LIGAND FREE ENERGY PREDICTED BY IDOCK:   48.37 KCAL/MOL
REMARK 924 INTRA-LIGAND FREE ENERGY PREDICTED BY IDOCK:    3.63 KCAL/MOL
REMARK 927      BINDING AFFINITY PREDICTED BY RF-SCORE:    0.00 PKD
ROOT
HETATM    1  C   UNL     1      -7.544  19.573  70.390  1.00  0.00     0.982 C  
HETATM    2  C   UNL     1      -7.791  18.374  71.295  1.00  0.00     6.524 C  
ENDROOT
BRANCH   2   3
HETATM    3  C   UNL     1      -9.084  18.476  72.116  1.00  0.00    10.753 C  
BRANCH   3   4
HETATM    4  C   UNL     1      -9.963  17.280  71.939  1.00  0.00     6.636 A  
HETATM    5  N   UNL     1     -11.207  17.225  72.378  1.00  0.00     1.073 NA 
HETATM    6  C   UNL     1     -11.649  15.952  72.136  1.00  0.00    -0.413 A  
HETATM    7  C   UNL     1     -10.661  15.218  71.497  1.00  0.00     0.295 A  
HETATM    8  N   UNL     1      -9.610  16.094  71.323  1.00  0.00     3.054 NA 
HETATM    9  C   UNL     1     -10.819  13.867  71.184  1.00  0.00     2.285 A  
HETATM   10  C   UNL     1     -12.876  15.347  72.474  1.00  0.00    -0.491 A  
HETATM   11  C   UNL     1     -12.057  13.261  71.430  1.00  0.00     0.200 A  
HETATM   12  C   UNL     1     -13.944  16.087  73.224  1.00  0.00    -0.012 C  
HETATM   13  C   UNL     1     -13.055  13.997  72.094  1.00  0.00    -0.501 A  
BRANCH   8  14
HETATM   14  C   UNL     1      -8.314  15.716  70.757  1.00  0.00     2.471 C  
BRANCH  14  15
HETATM   15  C   UNL     1      -8.319  14.575  69.754  1.00  0.00     0.489 A  
HETATM   16  C   UNL     1      -9.475  13.915  69.338  1.00  0.00     0.599 A  
HETATM   17  C   UNL     1      -7.103  13.343  67.998  1.00  0.00    -0.125 A  
HETATM   18  C   UNL     1      -7.126  14.247  69.082  1.00  0.00    -0.117 A  
HETATM   19  C   UNL     1      -9.433  12.980  68.282  1.00  0.00    -0.208 A  
HETATM   20  C   UNL     1      -8.260  12.685  67.554  1.00  0.00    -0.178 A  
BRANCH  20  21
HETATM   21  C   UNL     1      -8.308  11.779  66.355  1.00  0.00    -0.040 A  
HETATM   22  C   UNL     1      -9.732  10.485  64.794  1.00  0.00    -0.365 A  
HETATM   23  C   UNL     1      -9.571  11.365  65.878  1.00  0.00    -0.254 A  
HETATM   24  C   UNL     1      -7.373  10.401  64.528  1.00  0.00    -0.013 A  
HETATM   25  C   UNL     1      -7.199  11.292  65.623  1.00  0.00     0.397 A  
HETATM   26  C   UNL     1      -8.636   9.984  64.133  1.00  0.00    -0.195 A  
HETATM   27  C   UNL     1      -5.787  11.609  65.942  1.00  0.00     0.666 C  
HETATM   28  O   UNL     1      -5.136  11.865  64.784  1.00  0.00     1.106 OA 
HETATM   29  O   UNL     1      -5.247  11.564  67.029  1.00  0.00    -0.072 OA 
ENDBRANCH  20  21
ENDBRANCH  14  15
ENDBRANCH   8  14
BRANCH  11  30
HETATM   30  C   UNL     1     -12.318  11.867  71.031  1.00  0.00    -0.259 A  
HETATM   31  C   UNL     1     -12.480   9.125  68.802  1.00  0.00     3.803 A  
HETATM   32  C   UNL     1     -12.834   7.802  69.098  1.00  0.00     4.904 A  
HETATM   33  N   UNL     1     -12.161  11.407  69.800  1.00  0.00    -0.288 NA 
HETATM   34  C   UNL     1     -12.892  10.888  73.303  1.00  0.00     5.499 C  
HETATM   35  C   UNL     1     -12.478  10.074  69.836  1.00  0.00     0.239 A  
HETATM   36  C   UNL     1     -13.182   7.432  70.396  1.00  0.00     0.828 A  
HETATM   37  N   UNL     1     -12.710  10.832  71.871  1.00  0.00    -0.344 NA 
HETATM   38  C   UNL     1     -12.829   9.682  71.121  1.00  0.00    -0.316 A  
HETATM   39  C   UNL     1     -13.188   8.365  71.437  1.00  0.00    -0.242 A  
ENDBRANCH  11  30
ENDBRANCH   3   4
ENDBRANCH   2   3
TORSDOF 6
ENDMDL
MODEL      258
REMARK 921   NORMALIZED FREE ENERGY PREDICTED BY IDOCK:   44.62 KCAL/MOL
REMARK 922        TOTAL FREE ENERGY PREDICTED BY IDOCK:   58.28 KCAL/MOL
REMARK 923 INTER-LIGAND FREE ENERGY PREDICTED BY IDOCK:   57.65 KCAL/MOL
REMARK 924 INTRA-LIGAND FREE ENERGY PREDICTED BY IDOCK:    0.62 KCAL/MOL
REMARK 927      BINDING AFFINITY PREDICTED BY RF-SCORE:    0.00 PKD
ROOT
HETATM    1  C   UNL     1      -9.869   6.618  70.278  1.00  0.00    -0.188 C  
HETATM    2  C   UNL     1     -11.253   5.997  70.417  1.00  0.00    -0.380 C  
ENDROOT
BRANCH   2   3
HETATM    3  C   UNL     1     -12.337   6.718  69.605  1.00  0.00     0.907 C  
BRANCH   3   4
HETATM    4  C   UNL     1     -11.759   7.676  68.614  1.00  0.00     1.469 A  
HETATM    5  N   UNL     1     -10.725   7.386  67.846  1.00  0.00    -0.184 NA 
HETATM    6  C   UNL     1     -10.417   8.530  67.161  1.00  0.00    -0.299 A  
HETATM    7  C   UNL     1     -11.311   9.538  67.488  1.00  0.00     0.629 A  
HETATM    8  N   UNL     1     -12.201   8.964  68.373  1.00  0.00     3.138 NA 
HETATM    9  C   UNL     1     -11.197  10.833  66.980  1.00  0.00    -0.165 A  
HETATM   10  C   UNL     1      -9.358   8.785  66.268  1.00  0.00    -0.283 A  
HETATM   11  C   UNL     1     -10.206  11.095  66.027  1.00  0.00    -0.300 A  
HETATM   12  C   UNL     1      -8.331   7.742  65.938  1.00  0.00    -0.135 C  
HETATM   13  C   UNL     1      -9.287  10.081  65.704  1.00  0.00    -0.257 A  
BRANCH   8  14
HETATM   14  C   UNL     1     -13.275   9.695  69.045  1.00  0.00     4.745 C  
BRANCH  14  15
HETATM   15  C   UNL     1     -12.914  11.055  69.620  1.00  0.00     0.466 A  
HETATM   16  C   UNL     1     -11.604  11.502  69.784  1.00  0.00    -0.401 A  
HETATM   17  C   UNL     1     -13.659  13.330  70.206  1.00  0.00     1.532 A  
HETATM   18  C   UNL     1     -13.938  11.989  69.868  1.00  0.00     5.249 A  
HETATM   19  C   UNL     1     -11.337  12.834  70.164  1.00  0.00     0.172 A  
HETATM   20  C   UNL     1     -12.347  13.803  70.356  1.00  0.00    -0.423 A  
BRANCH  20  21
HETATM   21  C   UNL     1     -11.992  15.238  70.631  1.00  0.00    -0.386 A  
HETATM   22  C   UNL     1     -10.900  17.297  69.791  1.00  0.00     0.382 A  
HETATM   23  C   UNL     1     -11.318  15.965  69.625  1.00  0.00    -0.342 A  
HETATM   24  C   UNL     1     -11.849  17.311  71.969  1.00  0.00     1.650 A  
HETATM   25  C   UNL     1     -12.278  15.964  71.811  1.00  0.00    -0.551 A  
HETATM   26  C   UNL     1     -11.143  17.964  70.969  1.00  0.00     2.598 A  
HETATM   27  C   UNL     1     -12.985  15.400  72.985  1.00  0.00    -0.488 C  
HETATM   28  O   UNL     1     -13.873  16.318  73.429  1.00  0.00    -0.562 OA 
HETATM   29  O   UNL     1     -12.767  14.342  73.540  1.00  0.00    -0.380 OA 
ENDBRANCH  20  21
ENDBRANCH  14  15
ENDBRANCH   8  14
BRANCH  11  30
HETATM   30  C   UNL     1     -10.098  12.414  65.380  1.00  0.00    -0.269 A  
HETATM   31  C   UNL     1     -10.158  15.947  65.226  1.00  0.00    -0.206 A  
HETATM   32  C   UNL     1      -9.878  16.761  64.120  1.00  0.00     5.347 A  
HETATM   33  N   UNL     1     -10.292  13.565  66.005  1.00  0.00    -0.296 NA 
HETATM   34  C   UNL     1      -9.342  11.679  63.069  1.00  0.00    -0.168 C  
HETATM   35  C   UNL     1     -10.079  14.554  65.081  1.00  0.00    -0.327 A  
HETATM   36  C   UNL     1      -9.530  16.197  62.893  1.00  0.00    17.575 A  
HETATM   37  N   UNL     1      -9.736  12.655  64.060  1.00  0.00    -0.089 NA 
HETATM   38  C   UNL     1      -9.731  14.016  63.849  1.00  0.00     3.179 A  
HETATM   39  C   UNL     1      -9.450  14.811  62.730  1.00  0.00    15.691 A  
ENDBRANCH  11  30
ENDBRANCH   3   4
ENDBRANCH   2   3
TORSDOF 6
ENDMDL
MODEL      259
REMARK 921   NORMALIZED FREE ENERGY PREDICTED BY IDOCK:   63.97 KCAL/MOL
REMARK 922        TOTAL FREE ENERGY PREDICTED BY IDOCK:   84.41 KCAL/MOL
REMARK 923 INTER-LIGAND FREE ENERGY PREDICTED BY IDOCK:   82.16 KCAL/MOL
REMARK 924 INTRA-LIGAND FREE ENERGY PREDICTED BY IDOCK:    2.25 KCAL/MOL
REMARK 927      BINDING AFFINITY PREDICTED BY RF-SCORE:    0.00 PKD
ROOT
HETATM    1  C   UNL     1      -7.390  16.702  62.848  1.00  0.00    23.116 C  
HETATM    2  C   UNL     1      -8.255  17.934  62.618  1.00  0.00    24.423 C  
ENDROOT
BRANCH   2   3
HETATM    3  C   UNL     1      -9.246  18.214  63.756  1.00  0.00    14.462 C  
BRANCH   3   4
HETATM    4  C   UNL     1      -9.878  16.963  64.276  1.00  0.00     4.824 A  
HETATM    5  N   UNL     1     -11.168  16.704  64.164  1.00  0.00    -1.039 NA 
HETATM    6  C   UNL     1     -11.390  15.538  64.848  1.00  0.00    -0.335 A  
HETATM    7  C   UNL     1     -10.197  15.050  65.359  1.00  0.00    -0.381 A  
HETATM    8  N   UNL     1      -9.228  15.937  64.937  1.00  0.00     0.919 NA 
HETATM    9  C   UNL     1     -10.138  13.902  66.152  1.00  0.00    -0.317 A  
HETATM   10  C   UNL     1     -12.600  14.862  65.101  1.00  0.00     0.073 A  
HETATM   11  C   UNL     1     -11.310  13.163  66.351  1.00  0.00    -0.349 A  
HETATM   12  C   UNL     1     -13.919  15.392  64.622  1.00  0.00     3.543 C  
HETATM   13  C   UNL     1     -12.524  13.663  65.849  1.00  0.00    -0.502 A  
BRANCH   8  14
HETATM   14  C   UNL     1      -7.818  15.853  65.320  1.00  0.00     4.436 C  
BRANCH  14  15
HETATM   15  C   UNL     1      -7.529  15.512  66.772  1.00  0.00     0.019 A  
HETATM   16  C   UNL     1      -8.518  15.225  67.712  1.00  0.00    -0.158 A  
HETATM   17  C   UNL     1      -5.868  14.809  68.453  1.00  0.00    -0.104 A  
HETATM   18  C   UNL     1      -6.195  15.323  67.180  1.00  0.00     0.351 A  
HETATM   19  C   UNL     1      -8.180  14.752  68.997  1.00  0.00    -0.141 A  
HETATM   20  C   UNL     1      -6.852  14.496  69.403  1.00  0.00    -0.149 A  
BRANCH  20  21
HETATM   21  C   UNL     1      -6.565  13.868  70.739  1.00  0.00     0.374 A  
HETATM   22  C   UNL     1      -6.484  14.177  73.197  1.00  0.00     1.588 A  
HETATM   23  C   UNL     1      -6.762  14.647  71.901  1.00  0.00     1.530 A  
HETATM   24  C   UNL     1      -5.841  12.080  72.284  1.00  0.00     1.764 A  
HETATM   25  C   UNL     1      -6.121  12.545  70.970  1.00  0.00     0.634 A  
HETATM   26  C   UNL     1      -6.002  12.904  73.389  1.00  0.00     1.857 A  
HETATM   27  C   UNL     1      -5.860  11.556  69.898  1.00  0.00    -0.121 C  
HETATM   28  O   UNL     1      -6.364  10.363  70.287  1.00  0.00    -0.103 OA 
HETATM   29  O   UNL     1      -5.225  11.724  68.875  1.00  0.00    -0.050 OA 
ENDBRANCH  20  21
ENDBRANCH  14  15
ENDBRANCH   8  14
BRANCH  11  30
HETATM   30  C   UNL     1     -11.293  11.891  67.094  1.00  0.00    -0.331 A  
HETATM   31  C   UNL     1     -12.563   9.408  69.271  1.00  0.00     2.313 A  
HETATM   32  C   UNL     1     -11.978   8.178  69.599  1.00  0.00     1.072 A  
HETATM   33  N   UNL     1     -12.263  11.491  67.902  1.00  0.00    -0.427 NA 
HETATM   34  C   UNL     1      -9.133  10.910  66.185  1.00  0.00    -0.183 C  
HETATM   35  C   UNL     1     -11.893  10.262  68.380  1.00  0.00     0.396 A  
HETATM   36  C   UNL     1     -10.749   7.808  69.056  1.00  0.00    -0.119 A  
HETATM   37  N   UNL     1     -10.309  10.913  67.026  1.00  0.00    -0.221 NA 
HETATM   38  C   UNL     1     -10.670   9.870  67.852  1.00  0.00    -0.265 A  
HETATM   39  C   UNL     1     -10.067   8.647  68.170  1.00  0.00    -0.236 A  
ENDBRANCH  11  30
ENDBRANCH   3   4
ENDBRANCH   2   3
TORSDOF 6
ENDMDL
MODEL      260
REMARK 921   NORMALIZED FREE ENERGY PREDICTED BY IDOCK:   64.41 KCAL/MOL
REMARK 922        TOTAL FREE ENERGY PREDICTED BY IDOCK:   85.00 KCAL/MOL
REMARK 923 INTER-LIGAND FREE ENERGY PREDICTED BY IDOCK:   83.33 KCAL/MOL
REMARK 924 INTRA-LIGAND FREE ENERGY PREDICTED BY IDOCK:    1.67 KCAL/MOL
REMARK 927      BINDING AFFINITY PREDICTED BY RF-SCORE:    0.00 PKD
ROOT
HETATM    1  C   UNL     1      -8.715  20.625  64.650  1.00  0.00     2.200 C  
HETATM    2  C   UNL     1      -9.922  20.470  63.734  1.00  0.00     6.569 C  
ENDROOT
BRANCH   2   3
HETATM    3  C   UNL     1     -11.231  20.184  64.483  1.00  0.00     2.294 C  
BRANCH   3   4
HETATM    4  C   UNL     1     -10.995  19.530  65.806  1.00  0.00    -0.171 A  
HETATM    5  N   UNL     1     -10.931  20.200  66.943  1.00  0.00     0.000 NA 
HETATM    6  C   UNL     1     -10.595  19.292  67.911  1.00  0.00    -0.373 A  
HETATM    7  C   UNL     1     -10.489  18.024  67.359  1.00  0.00    -0.387 A  
HETATM    8  N   UNL     1     -10.805  18.178  66.025  1.00  0.00    -0.117 NA 
HETATM    9  C   UNL     1     -10.100  16.913  68.109  1.00  0.00    -0.299 A  
HETATM   10  C   UNL     1     -10.329  19.494  69.279  1.00  0.00    -0.022 A  
HETATM   11  C   UNL     1      -9.911  17.066  69.487  1.00  0.00     0.084 A  
HETATM   12  C   UNL     1     -10.368  20.859  69.900  1.00  0.00     0.997 C  
HETATM   13  C   UNL     1     -10.000  18.353  70.048  1.00  0.00     1.048 A  
BRANCH   8  14
HETATM   14  C   UNL     1     -10.741  17.100  65.038  1.00  0.00     0.105 C  
BRANCH  14  15
HETATM   15  C   UNL     1      -9.945  15.867  65.431  1.00  0.00    -0.230 A  
HETATM   16  C   UNL     1      -8.959  15.865  66.417  1.00  0.00    -0.361 A  
HETATM   17  C   UNL     1      -9.744  13.411  65.364  1.00  0.00    -0.032 A  
HETATM   18  C   UNL     1     -10.304  14.618  64.891  1.00  0.00    -0.382 A  
HETATM   19  C   UNL     1      -8.375  14.657  66.853  1.00  0.00    -0.159 A  
HETATM   20  C   UNL     1      -8.767  13.388  66.369  1.00  0.00     0.212 A  
BRANCH  20  21
HETATM   21  C   UNL     1      -8.200  12.130  66.967  1.00  0.00    -0.164 A  
HETATM   22  C   UNL     1      -6.291  10.552  67.043  1.00  0.00    -0.074 A  
HETATM   23  C   UNL     1      -6.901  11.732  66.582  1.00  0.00     0.020 A  
HETATM   24  C   UNL     1      -8.209  10.094  68.368  1.00  0.00    -0.112 A  
HETATM   25  C   UNL     1      -8.835  11.286  67.909  1.00  0.00    -0.142 A  
HETATM   26  C   UNL     1      -6.951   9.721  67.917  1.00  0.00    -0.078 A  
HETATM   27  C   UNL     1     -10.191  11.521  68.455  1.00  0.00    -0.213 C  
HETATM   28  O   UNL     1     -10.165  11.271  69.784  1.00  0.00     0.154 OA 
HETATM   29  O   UNL     1     -11.200  11.797  67.837  1.00  0.00    -0.229 OA 
ENDBRANCH  20  21
ENDBRANCH  14  15
ENDBRANCH   8  14
BRANCH  11  30
HETATM   30  C   UNL     1      -9.597  15.913  70.348  1.00  0.00     0.857 A  
HETATM   31  C   UNL     1      -7.847  12.998  71.328  1.00  0.00     8.271 A  
HETATM   32  C   UNL     1      -8.032  12.240  72.491  1.00  0.00    17.703 A  
HETATM   33  N   UNL     1      -8.650  15.025  70.083  1.00  0.00     0.423 NA 
HETATM   34  C   UNL     1     -11.196  16.381  72.265  1.00  0.00     0.595 C  
HETATM   35  C   UNL     1      -8.651  14.130  71.121  1.00  0.00     5.378 A  
HETATM   36  C   UNL     1      -9.000  12.599  73.427  1.00  0.00    22.045 A  
HETATM   37  N   UNL     1     -10.192  15.611  71.566  1.00  0.00     1.152 NA 
HETATM   38  C   UNL     1      -9.609  14.468  72.068  1.00  0.00     5.675 A  
HETATM   39  C   UNL     1      -9.812  13.722  73.236  1.00  0.00    11.092 A  
ENDBRANCH  11  30
ENDBRANCH   3   4
ENDBRANCH   2   3
TORSDOF 6
ENDMDL
MODEL      261
REMARK 921   NORMALIZED FREE ENERGY PREDICTED BY IDOCK:   73.69 KCAL/MOL
REMARK 922        TOTAL FREE ENERGY PREDICTED BY IDOCK:   97.54 KCAL/MOL
REMARK 923 INTER-LIGAND FREE ENERGY PREDICTED BY IDOCK:   78.29 KCAL/MOL
REMARK 924 INTRA-LIGAND FREE ENERGY PREDICTED BY IDOCK:   19.24 KCAL/MOL
REMARK 927      BINDING AFFINITY PREDICTED BY RF-SCORE:    0.00 PKD
ROOT
HETATM    1  C   UNL     1     -12.832   5.996  66.557  1.00  0.00     8.611 C  
HETATM    2  C   UNL     1     -13.366   5.144  67.701  1.00  0.00    20.430 C  
ENDROOT
BRANCH   2   3
HETATM    3  C   UNL     1     -13.220   5.802  69.080  1.00  0.00    11.202 C  
BRANCH   3   4
HETATM    4  C   UNL     1     -12.059   6.741  69.139  1.00  0.00     1.129 A  
HETATM    5  N   UNL     1     -11.064   6.608  69.998  1.00  0.00    -0.309 NA 
HETATM    6  C   UNL     1     -10.258   7.702  69.830  1.00  0.00    -0.215 A  
HETATM    7  C   UNL     1     -10.751   8.507  68.815  1.00  0.00    -0.054 A  
HETATM    8  N   UNL     1     -11.869   7.853  68.340  1.00  0.00     1.891 NA 
HETATM    9  C   UNL     1     -10.158   9.723  68.470  1.00  0.00    -0.185 A  
HETATM   10  C   UNL     1      -9.105   8.086  70.543  1.00  0.00    -0.153 A  
HETATM   11  C   UNL     1      -8.964  10.090  69.102  1.00  0.00    -0.172 A  
HETATM   12  C   UNL     1      -8.577   7.277  71.690  1.00  0.00    -0.120 C  
HETATM   13  C   UNL     1      -8.470   9.286  70.144  1.00  0.00    -0.206 A  
BRANCH   8  14
HETATM   14  C   UNL     1     -12.758   8.391  67.309  1.00  0.00    11.701 C  
BRANCH  14  15
HETATM   15  C   UNL     1     -12.282   9.642  66.590  1.00  0.00     6.774 A  
HETATM   16  C   UNL     1     -13.013  10.287  65.593  1.00  0.00    11.232 A  
HETATM   17  C   UNL     1     -10.730  11.557  66.552  1.00  0.00    -0.318 A  
HETATM   18  C   UNL     1     -11.115  10.289  67.037  1.00  0.00    -0.104 A  
HETATM   19  C   UNL     1     -12.597  11.535  65.083  1.00  0.00     1.680 A  
HETATM   20  C   UNL     1     -11.465  12.230  65.564  1.00  0.00    -0.408 A  
BRANCH  20  21
HETATM   21  C   UNL     1     -11.148  13.615  65.073  1.00  0.00    -0.338 A  
HETATM   22  C   UNL     1     -12.000  15.666  63.973  1.00  0.00     0.074 A  
HETATM   23  C   UNL     1     -12.192  14.379  64.504  1.00  0.00    -0.483 A  
HETATM   24  C   UNL     1      -9.708  15.564  64.589  1.00  0.00     1.366 A  
HETATM   25  C   UNL     1      -9.891  14.262  65.130  1.00  0.00    -0.141 A  
HETATM   26  C   UNL     1     -10.756  16.251  63.993  1.00  0.00     1.790 A  
HETATM   27  C   UNL     1      -8.665  13.650  65.695  1.00  0.00     1.487 C  
HETATM   28  O   UNL     1      -8.029  14.581  66.441  1.00  0.00     0.495 OA 
HETATM   29  O   UNL     1      -8.224  12.540  65.473  1.00  0.00     1.295 OA 
ENDBRANCH  20  21
ENDBRANCH  14  15
ENDBRANCH   8  14
BRANCH  11  30
HETATM   30  C   UNL     1      -8.238  11.311  68.712  1.00  0.00    -0.122 A  
HETATM   31  C   UNL     1      -5.523  13.179  67.425  1.00  0.00     0.069 A  
HETATM   32  C   UNL     1      -5.448  14.566  67.244  1.00  0.00     0.606 A  
HETATM   33  N   UNL     1      -7.013  11.316  68.210  1.00  0.00    -0.068 NA 
HETATM   34  C   UNL     1     -10.056  13.030  69.147  1.00  0.00     0.319 C  
HETATM   35  C   UNL     1      -6.699  12.626  67.956  1.00  0.00    -0.095 A  
HETATM   36  C   UNL     1      -6.521  15.387  67.589  1.00  0.00    -0.190 A  
HETATM   37  N   UNL     1      -8.729  12.610  68.760  1.00  0.00     0.078 NA 
HETATM   38  C   UNL     1      -7.754  13.464  68.292  1.00  0.00    -0.141 A  
HETATM   39  C   UNL     1      -7.699  14.853  68.122  1.00  0.00    -0.117 A  
ENDBRANCH  11  30
ENDBRANCH   3   4
ENDBRANCH   2   3
TORSDOF 6
ENDMDL
MODEL      262
REMARK 921   NORMALIZED FREE ENERGY PREDICTED BY IDOCK:   81.63 KCAL/MOL
REMARK 922        TOTAL FREE ENERGY PREDICTED BY IDOCK:  108.26 KCAL/MOL
REMARK 923 INTER-LIGAND FREE ENERGY PREDICTED BY IDOCK:  105.81 KCAL/MOL
REMARK 924 INTRA-LIGAND FREE ENERGY PREDICTED BY IDOCK:    2.45 KCAL/MOL
REMARK 927      BINDING AFFINITY PREDICTED BY RF-SCORE:    0.00 PKD
ROOT
HETATM    1  C   UNL     1      -7.716  21.125  64.607  1.00  0.00     1.436 C  
HETATM    2  C   UNL     1      -8.502  21.085  63.303  1.00  0.00     4.015 C  
ENDROOT
BRANCH   2   3
HETATM    3  C   UNL     1      -9.753  20.198  63.364  1.00  0.00    11.469 C  
BRANCH   3   4
HETATM    4  C   UNL     1     -10.008  19.671  64.740  1.00  0.00     2.685 A  
HETATM    5  N   UNL     1     -10.941  20.156  65.539  1.00  0.00    -0.096 NA 
HETATM    6  C   UNL     1     -10.802  19.508  66.736  1.00  0.00    -0.390 A  
HETATM    7  C   UNL     1      -9.781  18.572  66.657  1.00  0.00    -0.341 A  
HETATM    8  N   UNL     1      -9.320  18.643  65.358  1.00  0.00     0.490 NA 
HETATM    9  C   UNL     1      -9.382  17.806  67.754  1.00  0.00    -0.257 A  
HETATM   10  C   UNL     1     -11.495  19.699  67.948  1.00  0.00     0.912 A  
HETATM   11  C   UNL     1     -10.107  17.914  68.946  1.00  0.00    -0.349 A  
HETATM   12  C   UNL     1     -12.560  20.746  68.094  1.00  0.00     5.901 C  
HETATM   13  C   UNL     1     -11.131  18.873  69.037  1.00  0.00     1.692 A  
BRANCH   8  14
HETATM   14  C   UNL     1      -8.179  17.880  64.851  1.00  0.00     3.967 C  
BRANCH  14  15
HETATM   15  C   UNL     1      -8.125  16.410  65.229  1.00  0.00     2.908 A  
HETATM   16  C   UNL     1      -8.746  15.878  66.359  1.00  0.00    -0.362 A  
HETATM   17  C   UNL     1      -7.648  14.096  64.523  1.00  0.00    14.635 A  
HETATM   18  C   UNL     1      -7.550  15.491  64.331  1.00  0.00    14.103 A  
HETATM   19  C   UNL     1      -8.800  14.483  66.564  1.00  0.00    -0.156 A  
HETATM   20  C   UNL     1      -8.286  13.543  65.644  1.00  0.00     2.830 A  
BRANCH  20  21
HETATM   21  C   UNL     1      -8.492  12.069  65.856  1.00  0.00     0.379 A  
HETATM   22  C   UNL     1      -8.486  10.189  67.471  1.00  0.00    -0.118 A  
HETATM   23  C   UNL     1      -8.359  11.556  67.165  1.00  0.00    -0.160 A  
HETATM   24  C   UNL     1      -8.951   9.735  65.186  1.00  0.00    -0.237 A  
HETATM   25  C   UNL     1      -8.826  11.115  64.866  1.00  0.00     0.012 A  
HETATM   26  C   UNL     1      -8.758   9.275  66.481  1.00  0.00    -0.145 A  
HETATM   27  C   UNL     1      -9.023  11.436  63.433  1.00  0.00     0.030 C  
HETATM   28  O   UNL     1     -10.109  10.761  62.990  1.00  0.00    -0.304 OA 
HETATM   29  O   UNL     1      -8.304  12.108  62.720  1.00  0.00     0.675 OA 
ENDBRANCH  20  21
ENDBRANCH  14  15
ENDBRANCH   8  14
BRANCH  11  30
HETATM   30  C   UNL     1      -9.798  17.061  70.107  1.00  0.00     1.123 A  
HETATM   31  C   UNL     1     -10.535  15.102  72.959  1.00  0.00     3.147 A  
HETATM   32  C   UNL     1      -9.636  14.383  73.759  1.00  0.00     8.842 A  
HETATM   33  N   UNL     1     -10.710  16.582  70.939  1.00  0.00     0.355 NA 
HETATM   34  C   UNL     1      -7.294  16.800  69.773  1.00  0.00     0.474 C  
HETATM   35  C   UNL     1     -10.039  15.824  71.863  1.00  0.00     2.897 A  
HETATM   36  C   UNL     1      -8.271  14.387  73.474  1.00  0.00     8.771 A  
HETATM   37  N   UNL     1      -8.542  16.595  70.473  1.00  0.00     2.883 NA 
HETATM   38  C   UNL     1      -8.676  15.813  71.600  1.00  0.00     6.029 A  
HETATM   39  C   UNL     1      -7.760  15.104  72.388  1.00  0.00     6.062 A  
ENDBRANCH  11  30
ENDBRANCH   3   4
ENDBRANCH   2   3
TORSDOF 6
ENDMDL
MODEL      263
REMARK 921   NORMALIZED FREE ENERGY PREDICTED BY IDOCK:   89.22 KCAL/MOL
REMARK 922        TOTAL FREE ENERGY PREDICTED BY IDOCK:  118.52 KCAL/MOL
REMARK 923 INTER-LIGAND FREE ENERGY PREDICTED BY IDOCK:   92.37 KCAL/MOL
REMARK 924 INTRA-LIGAND FREE ENERGY PREDICTED BY IDOCK:   26.15 KCAL/MOL
REMARK 927      BINDING AFFINITY PREDICTED BY RF-SCORE:    0.00 PKD
ROOT
HETATM    1  C   UNL     1      -7.714  21.124  64.601  1.00  0.00     1.436 C  
HETATM    2  C   UNL     1      -8.489  21.063  63.291  1.00  0.00     4.015 C  
ENDROOT
BRANCH   2   3
HETATM    3  C   UNL     1      -9.706  20.129  63.338  1.00  0.00    11.469 C  
BRANCH   3   4
HETATM    4  C   UNL     1      -9.934  19.564  64.702  1.00  0.00     3.576 A  
HETATM    5  N   UNL     1     -10.891  19.984  65.509  1.00  0.00    -0.259 NA 
HETATM    6  C   UNL     1     -10.720  19.320  66.694  1.00  0.00    -0.410 A  
HETATM    7  C   UNL     1      -9.652  18.441  66.599  1.00  0.00    -0.320 A  
HETATM    8  N   UNL     1      -9.195  18.561  65.302  1.00  0.00     0.943 NA 
HETATM    9  C   UNL     1      -9.215  17.675  67.681  1.00  0.00    -0.245 A  
HETATM   10  C   UNL     1     -11.423  19.452  67.908  1.00  0.00     0.879 A  
HETATM   11  C   UNL     1      -9.945  17.722  68.874  1.00  0.00    -0.332 A  
HETATM   12  C   UNL     1     -12.541  20.439  68.072  1.00  0.00     5.033 C  
HETATM   13  C   UNL     1     -11.018  18.625  68.981  1.00  0.00     1.248 A  
BRANCH   8  14
HETATM   14  C   UNL     1      -8.015  17.868  64.782  1.00  0.00     4.501 C  
BRANCH  14  15
HETATM   15  C   UNL     1      -7.473  16.726  65.625  1.00  0.00     1.106 A  
HETATM   16  C   UNL     1      -7.674  16.617  67.001  1.00  0.00    -0.235 A  
HETATM   17  C   UNL     1      -6.518  14.454  65.684  1.00  0.00     9.563 A  
HETATM   18  C   UNL     1      -6.859  15.633  64.986  1.00  0.00    10.387 A  
HETATM   19  C   UNL     1      -7.290  15.452  67.697  1.00  0.00    -0.203 A  
HETATM   20  C   UNL     1      -6.731  14.319  67.064  1.00  0.00     0.827 A  
BRANCH  20  21
HETATM   21  C   UNL     1      -6.465  13.059  67.840  1.00  0.00    -0.130 A  
HETATM   22  C   UNL     1      -5.827  10.666  67.746  1.00  0.00    -0.043 A  
HETATM   23  C   UNL     1      -6.059  11.908  67.129  1.00  0.00    -0.152 A  
HETATM   24  C   UNL     1      -6.330  11.635  69.856  1.00  0.00    -0.124 A  
HETATM   25  C   UNL     1      -6.566  12.896  69.242  1.00  0.00    -0.085 A  
HETATM   26  C   UNL     1      -5.984  10.522  69.104  1.00  0.00    -0.040 A  
HETATM   27  C   UNL     1      -6.965  13.973  70.178  1.00  0.00     0.290 C  
HETATM   28  O   UNL     1      -6.156  13.918  71.260  1.00  0.00    -0.179 OA 
HETATM   29  O   UNL     1      -7.908  14.733  70.073  1.00  0.00     0.075 OA 
ENDBRANCH  20  21
ENDBRANCH  14  15
ENDBRANCH   8  14
BRANCH  11  30
HETATM   30  C   UNL     1      -9.594  16.864  70.019  1.00  0.00     1.068 A  
HETATM   31  C   UNL     1     -10.229  14.812  72.829  1.00  0.00     4.247 A  
HETATM   32  C   UNL     1      -9.295  14.126  73.617  1.00  0.00    10.132 A  
HETATM   33  N   UNL     1     -10.480  16.321  70.839  1.00  0.00     0.583 NA 
HETATM   34  C   UNL     1      -7.078  16.743  69.687  1.00  0.00     0.105 C  
HETATM   35  C   UNL     1      -9.771  15.581  71.749  1.00  0.00     3.494 A  
HETATM   36  C   UNL     1      -7.932  14.209  73.337  1.00  0.00     8.237 A  
HETATM   37  N   UNL     1      -8.314  16.458  70.379  1.00  0.00     2.070 NA 
HETATM   38  C   UNL     1      -8.409  15.648  71.490  1.00  0.00     5.251 A  
HETATM   39  C   UNL     1      -7.458  14.973  72.266  1.00  0.00     4.592 A  
ENDBRANCH  11  30
ENDBRANCH   3   4
ENDBRANCH   2   3
TORSDOF 6
ENDMDL
MODEL      264
REMARK 921   NORMALIZED FREE ENERGY PREDICTED BY IDOCK:   98.02 KCAL/MOL
REMARK 922        TOTAL FREE ENERGY PREDICTED BY IDOCK:  130.40 KCAL/MOL
REMARK 923 INTER-LIGAND FREE ENERGY PREDICTED BY IDOCK:  126.71 KCAL/MOL
REMARK 924 INTRA-LIGAND FREE ENERGY PREDICTED BY IDOCK:    3.69 KCAL/MOL
REMARK 927      BINDING AFFINITY PREDICTED BY RF-SCORE:    0.00 PKD
ROOT
HETATM    1  C   UNL     1     -10.608  21.012  64.960  1.00  0.00     2.120 C  
HETATM    2  C   UNL     1     -11.814  20.847  64.045  1.00  0.00     4.650 C  
ENDROOT
BRANCH   2   3
HETATM    3  C   UNL     1     -13.125  20.572  64.795  1.00  0.00    11.644 C  
BRANCH   3   4
HETATM    4  C   UNL     1     -12.892  19.935  66.127  1.00  0.00     7.204 A  
HETATM    5  N   UNL     1     -12.829  20.619  67.255  1.00  0.00     5.042 NA 
HETATM    6  C   UNL     1     -12.497  19.722  68.234  1.00  0.00     5.397 A  
HETATM    7  C   UNL     1     -12.391  18.447  67.699  1.00  0.00     4.361 A  
HETATM    8  N   UNL     1     -12.705  18.585  66.363  1.00  0.00     7.054 NA 
HETATM    9  C   UNL     1     -12.005  17.345  68.464  1.00  0.00     2.075 A  
HETATM   10  C   UNL     1     -12.232  19.941  69.601  1.00  0.00     8.885 A  
HETATM   11  C   UNL     1     -11.818  17.516  69.840  1.00  0.00     3.685 A  
HETATM   12  C   UNL     1     -12.271  21.314  70.205  1.00  0.00     6.969 C  
HETATM   13  C   UNL     1     -11.906  18.810  70.384  1.00  0.00     8.874 A  
BRANCH   8  14
HETATM   14  C   UNL     1     -12.640  17.495  65.389  1.00  0.00     7.567 C  
BRANCH  14  15
HETATM   15  C   UNL     1     -11.846  16.266  65.799  1.00  0.00     1.238 A  
HETATM   16  C   UNL     1     -11.189  16.142  67.023  1.00  0.00     0.090 A  
HETATM   17  C   UNL     1     -11.341  13.886  65.399  1.00  0.00    -0.311 A  
HETATM   18  C   UNL     1     -11.883  15.121  64.982  1.00  0.00    -0.180 A  
HETATM   19  C   UNL     1     -10.612  14.915  67.413  1.00  0.00    -0.263 A  
HETATM   20  C   UNL     1     -10.694  13.738  66.635  1.00  0.00    -0.277 A  
BRANCH  20  21
HETATM   21  C   UNL     1     -10.174  12.430  67.165  1.00  0.00    -0.226 A  
HETATM   22  C   UNL     1      -8.582  10.557  66.852  1.00  0.00    -0.125 A  
HETATM   23  C   UNL     1      -9.116  11.801  66.472  1.00  0.00    -0.203 A  
HETATM   24  C   UNL     1     -10.083  10.490  68.692  1.00  0.00    -0.190 A  
HETATM   25  C   UNL     1     -10.629  11.748  68.318  1.00  0.00    -0.236 A  
HETATM   26  C   UNL     1      -9.079   9.889  67.946  1.00  0.00    -0.135 A  
HETATM   27  C   UNL     1     -11.719  12.234  69.196  1.00  0.00    -0.323 C  
HETATM   28  O   UNL     1     -11.348  12.042  70.482  1.00  0.00     0.220 OA 
HETATM   29  O   UNL     1     -12.810  12.649  68.859  1.00  0.00     0.825 OA 
ENDBRANCH  20  21
ENDBRANCH  14  15
ENDBRANCH   8  14
BRANCH  11  30
HETATM   30  C   UNL     1     -11.507  16.373  70.716  1.00  0.00    -0.169 A  
HETATM   31  C   UNL     1      -9.441  14.292  72.695  1.00  0.00     8.570 A  
HETATM   32  C   UNL     1      -9.824  13.172  73.447  1.00  0.00    16.633 A  
HETATM   33  N   UNL     1     -10.298  16.104  71.184  1.00  0.00     1.006 NA 
HETATM   34  C   UNL     1     -13.851  15.447  71.034  1.00  0.00    -0.276 C  
HETATM   35  C   UNL     1     -10.420  14.989  71.971  1.00  0.00     1.681 A  
HETATM   36  C   UNL     1     -11.153  12.754  73.472  1.00  0.00    12.522 A  
HETATM   37  N   UNL     1     -12.417  15.451  71.218  1.00  0.00    -0.361 NA 
HETATM   38  C   UNL     1     -11.738  14.552  72.012  1.00  0.00     0.108 A  
HETATM   39  C   UNL     1     -12.141  13.435  72.754  1.00  0.00     1.568 A  
ENDBRANCH  11  30
ENDBRANCH   3   4
ENDBRANCH   2   3
TORSDOF 6
ENDMDL
MODEL      265
REMARK 921   NORMALIZED FREE ENERGY PREDICTED BY IDOCK:  111.36 KCAL/MOL
REMARK 922        TOTAL FREE ENERGY PREDICTED BY IDOCK:  148.42 KCAL/MOL
REMARK 923 INTER-LIGAND FREE ENERGY PREDICTED BY IDOCK:  128.22 KCAL/MOL
REMARK 924 INTRA-LIGAND FREE ENERGY PREDICTED BY IDOCK:   20.19 KCAL/MOL
REMARK 927      BINDING AFFINITY PREDICTED BY RF-SCORE:    0.00 PKD
ROOT
HETATM    1  C   UNL     1      -6.971  19.828  66.553  1.00  0.00    -0.233 C  
HETATM    2  C   UNL     1      -6.592  19.356  65.156  1.00  0.00    -0.269 C  
ENDROOT
BRANCH   2   3
HETATM    3  C   UNL     1      -6.838  17.858  64.923  1.00  0.00     1.623 C  
BRANCH   3   4
HETATM    4  C   UNL     1      -7.653  17.242  66.014  1.00  0.00    -0.191 A  
HETATM    5  N   UNL     1      -8.699  17.836  66.559  1.00  0.00    -0.279 NA 
HETATM    6  C   UNL     1      -9.113  17.028  67.584  1.00  0.00    -0.229 A  
HETATM    7  C   UNL     1      -8.324  15.890  67.644  1.00  0.00    -0.152 A  
HETATM    8  N   UNL     1      -7.431  16.009  66.598  1.00  0.00    -0.186 NA 
HETATM    9  C   UNL     1      -8.485  14.919  68.634  1.00  0.00    -0.166 A  
HETATM   10  C   UNL     1     -10.139  17.230  68.528  1.00  0.00    -0.341 A  
HETATM   11  C   UNL     1      -9.549  15.050  69.534  1.00  0.00    -0.094 A  
HETATM   12  C   UNL     1     -10.972  18.477  68.539  1.00  0.00     0.551 C  
HETATM   13  C   UNL     1     -10.341  16.211  69.488  1.00  0.00    -0.282 A  
BRANCH   8  14
HETATM   14  C   UNL     1      -6.348  15.061  66.333  1.00  0.00     3.252 C  
BRANCH  14  15
HETATM   15  C   UNL     1      -6.160  13.945  67.348  1.00  0.00     0.187 A  
HETATM   16  C   UNL     1      -6.930  13.812  68.503  1.00  0.00    -0.103 A  
HETATM   17  C   UNL     1      -5.199  11.732  67.852  1.00  0.00    -0.051 A  
HETATM   18  C   UNL     1      -5.270  12.895  67.056  1.00  0.00     0.406 A  
HETATM   19  C   UNL     1      -6.820  12.665  69.317  1.00  0.00    -0.012 A  
HETATM   20  C   UNL     1      -5.980  11.573  69.007  1.00  0.00    -0.052 A  
BRANCH  20  21
HETATM   21  C   UNL     1      -6.005  10.323  69.843  1.00  0.00    -0.056 A  
HETATM   22  C   UNL     1      -5.149   8.017  70.145  1.00  0.00    -0.023 A  
HETATM   23  C   UNL     1      -5.173   9.246  69.463  1.00  0.00    -0.035 A  
HETATM   24  C   UNL     1      -6.749   8.856  71.687  1.00  0.00    -0.067 A  
HETATM   25  C   UNL     1      -6.780  10.104  71.006  1.00  0.00     0.244 A  
HETATM   26  C   UNL     1      -5.952   7.811  71.242  1.00  0.00    -0.035 A  
HETATM   27  C   UNL     1      -7.711  11.101  71.586  1.00  0.00     7.421 C  
HETATM   28  O   UNL     1      -7.557  11.097  72.929  1.00  0.00     9.341 OA 
HETATM   29  O   UNL     1      -8.548  11.758  71.000  1.00  0.00     6.485 OA 
ENDBRANCH  20  21
ENDBRANCH  14  15
ENDBRANCH   8  14
BRANCH  11  30
HETATM   30  C   UNL     1      -9.833  14.009  70.538  1.00  0.00     2.692 A  
HETATM   31  C   UNL     1      -9.200  12.028  73.399  1.00  0.00    24.644 A  
HETATM   32  C   UNL     1     -10.035  11.057  73.970  1.00  0.00    21.008 A  
HETATM   33  N   UNL     1      -9.016  13.695  71.531  1.00  0.00     8.922 NA 
HETATM   34  C   UNL     1     -12.173  13.353  69.801  1.00  0.00    -0.245 C  
HETATM   35  C   UNL     1      -9.637  12.710  72.253  1.00  0.00    19.836 A  
HETATM   36  C   UNL     1     -11.278  10.770  73.407  1.00  0.00    12.031 A  
HETATM   37  N   UNL     1     -10.992  13.250  70.628  1.00  0.00     1.439 NA 
HETATM   38  C   UNL     1     -10.879  12.405  71.711  1.00  0.00     7.500 A  
HETATM   39  C   UNL     1     -11.727  11.437  72.264  1.00  0.00     3.741 A  
ENDBRANCH  11  30
ENDBRANCH   3   4
ENDBRANCH   2   3
TORSDOF 6
ENDMDL
