MODEL        1
REMARK 921   NORMALIZED FREE ENERGY PREDICTED BY IDOCK:   -8.23 KCAL/MOL
REMARK 922        TOTAL FREE ENERGY PREDICTED BY IDOCK:  -15.39 KCAL/MOL
REMARK 923 INTER-LIGAND FREE ENERGY PREDICTED BY IDOCK:  -13.04 KCAL/MOL
REMARK 924 INTRA-LIGAND FREE ENERGY PREDICTED BY IDOCK:   -2.34 KCAL/MOL
REMARK 927      BINDING AFFINITY PREDICTED BY RF-SCORE:    0.00 PKD
ROOT
HETATM    1  C   UNL     1     -12.726  11.871  63.602  1.00  0.00    -0.509 C  
HETATM    2  C   UNL     1     -11.796  13.063  63.473  1.00  0.00    -0.516 C  
ENDROOT
BRANCH   2   3
HETATM    3  O   UNL     1     -12.567  14.246  63.712  1.00  0.00    -0.821 OA 
BRANCH   3   4
HETATM    4  C   UNL     1     -11.865  15.284  64.262  1.00  0.00    -0.225 C  
HETATM    5  O   UNL     1     -11.904  16.444  63.876  1.00  0.00    -1.034 OA 
BRANCH   4   6
HETATM    6  C   UNL     1     -11.057  14.754  65.454  1.00  0.00    -0.357 C  
HETATM    7  N   UNL     1      -9.791  15.518  65.557  1.00  0.00    -0.334 NA 
HETATM    8  H2  UNL     1      -9.948  16.525  65.611  1.00  0.00     0.000 HD 
HETATM    9  H1  UNL     1      -9.254  15.165  66.349  1.00  0.00     0.000 HD 
BRANCH   6  10
HETATM   10  C   UNL     1     -11.884  14.835  66.756  1.00  0.00    -0.272 C  
BRANCH  10  11
HETATM   11  C   UNL     1     -11.789  13.650  67.708  1.00  0.00    -0.403 A  
HETATM   12  C   UNL     1     -11.569  12.335  67.286  1.00  0.00    -0.427 A  
HETATM   13  C   UNL     1     -11.515  11.271  68.219  1.00  0.00    -0.378 A  
HETATM   14  C   UNL     1     -11.687  11.467  69.607  1.00  0.00    -0.415 A  
HETATM   15  C   UNL     1     -11.827  12.808  70.008  1.00  0.00    -0.352 A  
HETATM   16  C   UNL     1     -11.885  13.868  69.086  1.00  0.00    -0.401 A  
BRANCH  14  17
HETATM   17  C   UNL     1     -11.818  10.319  70.572  1.00  0.00    -0.329 A  
HETATM   18  N   UNL     1     -13.006  10.191  71.207  1.00  0.00    -0.386 NA 
HETATM   19  C   UNL     1     -13.095   9.294  72.200  1.00  0.00    -0.443 A  
HETATM   20  N   UNL     1     -12.090   8.553  72.679  1.00  0.00    -0.331 NA 
HETATM   21  N   UNL     1     -14.309   9.184  72.847  1.00  0.00    -1.054 NA 
HETATM   22  H1  UNL     1     -14.377   8.502  73.602  1.00  0.00     0.000 HD 
HETATM   23  C   UNL     1     -10.931   8.679  72.027  1.00  0.00    -0.362 A  
HETATM   24  H2  UNL     1     -15.107   9.761  72.580  1.00  0.00     0.000 HD 
HETATM   25  C   UNL     1     -10.754   9.509  70.936  1.00  0.00    -0.403 A  
BRANCH  23  26
HETATM   26  O   UNL     1      -9.787   8.079  72.523  1.00  0.00    -0.211 OA 
BRANCH  26  27
HETATM   27  C   UNL     1      -9.172   7.040  71.722  1.00  0.00    -0.141 C  
HETATM   28  C   UNL     1      -7.641   7.150  71.510  1.00  0.00    -0.088 C  
HETATM   29  F   UNL     1      -7.107   8.326  71.908  1.00  0.00    -0.062 F  
HETATM   30  F   UNL     1      -7.365   7.029  70.178  1.00  0.00    -0.072 F  
HETATM   31  F   UNL     1      -6.938   6.161  72.114  1.00  0.00    -0.070 F  
BRANCH  27  32
HETATM   32  C   UNL     1      -9.608   5.627  72.221  1.00  0.00    -0.170 A  
HETATM   33  C   UNL     1      -9.804   5.488  73.616  1.00  0.00    -0.174 A  
HETATM   34  C   UNL     1     -10.050   4.245  74.205  1.00  0.00    -0.224 A  
HETATM   35  C   UNL     1     -10.086   3.105  73.417  1.00  0.00    -0.118 A  
HETATM   36  C   UNL     1      -9.995   3.208  72.029  1.00  0.00    -0.223 A  
HETATM   37 CL   UNL     1     -10.253   1.557  74.151  1.00  0.00    -0.123 Cl 
HETATM   38  C   UNL     1      -9.817   4.467  71.417  1.00  0.00    -0.192 A  
BRANCH  38  39
HETATM   39  N   UNL     1      -9.889   4.532  69.995  1.00  0.00    -0.217 NA 
HETATM   40  C   UNL     1      -9.238   3.770  69.042  1.00  0.00    -0.156 A  
HETATM   41  C   UNL     1      -9.484   4.371  67.826  1.00  0.00    -0.207 A  
HETATM   42  C   UNL     1     -10.355   5.425  68.130  1.00  0.00    -0.145 A  
HETATM   43  N   UNL     1     -10.722   5.400  69.402  1.00  0.00    -0.238 NA 
HETATM   44  C   UNL     1     -10.868   6.520  67.269  1.00  0.00    -0.463 C  
ENDBRANCH  38  39
ENDBRANCH  27  32
ENDBRANCH  26  27
ENDBRANCH  23  26
ENDBRANCH  14  17
ENDBRANCH  10  11
ENDBRANCH   6  10
ENDBRANCH   4   6
ENDBRANCH   3   4
ENDBRANCH   2   3
TORSDOF 10
ENDMDL
MODEL        2
REMARK 921   NORMALIZED FREE ENERGY PREDICTED BY IDOCK:   -8.16 KCAL/MOL
REMARK 922        TOTAL FREE ENERGY PREDICTED BY IDOCK:  -15.27 KCAL/MOL
REMARK 923 INTER-LIGAND FREE ENERGY PREDICTED BY IDOCK:  -12.40 KCAL/MOL
REMARK 924 INTRA-LIGAND FREE ENERGY PREDICTED BY IDOCK:   -2.88 KCAL/MOL
REMARK 927      BINDING AFFINITY PREDICTED BY RF-SCORE:    0.00 PKD
ROOT
HETATM    1  C   UNL     1     -12.153  12.075  63.948  1.00  0.00    -0.557 C  
HETATM    2  C   UNL     1     -12.170  13.464  63.335  1.00  0.00    -0.349 C  
ENDROOT
BRANCH   2   3
HETATM    3  O   UNL     1     -12.554  14.389  64.359  1.00  0.00    -0.668 OA 
BRANCH   3   4
HETATM    4  C   UNL     1     -11.657  15.398  64.581  1.00  0.00    -0.311 C  
HETATM    5  O   UNL     1     -11.632  16.464  63.980  1.00  0.00    -1.071 OA 
BRANCH   4   6
HETATM    6  C   UNL     1     -10.721  14.982  65.724  1.00  0.00    -0.342 C  
HETATM    7  N   UNL     1      -9.429  15.693  65.572  1.00  0.00    -0.295 NA 
HETATM    8  H2  UNL     1      -9.546  16.705  65.515  1.00  0.00     0.000 HD 
HETATM    9  H1  UNL     1      -8.808  15.416  66.332  1.00  0.00     0.000 HD 
BRANCH   6  10
HETATM   10  C   UNL     1     -11.373  15.262  67.095  1.00  0.00    -0.247 C  
BRANCH  10  11
HETATM   11  C   UNL     1     -11.644  14.059  67.989  1.00  0.00    -0.372 A  
HETATM   12  C   UNL     1     -11.910  14.159  69.358  1.00  0.00    -0.378 A  
HETATM   13  C   UNL     1     -12.130  13.000  70.143  1.00  0.00    -0.377 A  
HETATM   14  C   UNL     1     -12.086  11.696  69.602  1.00  0.00    -0.345 A  
HETATM   15  C   UNL     1     -11.896  11.633  68.210  1.00  0.00    -0.335 A  
HETATM   16  C   UNL     1     -11.673  12.779  67.427  1.00  0.00    -0.425 A  
BRANCH  14  17
HETATM   17  C   UNL     1     -12.132  10.465  70.466  1.00  0.00    -0.332 A  
HETATM   18  N   UNL     1     -13.212  10.324  71.269  1.00  0.00    -0.374 NA 
HETATM   19  C   UNL     1     -13.198   9.337  72.177  1.00  0.00    -0.461 A  
HETATM   20  N   UNL     1     -12.175   8.509  72.418  1.00  0.00    -0.385 NA 
HETATM   21  N   UNL     1     -14.301   9.214  72.997  1.00  0.00    -1.093 NA 
HETATM   22  H1  UNL     1     -14.290   8.464  73.687  1.00  0.00     0.000 HD 
HETATM   23  C   UNL     1     -11.127   8.650  71.602  1.00  0.00    -0.305 A  
HETATM   24  H2  UNL     1     -15.096   9.849  72.916  1.00  0.00     0.000 HD 
HETATM   25  C   UNL     1     -11.074   9.577  70.579  1.00  0.00    -0.342 A  
BRANCH  23  26
HETATM   26  O   UNL     1      -9.957   7.955  71.851  1.00  0.00    -0.165 OA 
BRANCH  26  27
HETATM   27  C   UNL     1      -9.007   7.827  70.764  1.00  0.00    -0.148 C  
HETATM   28  C   UNL     1      -7.510   7.978  71.136  1.00  0.00    -0.070 C  
HETATM   29  F   UNL     1      -7.292   8.436  72.389  1.00  0.00    -0.109 F  
HETATM   30  F   UNL     1      -6.927   8.874  70.286  1.00  0.00    -0.037 F  
HETATM   31  F   UNL     1      -6.799   6.833  70.993  1.00  0.00    -0.053 F  
BRANCH  27  32
HETATM   32  C   UNL     1      -9.291   6.538  69.931  1.00  0.00    -0.155 A  
HETATM   33  C   UNL     1      -9.527   5.354  70.670  1.00  0.00    -0.215 A  
HETATM   34  C   UNL     1      -9.646   4.109  70.047  1.00  0.00    -0.274 A  
HETATM   35  C   UNL     1      -9.512   4.012  68.670  1.00  0.00    -0.154 A  
HETATM   36  C   UNL     1      -9.377   5.164  67.895  1.00  0.00    -0.139 A  
HETATM   37 CL   UNL     1      -9.523   2.467  67.912  1.00  0.00    -0.232 Cl 
HETATM   38  C   UNL     1      -9.326   6.434  68.508  1.00  0.00    -0.122 A  
BRANCH  38  39
HETATM   39  N   UNL     1      -9.346   7.582  67.664  1.00  0.00    -0.137 NA 
HETATM   40  C   UNL     1     -10.423   8.278  67.144  1.00  0.00    -0.316 A  
HETATM   41  C   UNL     1      -9.908   9.166  66.226  1.00  0.00    -0.359 A  
HETATM   42  C   UNL     1      -8.520   8.998  66.321  1.00  0.00    -0.125 A  
HETATM   43  N   UNL     1      -8.197   8.174  67.305  1.00  0.00    -0.120 NA 
HETATM   44  C   UNL     1      -7.428   9.569  65.491  1.00  0.00    -0.102 C  
ENDBRANCH  38  39
ENDBRANCH  27  32
ENDBRANCH  26  27
ENDBRANCH  23  26
ENDBRANCH  14  17
ENDBRANCH  10  11
ENDBRANCH   6  10
ENDBRANCH   4   6
ENDBRANCH   3   4
ENDBRANCH   2   3
TORSDOF 10
ENDMDL
MODEL        3
REMARK 921   NORMALIZED FREE ENERGY PREDICTED BY IDOCK:   -7.76 KCAL/MOL
REMARK 922        TOTAL FREE ENERGY PREDICTED BY IDOCK:  -14.64 KCAL/MOL
REMARK 923 INTER-LIGAND FREE ENERGY PREDICTED BY IDOCK:  -12.54 KCAL/MOL
REMARK 924 INTRA-LIGAND FREE ENERGY PREDICTED BY IDOCK:   -2.10 KCAL/MOL
REMARK 927      BINDING AFFINITY PREDICTED BY RF-SCORE:    0.00 PKD
ROOT
HETATM    1  C   UNL     1     -10.263  19.165  66.087  1.00  0.00    -0.535 C  
HETATM    2  C   UNL     1     -10.587  17.728  66.456  1.00  0.00    -0.220 C  
ENDROOT
BRANCH   2   3
HETATM    3  O   UNL     1     -10.029  16.881  65.445  1.00  0.00    -0.568 OA 
BRANCH   3   4
HETATM    4  C   UNL     1     -10.937  16.080  64.807  1.00  0.00    -0.356 C  
HETATM    5  O   UNL     1     -11.652  16.428  63.877  1.00  0.00    -1.100 OA 
BRANCH   4   6
HETATM    6  C   UNL     1     -10.878  14.678  65.428  1.00  0.00    -0.356 C  
HETATM    7  N   UNL     1      -9.569  14.503  66.100  1.00  0.00    -0.376 NA 
HETATM    8  H2  UNL     1      -9.380  15.238  66.782  1.00  0.00     0.000 HD 
HETATM    9  H1  UNL     1      -9.530  13.571  66.513  1.00  0.00     0.000 HD 
BRANCH   6  10
HETATM   10  C   UNL     1     -12.057  14.461  66.401  1.00  0.00    -0.390 C  
BRANCH  10  11
HETATM   11  C   UNL     1     -11.917  13.332  67.415  1.00  0.00    -0.383 A  
HETATM   12  C   UNL     1     -11.648  12.007  67.062  1.00  0.00    -0.387 A  
HETATM   13  C   UNL     1     -11.553  10.996  68.049  1.00  0.00    -0.326 A  
HETATM   14  C   UNL     1     -11.729  11.259  69.426  1.00  0.00    -0.409 A  
HETATM   15  C   UNL     1     -11.918  12.613  69.756  1.00  0.00    -0.365 A  
HETATM   16  C   UNL     1     -12.018  13.620  68.779  1.00  0.00    -0.394 A  
BRANCH  14  17
HETATM   17  C   UNL     1     -11.815  10.160  70.451  1.00  0.00    -0.288 A  
HETATM   18  N   UNL     1     -12.987  10.039  71.117  1.00  0.00    -0.374 NA 
HETATM   19  C   UNL     1     -13.037   9.194  72.156  1.00  0.00    -0.446 A  
HETATM   20  N   UNL     1     -12.006   8.499  72.651  1.00  0.00    -0.331 NA 
HETATM   21  N   UNL     1     -14.235   9.091  72.834  1.00  0.00    -1.127 NA 
HETATM   22  H1  UNL     1     -14.272   8.448  73.624  1.00  0.00     0.000 HD 
HETATM   23  C   UNL     1     -10.864   8.616  71.968  1.00  0.00    -0.360 A  
HETATM   24  H2  UNL     1     -15.050   9.637  72.555  1.00  0.00     0.000 HD 
HETATM   25  C   UNL     1     -10.727   9.392  70.833  1.00  0.00    -0.393 A  
BRANCH  23  26
HETATM   26  O   UNL     1      -9.697   8.066  72.469  1.00  0.00    -0.206 OA 
BRANCH  26  27
HETATM   27  C   UNL     1      -8.780   7.460  71.526  1.00  0.00    -0.117 C  
HETATM   28  C   UNL     1      -7.270   7.611  71.840  1.00  0.00    -0.065 C  
HETATM   29  F   UNL     1      -6.993   8.485  72.833  1.00  0.00    -0.118 F  
HETATM   30  F   UNL     1      -6.627   8.071  70.726  1.00  0.00    -0.037 F  
HETATM   31  F   UNL     1      -6.661   6.440  72.148  1.00  0.00    -0.058 F  
BRANCH  27  32
HETATM   32  C   UNL     1      -9.185   5.982  71.231  1.00  0.00    -0.156 A  
HETATM   33  C   UNL     1      -9.218   5.108  72.344  1.00  0.00    -0.148 A  
HETATM   34  C   UNL     1      -9.420   3.733  72.195  1.00  0.00    -0.194 A  
HETATM   35  C   UNL     1      -9.576   3.194  70.927  1.00  0.00    -0.155 A  
HETATM   36  C   UNL     1      -9.648   4.030  69.813  1.00  0.00    -0.280 A  
HETATM   37 CL   UNL     1      -9.691   1.488  70.727  1.00  0.00    -0.166 Cl 
HETATM   38  C   UNL     1      -9.516   5.426  69.959  1.00  0.00    -0.160 A  
BRANCH  38  39
HETATM   39  N   UNL     1      -9.754   6.242  68.815  1.00  0.00    -0.127 NA 
HETATM   40  C   UNL     1     -10.949   6.695  68.286  1.00  0.00    -0.244 A  
HETATM   41  C   UNL     1     -10.649   7.260  67.066  1.00  0.00    -0.415 A  
HETATM   42  C   UNL     1      -9.252   7.181  66.982  1.00  0.00    -0.144 A  
HETATM   43  N   UNL     1      -8.723   6.729  68.108  1.00  0.00    -0.122 NA 
HETATM   44  C   UNL     1      -8.343   7.494  65.851  1.00  0.00    -0.140 C  
ENDBRANCH  38  39
ENDBRANCH  27  32
ENDBRANCH  26  27
ENDBRANCH  23  26
ENDBRANCH  14  17
ENDBRANCH  10  11
ENDBRANCH   6  10
ENDBRANCH   4   6
ENDBRANCH   3   4
ENDBRANCH   2   3
TORSDOF 10
ENDMDL
MODEL        4
REMARK 921   NORMALIZED FREE ENERGY PREDICTED BY IDOCK:   -7.69 KCAL/MOL
REMARK 922        TOTAL FREE ENERGY PREDICTED BY IDOCK:  -14.52 KCAL/MOL
REMARK 923 INTER-LIGAND FREE ENERGY PREDICTED BY IDOCK:  -12.53 KCAL/MOL
REMARK 924 INTRA-LIGAND FREE ENERGY PREDICTED BY IDOCK:   -1.98 KCAL/MOL
REMARK 927      BINDING AFFINITY PREDICTED BY RF-SCORE:    0.00 PKD
ROOT
HETATM    1  C   UNL     1      -9.363   3.516  69.526  1.00  0.00    -0.243 C  
HETATM    2  C   UNL     1      -9.987   4.781  70.087  1.00  0.00    -0.251 C  
ENDROOT
BRANCH   2   3
HETATM    3  O   UNL     1     -10.196   4.580  71.490  1.00  0.00    -0.184 OA 
BRANCH   3   4
HETATM    4  C   UNL     1      -9.846   5.644  72.277  1.00  0.00    -0.159 C  
HETATM    5  O   UNL     1      -8.763   6.212  72.252  1.00  0.00    -0.136 OA 
BRANCH   4   6
HETATM    6  C   UNL     1     -11.044   6.019  73.159  1.00  0.00    -0.203 C  
HETATM    7  N   UNL     1     -10.637   7.094  74.094  1.00  0.00    -0.564 NA 
HETATM    8  H2  UNL     1     -10.243   7.902  73.610  1.00  0.00     0.000 HD 
HETATM    9  H1  UNL     1     -11.434   7.343  74.680  1.00  0.00     0.000 HD 
BRANCH   6  10
HETATM   10  C   UNL     1     -12.252   6.437  72.293  1.00  0.00    -0.207 C  
BRANCH  10  11
HETATM   11  C   UNL     1     -12.304   7.890  71.836  1.00  0.00    -0.350 A  
HETATM   12  C   UNL     1     -11.427   8.435  70.893  1.00  0.00    -0.295 A  
HETATM   13  C   UNL     1     -11.509   9.801  70.527  1.00  0.00    -0.370 A  
HETATM   14  C   UNL     1     -12.459  10.682  71.089  1.00  0.00    -0.523 A  
HETATM   15  C   UNL     1     -13.377  10.087  71.973  1.00  0.00    -0.513 A  
HETATM   16  C   UNL     1     -13.297   8.733  72.343  1.00  0.00    -0.442 A  
BRANCH  14  17
HETATM   17  C   UNL     1     -12.424  12.166  70.842  1.00  0.00    -0.279 A  
HETATM   18  N   UNL     1     -12.985  12.954  71.789  1.00  0.00    -0.348 NA 
HETATM   19  C   UNL     1     -13.131  14.259  71.517  1.00  0.00    -0.343 A  
HETATM   20  N   UNL     1     -12.837  14.855  70.356  1.00  0.00    -0.316 NA 
HETATM   21  N   UNL     1     -13.716  15.047  72.487  1.00  0.00    -0.447 NA 
HETATM   22  H1  UNL     1     -13.827  16.039  72.281  1.00  0.00     0.000 HD 
HETATM   23  C   UNL     1     -12.266  14.066  69.442  1.00  0.00    -0.292 A  
HETATM   24  H2  UNL     1     -14.025  14.653  73.376  1.00  0.00     0.000 HD 
HETATM   25  C   UNL     1     -11.992  12.728  69.651  1.00  0.00    -0.354 A  
BRANCH  23  26
HETATM   26  O   UNL     1     -12.057  14.533  68.157  1.00  0.00    -0.294 OA 
BRANCH  26  27
HETATM   27  C   UNL     1     -11.514  13.605  67.184  1.00  0.00    -0.342 C  
HETATM   28  C   UNL     1     -12.126  13.663  65.762  1.00  0.00    -0.428 C  
HETATM   29  F   UNL     1     -13.245  14.414  65.668  1.00  0.00    -0.496 F  
HETATM   30  F   UNL     1     -12.470  12.400  65.373  1.00  0.00    -0.501 F  
HETATM   31  F   UNL     1     -11.260  14.106  64.818  1.00  0.00    -0.324 F  
BRANCH  27  32
HETATM   32  C   UNL     1      -9.955  13.670  67.170  1.00  0.00    -0.247 A  
HETATM   33  C   UNL     1      -9.278  12.431  67.068  1.00  0.00    -0.208 A  
HETATM   34  C   UNL     1      -7.889  12.339  67.193  1.00  0.00    -0.149 A  
HETATM   35  C   UNL     1      -7.143  13.480  67.441  1.00  0.00    -0.083 A  
HETATM   36  C   UNL     1      -7.757  14.732  67.451  1.00  0.00    -0.230 A  
HETATM   37 CL   UNL     1      -5.450  13.355  67.730  1.00  0.00    -0.110 Cl 
HETATM   38  C   UNL     1      -9.150  14.844  67.256  1.00  0.00    -0.201 A  
BRANCH  38  39
HETATM   39  N   UNL     1      -9.700  16.152  67.119  1.00  0.00    -0.230 NA 
HETATM   40  C   UNL     1     -10.177  16.797  65.992  1.00  0.00    -0.346 A  
HETATM   41  C   UNL     1     -10.394  18.108  66.353  1.00  0.00    -0.404 A  
HETATM   42  C   UNL     1     -10.108  18.143  67.724  1.00  0.00    -0.362 A  
HETATM   43  N   UNL     1      -9.863  16.931  68.199  1.00  0.00    -0.255 NA 
HETATM   44  C   UNL     1     -10.021  19.296  68.654  1.00  0.00    -0.506 C  
ENDBRANCH  38  39
ENDBRANCH  27  32
ENDBRANCH  26  27
ENDBRANCH  23  26
ENDBRANCH  14  17
ENDBRANCH  10  11
ENDBRANCH   6  10
ENDBRANCH   4   6
ENDBRANCH   3   4
ENDBRANCH   2   3
TORSDOF 10
ENDMDL
MODEL        5
REMARK 921   NORMALIZED FREE ENERGY PREDICTED BY IDOCK:   -7.68 KCAL/MOL
REMARK 922        TOTAL FREE ENERGY PREDICTED BY IDOCK:  -14.50 KCAL/MOL
REMARK 923 INTER-LIGAND FREE ENERGY PREDICTED BY IDOCK:  -12.40 KCAL/MOL
REMARK 924 INTRA-LIGAND FREE ENERGY PREDICTED BY IDOCK:   -2.10 KCAL/MOL
REMARK 927      BINDING AFFINITY PREDICTED BY RF-SCORE:    0.00 PKD
ROOT
HETATM    1  C   UNL     1      -9.812   4.972  68.316  1.00  0.00    -0.211 C  
HETATM    2  C   UNL     1     -10.171   6.129  69.231  1.00  0.00    -0.201 C  
ENDROOT
BRANCH   2   3
HETATM    3  O   UNL     1     -10.746   5.581  70.423  1.00  0.00    -0.285 OA 
BRANCH   3   4
HETATM    4  C   UNL     1     -10.259   6.110  71.587  1.00  0.00    -0.198 C  
HETATM    5  O   UNL     1      -9.073   6.223  71.868  1.00  0.00    -0.143 OA 
BRANCH   4   6
HETATM    6  C   UNL     1     -11.441   6.564  72.455  1.00  0.00    -0.271 C  
HETATM    7  N   UNL     1     -10.955   7.539  73.459  1.00  0.00    -0.541 NA 
HETATM    8  H2  UNL     1     -10.462   8.324  73.033  1.00  0.00     0.000 HD 
HETATM    9  H1  UNL     1     -11.741   7.840  74.036  1.00  0.00     0.000 HD 
BRANCH   6  10
HETATM   10  C   UNL     1     -12.567   7.154  71.579  1.00  0.00    -0.427 C  
BRANCH  10  11
HETATM   11  C   UNL     1     -12.573   8.666  71.388  1.00  0.00    -0.325 A  
HETATM   12  C   UNL     1     -11.748   9.332  70.476  1.00  0.00    -0.225 A  
HETATM   13  C   UNL     1     -11.781  10.743  70.362  1.00  0.00    -0.445 A  
HETATM   14  C   UNL     1     -12.628  11.550  71.153  1.00  0.00    -0.463 A  
HETATM   15  C   UNL     1     -13.501  10.847  72.002  1.00  0.00    -0.287 A  
HETATM   16  C   UNL     1     -13.470   9.447  72.123  1.00  0.00    -0.543 A  
BRANCH  14  17
HETATM   17  C   UNL     1     -12.528  13.052  71.165  1.00  0.00    -0.271 A  
HETATM   18  N   UNL     1     -13.016  13.686  72.257  1.00  0.00    -0.338 NA 
HETATM   19  C   UNL     1     -13.106  15.023  72.221  1.00  0.00    -0.358 A  
HETATM   20  N   UNL     1     -12.822  15.799  71.169  1.00  0.00    -0.478 NA 
HETATM   21  N   UNL     1     -13.617  15.655  73.336  1.00  0.00    -0.622 NA 
HETATM   22  H1  UNL     1     -13.686  16.671  73.309  1.00  0.00     0.000 HD 
HETATM   23  C   UNL     1     -12.323  15.158  70.109  1.00  0.00    -0.341 A  
HETATM   24  H2  UNL     1     -13.915  15.125  74.156  1.00  0.00     0.000 HD 
HETATM   25  C   UNL     1     -12.108  13.794  70.072  1.00  0.00    -0.416 A  
BRANCH  23  26
HETATM   26  O   UNL     1     -12.136  15.833  68.915  1.00  0.00    -0.333 OA 
BRANCH  26  27
HETATM   27  C   UNL     1     -10.982  15.475  68.115  1.00  0.00    -0.312 C  
HETATM   28  C   UNL     1     -11.270  14.747  66.778  1.00  0.00    -0.344 C  
HETATM   29  F   UNL     1     -12.549  14.334  66.635  1.00  0.00    -0.474 F  
HETATM   30  F   UNL     1     -10.489  13.629  66.702  1.00  0.00    -0.263 F  
HETATM   31  F   UNL     1     -10.955  15.481  65.683  1.00  0.00    -0.319 F  
BRANCH  27  32
HETATM   32  C   UNL     1     -10.031  16.700  67.937  1.00  0.00    -0.254 A  
HETATM   33  C   UNL     1     -10.656  17.952  67.723  1.00  0.00    -0.399 A  
HETATM   34  C   UNL     1      -9.921  19.097  67.403  1.00  0.00    -0.432 A  
HETATM   35  C   UNL     1      -8.543  19.015  67.270  1.00  0.00    -0.278 A  
HETATM   36  C   UNL     1      -7.878  17.826  67.567  1.00  0.00    -0.214 A  
HETATM   37 CL   UNL     1      -7.649  20.389  66.745  1.00  0.00    -0.332 Cl 
HETATM   38  C   UNL     1      -8.605  16.682  67.960  1.00  0.00    -0.193 A  
BRANCH  38  39
HETATM   39  N   UNL     1      -7.867  15.545  68.403  1.00  0.00    -0.123 NA 
HETATM   40  C   UNL     1      -7.285  15.293  69.632  1.00  0.00    -0.187 A  
HETATM   41  C   UNL     1      -6.516  14.161  69.476  1.00  0.00    -0.127 A  
HETATM   42  C   UNL     1      -6.762  13.753  68.158  1.00  0.00    -0.124 A  
HETATM   43  N   UNL     1      -7.703  14.491  67.590  1.00  0.00    -0.163 NA 
HETATM   44  C   UNL     1      -6.123  12.681  67.354  1.00  0.00    -0.142 C  
ENDBRANCH  38  39
ENDBRANCH  27  32
ENDBRANCH  26  27
ENDBRANCH  23  26
ENDBRANCH  14  17
ENDBRANCH  10  11
ENDBRANCH   6  10
ENDBRANCH   4   6
ENDBRANCH   3   4
ENDBRANCH   2   3
TORSDOF 10
ENDMDL
MODEL        6
REMARK 921   NORMALIZED FREE ENERGY PREDICTED BY IDOCK:   -7.47 KCAL/MOL
REMARK 922        TOTAL FREE ENERGY PREDICTED BY IDOCK:  -14.18 KCAL/MOL
REMARK 923 INTER-LIGAND FREE ENERGY PREDICTED BY IDOCK:  -11.77 KCAL/MOL
REMARK 924 INTRA-LIGAND FREE ENERGY PREDICTED BY IDOCK:   -2.41 KCAL/MOL
REMARK 927      BINDING AFFINITY PREDICTED BY RF-SCORE:    0.00 PKD
ROOT
HETATM    1  C   UNL     1     -12.971  11.322  71.724  1.00  0.00    -0.519 C  
HETATM    2  C   UNL     1     -13.140   9.896  71.233  1.00  0.00    -0.400 C  
ENDROOT
BRANCH   2   3
HETATM    3  O   UNL     1     -12.757   9.019  72.299  1.00  0.00    -0.380 OA 
BRANCH   3   4
HETATM    4  C   UNL     1     -12.484   7.735  71.911  1.00  0.00    -0.314 C  
HETATM    5  O   UNL     1     -13.234   7.022  71.258  1.00  0.00    -0.358 OA 
BRANCH   4   6
HETATM    6  C   UNL     1     -11.079   7.360  72.401  1.00  0.00    -0.287 C  
HETATM    7  N   UNL     1     -11.187   6.237  73.362  1.00  0.00    -0.449 NA 
HETATM    8  H2  UNL     1     -11.689   5.439  72.972  1.00  0.00     0.000 HD 
HETATM    9  H1  UNL     1     -10.253   5.989  73.687  1.00  0.00     0.000 HD 
BRANCH   6  10
HETATM   10  C   UNL     1     -10.160   7.012  71.211  1.00  0.00    -0.199 C  
BRANCH  10  11
HETATM   11  C   UNL     1     -10.143   7.989  70.042  1.00  0.00    -0.196 A  
HETATM   12  C   UNL     1      -9.717   9.316  70.151  1.00  0.00    -0.252 A  
HETATM   13  C   UNL     1      -9.749  10.185  69.033  1.00  0.00    -0.212 A  
HETATM   14  C   UNL     1     -10.212   9.773  67.764  1.00  0.00    -0.254 A  
HETATM   15  C   UNL     1     -10.557   8.413  67.665  1.00  0.00    -0.265 A  
HETATM   16  C   UNL     1     -10.532   7.548  68.774  1.00  0.00    -0.212 A  
BRANCH  14  17
HETATM   17  C   UNL     1     -10.421  10.741  66.630  1.00  0.00    -0.246 A  
HETATM   18  N   UNL     1      -9.768  10.477  65.475  1.00  0.00    -0.223 NA 
HETATM   19  C   UNL     1      -9.790  11.409  64.511  1.00  0.00    -0.260 A  
HETATM   20  N   UNL     1     -10.343  12.623  64.609  1.00  0.00    -0.327 NA 
HETATM   21  N   UNL     1      -9.109  11.130  63.344  1.00  0.00    -0.400 NA 
HETATM   22  H1  UNL     1      -9.125  11.839  62.611  1.00  0.00     0.000 HD 
HETATM   23  C   UNL     1     -10.999  12.858  65.748  1.00  0.00    -0.278 A  
HETATM   24  H2  UNL     1      -8.609  10.249  63.218  1.00  0.00     0.000 HD 
HETATM   25  C   UNL     1     -11.112  11.935  66.769  1.00  0.00    -0.359 A  
BRANCH  23  26
HETATM   26  O   UNL     1     -11.480  14.126  66.022  1.00  0.00    -0.327 OA 
BRANCH  26  27
HETATM   27  C   UNL     1     -10.566  15.075  66.626  1.00  0.00    -0.301 C  
HETATM   28  C   UNL     1     -10.402  16.432  65.895  1.00  0.00    -0.362 C  
HETATM   29  F   UNL     1     -10.957  16.471  64.663  1.00  0.00    -0.428 F  
HETATM   30  F   UNL     1      -9.071  16.691  65.731  1.00  0.00    -0.307 F  
HETATM   31  F   UNL     1     -10.889  17.486  66.594  1.00  0.00    -0.272 F  
BRANCH  27  32
HETATM   32  C   UNL     1     -10.872  15.247  68.146  1.00  0.00    -0.273 A  
HETATM   33  C   UNL     1     -12.067  14.651  68.616  1.00  0.00    -0.237 A  
HETATM   34  C   UNL     1     -12.530  14.856  69.919  1.00  0.00    -0.273 A  
HETATM   35  C   UNL     1     -11.820  15.679  70.780  1.00  0.00    -0.384 A  
HETATM   36  C   UNL     1     -10.589  16.207  70.391  1.00  0.00    -0.058 A  
HETATM   37 CL   UNL     1     -12.454  16.043  72.338  1.00  0.00    -0.536 Cl 
HETATM   38  C   UNL     1     -10.078  15.949  69.102  1.00  0.00    -0.240 A  
BRANCH  38  39
HETATM   39  N   UNL     1      -8.750  16.380  68.813  1.00  0.00    -0.236 NA 
HETATM   40  C   UNL     1      -7.607  15.633  68.592  1.00  0.00    -0.143 A  
HETATM   41  C   UNL     1      -6.556  16.524  68.572  1.00  0.00    -0.139 A  
HETATM   42  C   UNL     1      -7.163  17.780  68.699  1.00  0.00    -0.260 A  
HETATM   43  N   UNL     1      -8.483  17.686  68.668  1.00  0.00    -0.287 NA 
HETATM   44  C   UNL     1      -6.554  19.122  68.882  1.00  0.00    -0.315 C  
ENDBRANCH  38  39
ENDBRANCH  27  32
ENDBRANCH  26  27
ENDBRANCH  23  26
ENDBRANCH  14  17
ENDBRANCH  10  11
ENDBRANCH   6  10
ENDBRANCH   4   6
ENDBRANCH   3   4
ENDBRANCH   2   3
TORSDOF 10
ENDMDL
MODEL        7
REMARK 921   NORMALIZED FREE ENERGY PREDICTED BY IDOCK:   -7.42 KCAL/MOL
REMARK 922        TOTAL FREE ENERGY PREDICTED BY IDOCK:  -14.11 KCAL/MOL
REMARK 923 INTER-LIGAND FREE ENERGY PREDICTED BY IDOCK:  -12.21 KCAL/MOL
REMARK 924 INTRA-LIGAND FREE ENERGY PREDICTED BY IDOCK:   -1.90 KCAL/MOL
REMARK 927      BINDING AFFINITY PREDICTED BY RF-SCORE:    0.00 PKD
ROOT
HETATM    1  C   UNL     1      -9.440   2.989  70.986  1.00  0.00    -0.228 C  
HETATM    2  C   UNL     1      -9.358   4.397  70.424  1.00  0.00    -0.149 C  
ENDROOT
BRANCH   2   3
HETATM    3  O   UNL     1      -9.809   5.299  71.441  1.00  0.00    -0.161 OA 
BRANCH   3   4
HETATM    4  C   UNL     1     -10.938   6.004  71.119  1.00  0.00    -0.278 C  
HETATM    5  O   UNL     1     -11.474   6.011  70.019  1.00  0.00    -0.372 OA 
BRANCH   4   6
HETATM    6  C   UNL     1     -11.429   6.745  72.370  1.00  0.00    -0.264 C  
HETATM    7  N   UNL     1     -11.188   5.896  73.560  1.00  0.00    -0.431 NA 
HETATM    8  H2  UNL     1     -10.214   5.604  73.639  1.00  0.00     0.000 HD 
HETATM    9  H1  UNL     1     -11.514   6.389  74.391  1.00  0.00     0.000 HD 
BRANCH   6  10
HETATM   10  C   UNL     1     -10.738   8.121  72.496  1.00  0.00    -0.419 C  
BRANCH  10  11
HETATM   11  C   UNL     1     -10.779   9.029  71.274  1.00  0.00    -0.379 A  
HETATM   12  C   UNL     1      -9.724   9.145  70.363  1.00  0.00    -0.266 A  
HETATM   13  C   UNL     1      -9.812  10.026  69.257  1.00  0.00    -0.227 A  
HETATM   14  C   UNL     1     -10.945  10.832  69.016  1.00  0.00    -0.289 A  
HETATM   15  C   UNL     1     -12.020  10.634  69.902  1.00  0.00    -0.385 A  
HETATM   16  C   UNL     1     -11.937   9.764  71.004  1.00  0.00    -0.440 A  
BRANCH  14  17
HETATM   17  C   UNL     1     -10.963  11.900  67.955  1.00  0.00    -0.224 A  
HETATM   18  N   UNL     1     -11.906  11.785  66.991  1.00  0.00    -0.607 NA 
HETATM   19  C   UNL     1     -11.835  12.613  65.939  1.00  0.00    -0.444 A  
HETATM   20  N   UNL     1     -10.867  13.508  65.710  1.00  0.00    -0.273 NA 
HETATM   21  N   UNL     1     -12.795  12.475  64.957  1.00  0.00    -0.758 NA 
HETATM   22  H1  UNL     1     -12.741  13.104  64.157  1.00  0.00     0.000 HD 
HETATM   23  C   UNL     1      -9.957  13.621  66.682  1.00  0.00    -0.283 A  
HETATM   24  H2  UNL     1     -13.531  11.771  65.030  1.00  0.00     0.000 HD 
HETATM   25  C   UNL     1      -9.987  12.878  67.846  1.00  0.00    -0.233 A  
BRANCH  23  26
HETATM   26  O   UNL     1      -8.831  14.401  66.491  1.00  0.00    -0.202 OA 
BRANCH  26  27
HETATM   27  C   UNL     1      -8.370  15.201  67.608  1.00  0.00    -0.160 C  
HETATM   28  C   UNL     1      -6.850  15.153  67.907  1.00  0.00    -0.155 C  
HETATM   29  F   UNL     1      -6.180  14.193  67.231  1.00  0.00    -0.126 F  
HETATM   30  F   UNL     1      -6.666  14.894  69.236  1.00  0.00    -0.106 F  
HETATM   31  F   UNL     1      -6.216  16.328  67.678  1.00  0.00    -0.112 F  
BRANCH  27  32
HETATM   32  C   UNL     1      -8.914  16.660  67.506  1.00  0.00    -0.204 A  
HETATM   33  C   UNL     1      -8.302  17.491  66.536  1.00  0.00    -0.304 A  
HETATM   34  C   UNL     1      -8.594  18.854  66.446  1.00  0.00    -0.301 A  
HETATM   35  C   UNL     1      -9.491  19.427  67.334  1.00  0.00    -0.316 A  
HETATM   36  C   UNL     1     -10.189  18.628  68.239  1.00  0.00    -0.423 A  
HETATM   37 CL   UNL     1      -9.752  21.128  67.314  1.00  0.00    -0.290 Cl 
HETATM   38  C   UNL     1      -9.954  17.238  68.293  1.00  0.00    -0.313 A  
BRANCH  38  39
HETATM   39  N   UNL     1     -10.805  16.451  69.122  1.00  0.00    -0.310 NA 
HETATM   40  C   UNL     1     -11.904  15.682  68.784  1.00  0.00    -0.321 A  
HETATM   41  C   UNL     1     -12.495  15.301  69.969  1.00  0.00    -0.330 A  
HETATM   42  C   UNL     1     -11.643  15.807  70.960  1.00  0.00    -0.411 A  
HETATM   43  N   UNL     1     -10.551  16.339  70.435  1.00  0.00    -0.096 NA 
HETATM   44  C   UNL     1     -11.808  15.846  72.435  1.00  0.00    -0.618 C  
ENDBRANCH  38  39
ENDBRANCH  27  32
ENDBRANCH  26  27
ENDBRANCH  23  26
ENDBRANCH  14  17
ENDBRANCH  10  11
ENDBRANCH   6  10
ENDBRANCH   4   6
ENDBRANCH   3   4
ENDBRANCH   2   3
TORSDOF 10
ENDMDL
MODEL        8
REMARK 921   NORMALIZED FREE ENERGY PREDICTED BY IDOCK:   -7.35 KCAL/MOL
REMARK 922        TOTAL FREE ENERGY PREDICTED BY IDOCK:  -13.98 KCAL/MOL
REMARK 923 INTER-LIGAND FREE ENERGY PREDICTED BY IDOCK:  -11.36 KCAL/MOL
REMARK 924 INTRA-LIGAND FREE ENERGY PREDICTED BY IDOCK:   -2.62 KCAL/MOL
REMARK 927      BINDING AFFINITY PREDICTED BY RF-SCORE:    0.00 PKD
ROOT
HETATM    1  C   UNL     1     -10.820  15.645  64.981  1.00  0.00    -0.468 C  
HETATM    2  C   UNL     1      -9.599  15.389  65.845  1.00  0.00    -0.351 C  
ENDROOT
BRANCH   2   3
HETATM    3  O   UNL     1      -9.488  16.472  66.776  1.00  0.00    -0.231 OA 
BRANCH   3   4
HETATM    4  C   UNL     1      -9.195  16.094  68.059  1.00  0.00    -0.195 C  
HETATM    5  O   UNL     1      -8.237  15.409  68.390  1.00  0.00    -0.135 OA 
BRANCH   4   6
HETATM    6  C   UNL     1     -10.242  16.701  69.002  1.00  0.00    -0.301 C  
HETATM    7  N   UNL     1     -10.267  18.171  68.814  1.00  0.00    -0.374 NA 
HETATM    8  H2  UNL     1     -10.422  18.435  67.841  1.00  0.00     0.000 HD 
HETATM    9  H1  UNL     1     -10.963  18.573  69.441  1.00  0.00     0.000 HD 
BRANCH   6  10
HETATM   10  C   UNL     1     -11.630  16.067  68.760  1.00  0.00    -0.352 C  
BRANCH  10  11
HETATM   11  C   UNL     1     -11.866  14.680  69.346  1.00  0.00    -0.368 A  
HETATM   12  C   UNL     1     -12.367  14.461  70.632  1.00  0.00    -0.422 A  
HETATM   13  C   UNL     1     -12.542  13.146  71.130  1.00  0.00    -0.403 A  
HETATM   14  C   UNL     1     -12.219  11.998  70.374  1.00  0.00    -0.379 A  
HETATM   15  C   UNL     1     -11.794  12.249  69.057  1.00  0.00    -0.358 A  
HETATM   16  C   UNL     1     -11.614  13.552  68.559  1.00  0.00    -0.368 A  
BRANCH  14  17
HETATM   17  C   UNL     1     -12.227  10.615  70.968  1.00  0.00    -0.393 A  
HETATM   18  N   UNL     1     -13.272  10.302  71.770  1.00  0.00    -0.430 NA 
HETATM   19  C   UNL     1     -13.218   9.150  72.454  1.00  0.00    -0.444 A  
HETATM   20  N   UNL     1     -12.185   8.300  72.477  1.00  0.00    -0.356 NA 
HETATM   21  N   UNL     1     -14.284   8.851  73.277  1.00  0.00    -1.237 NA 
HETATM   22  H1  UNL     1     -14.243   7.976  73.798  1.00  0.00     0.000 HD 
HETATM   23  C   UNL     1     -11.173   8.616  71.664  1.00  0.00    -0.309 A  
HETATM   24  H2  UNL     1     -15.082   9.482  73.362  1.00  0.00     0.000 HD 
HETATM   25  C   UNL     1     -11.164   9.733  70.852  1.00  0.00    -0.429 A  
BRANCH  23  26
HETATM   26  O   UNL     1      -9.992   7.896  71.715  1.00  0.00    -0.167 OA 
BRANCH  26  27
HETATM   27  C   UNL     1      -9.165   7.875  70.526  1.00  0.00    -0.158 C  
HETATM   28  C   UNL     1      -7.661   8.191  70.729  1.00  0.00    -0.080 C  
HETATM   29  F   UNL     1      -7.353   8.669  71.954  1.00  0.00    -0.097 F  
HETATM   30  F   UNL     1      -7.282   9.147  69.830  1.00  0.00    -0.049 F  
HETATM   31  F   UNL     1      -6.849   7.132  70.490  1.00  0.00    -0.049 F  
BRANCH  27  32
HETATM   32  C   UNL     1      -9.398   6.564  69.713  1.00  0.00    -0.149 A  
HETATM   33  C   UNL     1      -9.663   5.397  70.469  1.00  0.00    -0.246 A  
HETATM   34  C   UNL     1      -9.742   4.135  69.872  1.00  0.00    -0.280 A  
HETATM   35  C   UNL     1      -9.540   4.005  68.507  1.00  0.00    -0.116 A  
HETATM   36  C   UNL     1      -9.373   5.139  67.711  1.00  0.00    -0.138 A  
HETATM   37 CL   UNL     1      -9.503   2.442  67.788  1.00  0.00    -0.212 Cl 
HETATM   38  C   UNL     1      -9.362   6.424  68.293  1.00  0.00    -0.109 A  
BRANCH  38  39
HETATM   39  N   UNL     1      -9.347   7.550  67.420  1.00  0.00    -0.137 NA 
HETATM   40  C   UNL     1     -10.268   8.573  67.282  1.00  0.00    -0.276 A  
HETATM   41  C   UNL     1      -9.896   9.286  66.164  1.00  0.00    -0.363 A  
HETATM   42  C   UNL     1      -8.703   8.681  65.747  1.00  0.00    -0.181 A  
HETATM   43  N   UNL     1      -8.301   7.760  66.608  1.00  0.00    -0.122 NA 
HETATM   44  C   UNL     1      -7.893   8.906  64.523  1.00  0.00    -0.126 C  
ENDBRANCH  38  39
ENDBRANCH  27  32
ENDBRANCH  26  27
ENDBRANCH  23  26
ENDBRANCH  14  17
ENDBRANCH  10  11
ENDBRANCH   6  10
ENDBRANCH   4   6
ENDBRANCH   3   4
ENDBRANCH   2   3
TORSDOF 10
ENDMDL
MODEL        9
REMARK 921   NORMALIZED FREE ENERGY PREDICTED BY IDOCK:   -7.29 KCAL/MOL
REMARK 922        TOTAL FREE ENERGY PREDICTED BY IDOCK:  -13.90 KCAL/MOL
REMARK 923 INTER-LIGAND FREE ENERGY PREDICTED BY IDOCK:  -11.92 KCAL/MOL
REMARK 924 INTRA-LIGAND FREE ENERGY PREDICTED BY IDOCK:   -1.98 KCAL/MOL
REMARK 927      BINDING AFFINITY PREDICTED BY RF-SCORE:    0.00 PKD
ROOT
HETATM    1  C   UNL     1      -9.706   3.002  73.020  1.00  0.00    -0.165 C  
HETATM    2  C   UNL     1     -10.782   3.580  73.921  1.00  0.00    -0.219 C  
ENDROOT
BRANCH   2   3
HETATM    3  O   UNL     1     -11.422   4.645  73.208  1.00  0.00    -0.320 OA 
BRANCH   3   4
HETATM    4  C   UNL     1     -10.866   5.880  73.407  1.00  0.00    -0.245 C  
HETATM    5  O   UNL     1     -10.410   6.284  74.469  1.00  0.00    -0.316 OA 
BRANCH   4   6
HETATM    6  C   UNL     1     -10.881   6.647  72.078  1.00  0.00    -0.233 C  
HETATM    7  N   UNL     1     -10.483   5.727  70.986  1.00  0.00    -0.232 NA 
HETATM    8  H2  UNL     1     -11.061   4.887  70.956  1.00  0.00     0.000 HD 
HETATM    9  H1  UNL     1     -10.493   6.237  70.103  1.00  0.00     0.000 HD 
BRANCH   6  10
HETATM   10  C   UNL     1     -12.269   7.274  71.824  1.00  0.00    -0.368 C  
BRANCH  10  11
HETATM   11  C   UNL     1     -12.302   8.756  71.473  1.00  0.00    -0.380 A  
HETATM   12  C   UNL     1     -11.463   9.343  70.521  1.00  0.00    -0.317 A  
HETATM   13  C   UNL     1     -11.525  10.733  70.255  1.00  0.00    -0.406 A  
HETATM   14  C   UNL     1     -12.415  11.597  70.929  1.00  0.00    -0.440 A  
HETATM   15  C   UNL     1     -13.300  10.966  71.821  1.00  0.00    -0.413 A  
HETATM   16  C   UNL     1     -13.241   9.587  72.092  1.00  0.00    -0.539 A  
BRANCH  14  17
HETATM   17  C   UNL     1     -12.350  13.094  70.783  1.00  0.00    -0.321 A  
HETATM   18  N   UNL     1     -13.060  13.824  71.675  1.00  0.00    -0.358 NA 
HETATM   19  C   UNL     1     -13.168  15.143  71.464  1.00  0.00    -0.429 A  
HETATM   20  N   UNL     1     -12.694  15.809  70.405  1.00  0.00    -0.365 NA 
HETATM   21  N   UNL     1     -13.906  15.872  72.374  1.00  0.00    -0.409 NA 
HETATM   22  H1  UNL     1     -13.988  16.876  72.214  1.00  0.00     0.000 HD 
HETATM   23  C   UNL     1     -11.980  15.075  69.547  1.00  0.00    -0.313 A  
HETATM   24  H2  UNL     1     -14.352  15.425  73.176  1.00  0.00     0.000 HD 
HETATM   25  C   UNL     1     -11.735  13.726  69.714  1.00  0.00    -0.367 A  
BRANCH  23  26
HETATM   26  O   UNL     1     -11.570  15.620  68.343  1.00  0.00    -0.365 OA 
BRANCH  26  27
HETATM   27  C   UNL     1     -10.585  14.886  67.574  1.00  0.00    -0.266 C  
HETATM   28  C   UNL     1     -10.640  15.066  66.036  1.00  0.00    -0.322 C  
HETATM   29  F   UNL     1     -11.743  15.706  65.589  1.00  0.00    -0.091 F  
HETATM   30  F   UNL     1     -10.636  13.836  65.443  1.00  0.00    -0.279 F  
HETATM   31  F   UNL     1      -9.562  15.713  65.528  1.00  0.00    -0.349 F  
BRANCH  27  32
HETATM   32  C   UNL     1      -9.153  15.109  68.153  1.00  0.00    -0.176 A  
HETATM   33  C   UNL     1      -8.341  13.957  68.277  1.00  0.00    -0.163 A  
HETATM   34  C   UNL     1      -7.098  13.997  68.915  1.00  0.00    -0.111 A  
HETATM   35  C   UNL     1      -6.644  15.186  69.464  1.00  0.00    -0.163 A  
HETATM   36  C   UNL     1      -7.366  16.365  69.279  1.00  0.00    -0.211 A  
HETATM   37 CL   UNL     1      -5.179  15.212  70.367  1.00  0.00    -0.116 Cl 
HETATM   38  C   UNL     1      -8.588  16.350  68.575  1.00  0.00    -0.223 A  
BRANCH  38  39
HETATM   39  N   UNL     1      -9.203  17.602  68.281  1.00  0.00    -0.275 NA 
HETATM   40  C   UNL     1     -10.066  18.364  69.047  1.00  0.00    -0.244 A  
HETATM   41  C   UNL     1     -10.535  19.368  68.227  1.00  0.00    -0.424 A  
HETATM   42  C   UNL     1      -9.840  19.186  67.024  1.00  0.00    -0.336 A  
HETATM   43  N   UNL     1      -8.924  18.236  67.132  1.00  0.00    -0.259 NA 
HETATM   44  C   UNL     1     -10.006  19.861  65.713  1.00  0.00    -0.394 C  
ENDBRANCH  38  39
ENDBRANCH  27  32
ENDBRANCH  26  27
ENDBRANCH  23  26
ENDBRANCH  14  17
ENDBRANCH  10  11
ENDBRANCH   6  10
ENDBRANCH   4   6
ENDBRANCH   3   4
ENDBRANCH   2   3
TORSDOF 10
ENDMDL
MODEL       10
REMARK 921   NORMALIZED FREE ENERGY PREDICTED BY IDOCK:   -7.27 KCAL/MOL
REMARK 922        TOTAL FREE ENERGY PREDICTED BY IDOCK:  -13.86 KCAL/MOL
REMARK 923 INTER-LIGAND FREE ENERGY PREDICTED BY IDOCK:  -12.07 KCAL/MOL
REMARK 924 INTRA-LIGAND FREE ENERGY PREDICTED BY IDOCK:   -1.80 KCAL/MOL
REMARK 927      BINDING AFFINITY PREDICTED BY RF-SCORE:    0.00 PKD
ROOT
HETATM    1  C   UNL     1      -6.474  16.981  66.400  1.00  0.00    -0.176 C  
HETATM    2  C   UNL     1      -6.105  17.724  67.671  1.00  0.00    -0.155 C  
ENDROOT
BRANCH   2   3
HETATM    3  O   UNL     1      -6.137  19.126  67.382  1.00  0.00    -0.188 OA 
BRANCH   3   4
HETATM    4  C   UNL     1      -6.918  19.866  68.228  1.00  0.00    -0.297 C  
HETATM    5  O   UNL     1      -6.789  19.914  69.444  1.00  0.00    -0.337 OA 
BRANCH   4   6
HETATM    6  C   UNL     1      -7.949  20.640  67.397  1.00  0.00    -0.264 C  
HETATM    7  N   UNL     1      -7.634  20.471  65.959  1.00  0.00    -0.518 NA 
HETATM    8  H2  UNL     1      -7.573  19.489  65.686  1.00  0.00     0.000 HD 
HETATM    9  H1  UNL     1      -8.319  20.986  65.406  1.00  0.00     0.000 HD 
BRANCH   6  10
HETATM   10  C   UNL     1      -9.383  20.172  67.729  1.00  0.00    -0.455 C  
BRANCH  10  11
HETATM   11  C   UNL     1      -9.741  18.735  67.370  1.00  0.00    -0.340 A  
HETATM   12  C   UNL     1     -10.085  18.325  66.079  1.00  0.00    -0.278 A  
HETATM   13  C   UNL     1     -10.432  16.978  65.812  1.00  0.00    -0.261 A  
HETATM   14  C   UNL     1     -10.460  15.987  66.817  1.00  0.00    -0.308 A  
HETATM   15  C   UNL     1     -10.033  16.412  68.088  1.00  0.00    -0.242 A  
HETATM   16  C   UNL     1      -9.691  17.749  68.360  1.00  0.00    -0.333 A  
BRANCH  14  17
HETATM   17  C   UNL     1     -11.008  14.607  66.572  1.00  0.00    -0.318 A  
HETATM   18  N   UNL     1     -11.443  14.337  65.319  1.00  0.00    -0.332 NA 
HETATM   19  C   UNL     1     -12.099  13.187  65.113  1.00  0.00    -0.421 A  
HETATM   20  N   UNL     1     -12.433  12.296  66.054  1.00  0.00    -0.328 NA 
HETATM   21  N   UNL     1     -12.547  12.932  63.833  1.00  0.00    -0.695 NA 
HETATM   22  H1  UNL     1     -13.046  12.057  63.676  1.00  0.00     0.000 HD 
HETATM   23  C   UNL     1     -11.979  12.569  67.280  1.00  0.00    -0.216 A  
HETATM   24  H2  UNL     1     -12.386  13.594  63.072  1.00  0.00     0.000 HD 
HETATM   25  C   UNL     1     -11.220  13.683  67.584  1.00  0.00    -0.303 A  
BRANCH  23  26
HETATM   26  O   UNL     1     -12.387  11.803  68.357  1.00  0.00    -0.364 OA 
BRANCH  26  27
HETATM   27  C   UNL     1     -11.752  12.049  69.636  1.00  0.00    -0.335 C  
HETATM   28  C   UNL     1     -12.411  13.125  70.535  1.00  0.00    -0.304 C  
HETATM   29  F   UNL     1     -13.361  13.861  69.918  1.00  0.00     0.088 F  
HETATM   30  F   UNL     1     -11.451  14.002  70.956  1.00  0.00    -0.246 F  
HETATM   31  F   UNL     1     -12.959  12.623  71.668  1.00  0.00    -0.444 F  
BRANCH  27  32
HETATM   32  C   UNL     1     -11.498  10.709  70.394  1.00  0.00    -0.422 A  
HETATM   33  C   UNL     1     -12.475  10.334  71.348  1.00  0.00    -0.528 A  
HETATM   34  C   UNL     1     -12.293   9.238  72.196  1.00  0.00    -0.398 A  
HETATM   35  C   UNL     1     -11.122   8.499  72.126  1.00  0.00    -0.366 A  
HETATM   36  C   UNL     1     -10.178   8.774  71.136  1.00  0.00    -0.316 A  
HETATM   37 CL   UNL     1     -10.835   7.234  73.256  1.00  0.00    -0.412 Cl 
HETATM   38  C   UNL     1     -10.383   9.834  70.229  1.00  0.00    -0.291 A  
BRANCH  38  39
HETATM   39  N   UNL     1      -9.467   9.970  69.145  1.00  0.00    -0.195 NA 
HETATM   40  C   UNL     1      -8.157  10.412  69.145  1.00  0.00    -0.151 A  
HETATM   41  C   UNL     1      -7.792  10.555  67.825  1.00  0.00    -0.104 A  
HETATM   42  C   UNL     1      -8.904  10.098  67.106  1.00  0.00    -0.132 A  
HETATM   43  N   UNL     1      -9.826   9.591  67.909  1.00  0.00    -0.150 NA 
HETATM   44  C   UNL     1      -9.179  10.130  65.647  1.00  0.00    -0.232 C  
ENDBRANCH  38  39
ENDBRANCH  27  32
ENDBRANCH  26  27
ENDBRANCH  23  26
ENDBRANCH  14  17
ENDBRANCH  10  11
ENDBRANCH   6  10
ENDBRANCH   4   6
ENDBRANCH   3   4
ENDBRANCH   2   3
TORSDOF 10
ENDMDL
MODEL       11
REMARK 921   NORMALIZED FREE ENERGY PREDICTED BY IDOCK:   -7.23 KCAL/MOL
REMARK 922        TOTAL FREE ENERGY PREDICTED BY IDOCK:  -13.79 KCAL/MOL
REMARK 923 INTER-LIGAND FREE ENERGY PREDICTED BY IDOCK:  -11.99 KCAL/MOL
REMARK 924 INTRA-LIGAND FREE ENERGY PREDICTED BY IDOCK:   -1.80 KCAL/MOL
REMARK 927      BINDING AFFINITY PREDICTED BY RF-SCORE:    0.00 PKD
ROOT
HETATM    1  C   UNL     1     -13.151  10.699  71.861  1.00  0.00    -0.563 C  
HETATM    2  C   UNL     1     -13.527   9.245  72.084  1.00  0.00    -0.473 C  
ENDROOT
BRANCH   2   3
HETATM    3  O   UNL     1     -12.342   8.544  72.481  1.00  0.00    -0.388 OA 
BRANCH   3   4
HETATM    4  C   UNL     1     -12.241   7.271  71.988  1.00  0.00    -0.277 C  
HETATM    5  O   UNL     1     -13.182   6.512  71.798  1.00  0.00    -0.190 OA 
BRANCH   4   6
HETATM    6  C   UNL     1     -10.766   6.976  71.687  1.00  0.00    -0.220 C  
HETATM    7  N   UNL     1     -10.272   5.958  72.644  1.00  0.00    -0.180 NA 
HETATM    8  H2  UNL     1     -10.845   5.114  72.644  1.00  0.00     0.000 HD 
HETATM    9  H1  UNL     1      -9.291   5.762  72.443  1.00  0.00     0.000 HD 
BRANCH   6  10
HETATM   10  C   UNL     1     -10.587   6.521  70.222  1.00  0.00    -0.278 C  
BRANCH  10  11
HETATM   11  C   UNL     1     -10.448   7.616  69.171  1.00  0.00    -0.220 A  
HETATM   12  C   UNL     1     -10.196   8.955  69.481  1.00  0.00    -0.204 A  
HETATM   13  C   UNL     1     -10.102   9.933  68.460  1.00  0.00    -0.186 A  
HETATM   14  C   UNL     1     -10.263   9.621  67.092  1.00  0.00    -0.305 A  
HETATM   15  C   UNL     1     -10.435   8.255  66.807  1.00  0.00    -0.313 A  
HETATM   16  C   UNL     1     -10.534   7.281  67.817  1.00  0.00    -0.292 A  
BRANCH  14  17
HETATM   17  C   UNL     1     -10.350  10.683  66.030  1.00  0.00    -0.225 A  
HETATM   18  N   UNL     1     -10.344  10.260  64.744  1.00  0.00    -0.183 NA 
HETATM   19  C   UNL     1     -10.239  11.183  63.777  1.00  0.00    -0.377 A  
HETATM   20  N   UNL     1     -10.066  12.497  63.964  1.00  0.00    -0.341 NA 
HETATM   21  N   UNL     1     -10.221  10.736  62.472  1.00  0.00    -0.755 NA 
HETATM   22  H1  UNL     1     -10.141  11.438  61.737  1.00  0.00     0.000 HD 
HETATM   23  C   UNL     1     -10.096  12.897  65.238  1.00  0.00    -0.238 A  
HETATM   24  H2  UNL     1     -10.284   9.742  62.251  1.00  0.00     0.000 HD 
HETATM   25  C   UNL     1     -10.285  12.040  66.305  1.00  0.00    -0.251 A  
BRANCH  23  26
HETATM   26  O   UNL     1      -9.779  14.205  65.561  1.00  0.00    -0.246 OA 
BRANCH  26  27
HETATM   27  C   UNL     1      -9.648  14.537  66.966  1.00  0.00    -0.245 C  
HETATM   28  C   UNL     1      -8.335  14.093  67.658  1.00  0.00    -0.182 C  
HETATM   29  F   UNL     1      -7.575  13.251  66.923  1.00  0.00    -0.092 F  
HETATM   30  F   UNL     1      -8.642  13.432  68.814  1.00  0.00    -0.135 F  
HETATM   31  F   UNL     1      -7.544  15.127  68.035  1.00  0.00    -0.102 F  
BRANCH  27  32
HETATM   32  C   UNL     1      -9.974  16.044  67.210  1.00  0.00    -0.242 A  
HETATM   33  C   UNL     1      -9.597  16.941  66.182  1.00  0.00    -0.280 A  
HETATM   34  C   UNL     1      -9.697  18.326  66.340  1.00  0.00    -0.334 A  
HETATM   35  C   UNL     1     -10.159  18.851  67.537  1.00  0.00    -0.364 A  
HETATM   36  C   UNL     1     -10.633  18.003  68.538  1.00  0.00    -0.186 A  
HETATM   37 CL   UNL     1     -10.158  20.554  67.786  1.00  0.00    -0.458 Cl 
HETATM   38  C   UNL     1     -10.601  16.604  68.362  1.00  0.00    -0.343 A  
BRANCH  38  39
HETATM   39  N   UNL     1     -11.240  15.794  69.347  1.00  0.00    -0.299 NA 
HETATM   40  C   UNL     1     -11.902  14.588  69.205  1.00  0.00    -0.319 A  
HETATM   41  C   UNL     1     -12.516  14.335  70.411  1.00  0.00    -0.426 A  
HETATM   42  C   UNL     1     -12.102  15.386  71.240  1.00  0.00    -0.366 A  
HETATM   43  N   UNL     1     -11.204  16.151  70.639  1.00  0.00    -0.371 NA 
HETATM   44  C   UNL     1     -12.534  15.749  72.613  1.00  0.00    -0.546 C  
ENDBRANCH  38  39
ENDBRANCH  27  32
ENDBRANCH  26  27
ENDBRANCH  23  26
ENDBRANCH  14  17
ENDBRANCH  10  11
ENDBRANCH   6  10
ENDBRANCH   4   6
ENDBRANCH   3   4
ENDBRANCH   2   3
TORSDOF 10
ENDMDL
MODEL       12
REMARK 921   NORMALIZED FREE ENERGY PREDICTED BY IDOCK:   -7.19 KCAL/MOL
REMARK 922        TOTAL FREE ENERGY PREDICTED BY IDOCK:  -13.74 KCAL/MOL
REMARK 923 INTER-LIGAND FREE ENERGY PREDICTED BY IDOCK:  -10.91 KCAL/MOL
REMARK 924 INTRA-LIGAND FREE ENERGY PREDICTED BY IDOCK:   -2.83 KCAL/MOL
REMARK 927      BINDING AFFINITY PREDICTED BY RF-SCORE:    0.00 PKD
ROOT
HETATM    1  C   UNL     1     -10.498  17.562  68.730  1.00  0.00    -0.318 C  
HETATM    2  C   UNL     1     -10.451  18.770  67.811  1.00  0.00    -0.420 C  
ENDROOT
BRANCH   2   3
HETATM    3  O   UNL     1      -9.504  19.696  68.356  1.00  0.00    -0.353 OA 
BRANCH   3   4
HETATM    4  C   UNL     1      -8.238  19.584  67.848  1.00  0.00    -0.310 C  
HETATM    5  O   UNL     1      -7.207  19.787  68.476  1.00  0.00    -0.311 OA 
BRANCH   4   6
HETATM    6  C   UNL     1      -8.333  19.133  66.385  1.00  0.00    -0.318 C  
HETATM    7  N   UNL     1      -8.366  20.330  65.512  1.00  0.00    -0.437 NA 
HETATM    8  H2  UNL     1      -7.574  20.952  65.676  1.00  0.00     0.000 HD 
HETATM    9  H1  UNL     1      -8.428  20.029  64.540  1.00  0.00     0.000 HD 
BRANCH   6  10
HETATM   10  C   UNL     1      -7.162  18.192  66.026  1.00  0.00    -0.305 C  
BRANCH  10  11
HETATM   11  C   UNL     1      -7.162  16.812  66.673  1.00  0.00    -0.289 A  
HETATM   12  C   UNL     1      -8.215  15.901  66.547  1.00  0.00    -0.307 A  
HETATM   13  C   UNL     1      -8.168  14.641  67.193  1.00  0.00    -0.227 A  
HETATM   14  C   UNL     1      -7.079  14.239  67.996  1.00  0.00    -0.145 A  
HETATM   15  C   UNL     1      -6.001  15.143  68.038  1.00  0.00    -0.159 A  
HETATM   16  C   UNL     1      -6.045  16.397  67.402  1.00  0.00    -0.199 A  
BRANCH  14  17
HETATM   17  C   UNL     1      -7.112  12.987  68.830  1.00  0.00    -0.097 A  
HETATM   18  N   UNL     1      -6.196  12.891  69.822  1.00  0.00    -0.124 NA 
HETATM   19  C   UNL     1      -6.082  11.719  70.463  1.00  0.00     0.030 A  
HETATM   20  N   UNL     1      -6.746  10.596  70.166  1.00  0.00    -0.175 NA 
HETATM   21  N   UNL     1      -5.135  11.633  71.463  1.00  0.00    -0.285 NA 
HETATM   22  H1  UNL     1      -5.048  10.742  71.950  1.00  0.00     0.000 HD 
HETATM   23  C   UNL     1      -7.658  10.715  69.198  1.00  0.00    -0.131 A  
HETATM   24  H2  UNL     1      -4.545  12.430  71.705  1.00  0.00     0.000 HD 
HETATM   25  C   UNL     1      -7.917  11.898  68.533  1.00  0.00    -0.137 A  
BRANCH  23  26
HETATM   26  O   UNL     1      -8.297   9.591  68.705  1.00  0.00    -0.114 OA 
BRANCH  26  27
HETATM   27  C   UNL     1      -9.629   9.759  68.161  1.00  0.00    -0.143 C  
HETATM   28  C   UNL     1     -10.053   8.758  67.056  1.00  0.00    -0.265 C  
HETATM   29  F   UNL     1      -9.044   7.997  66.578  1.00  0.00    -0.149 F  
HETATM   30  F   UNL     1     -10.554   9.454  65.993  1.00  0.00    -0.246 F  
HETATM   31  F   UNL     1     -11.047   7.920  67.438  1.00  0.00    -0.277 F  
BRANCH  27  32
HETATM   32  C   UNL     1     -10.684   9.870  69.306  1.00  0.00    -0.247 A  
HETATM   33  C   UNL     1     -10.627   8.872  70.308  1.00  0.00    -0.246 A  
HETATM   34  C   UNL     1     -11.603   8.772  71.303  1.00  0.00    -0.353 A  
HETATM   35  C   UNL     1     -12.672   9.654  71.311  1.00  0.00    -0.352 A  
HETATM   36  C   UNL     1     -12.716  10.712  70.402  1.00  0.00    -0.340 A  
HETATM   37 CL   UNL     1     -13.945   9.452  72.451  1.00  0.00    -0.426 Cl 
HETATM   38  C   UNL     1     -11.698  10.864  69.437  1.00  0.00    -0.325 A  
BRANCH  38  39
HETATM   39  N   UNL     1     -11.709  12.046  68.639  1.00  0.00    -0.309 NA 
HETATM   40  C   UNL     1     -11.491  13.362  69.006  1.00  0.00    -0.301 A  
HETATM   41  C   UNL     1     -11.825  14.133  67.914  1.00  0.00    -0.405 A  
HETATM   42  C   UNL     1     -12.146  13.202  66.917  1.00  0.00    -0.316 A  
HETATM   43  N   UNL     1     -11.904  11.963  67.315  1.00  0.00    -0.612 NA 
HETATM   44  C   UNL     1     -12.714  13.411  65.562  1.00  0.00    -0.469 C  
ENDBRANCH  38  39
ENDBRANCH  27  32
ENDBRANCH  26  27
ENDBRANCH  23  26
ENDBRANCH  14  17
ENDBRANCH  10  11
ENDBRANCH   6  10
ENDBRANCH   4   6
ENDBRANCH   3   4
ENDBRANCH   2   3
TORSDOF 10
ENDMDL
MODEL       13
REMARK 921   NORMALIZED FREE ENERGY PREDICTED BY IDOCK:   -7.14 KCAL/MOL
REMARK 922        TOTAL FREE ENERGY PREDICTED BY IDOCK:  -13.65 KCAL/MOL
REMARK 923 INTER-LIGAND FREE ENERGY PREDICTED BY IDOCK:  -11.12 KCAL/MOL
REMARK 924 INTRA-LIGAND FREE ENERGY PREDICTED BY IDOCK:   -2.53 KCAL/MOL
REMARK 927      BINDING AFFINITY PREDICTED BY RF-SCORE:    0.00 PKD
ROOT
HETATM    1  C   UNL     1      -9.325   3.136  69.639  1.00  0.00    -0.222 C  
HETATM    2  C   UNL     1      -8.889   3.876  70.891  1.00  0.00    -0.081 C  
ENDROOT
BRANCH   2   3
HETATM    3  O   UNL     1     -10.054   4.470  71.475  1.00  0.00    -0.190 OA 
BRANCH   3   4
HETATM    4  C   UNL     1      -9.825   5.650  72.129  1.00  0.00    -0.158 C  
HETATM    5  O   UNL     1      -8.787   6.296  72.075  1.00  0.00    -0.138 OA 
BRANCH   4   6
HETATM    6  C   UNL     1     -11.091   6.037  72.905  1.00  0.00    -0.255 C  
HETATM    7  N   UNL     1     -10.754   7.100  73.881  1.00  0.00    -0.508 NA 
HETATM    8  H2  UNL     1     -10.307   7.904  73.440  1.00  0.00     0.000 HD 
HETATM    9  H1  UNL     1     -11.595   7.356  74.396  1.00  0.00     0.000 HD 
BRANCH   6  10
HETATM   10  C   UNL     1     -12.212   6.479  71.938  1.00  0.00    -0.373 C  
BRANCH  10  11
HETATM   11  C   UNL     1     -12.300   7.966  71.619  1.00  0.00    -0.344 A  
HETATM   12  C   UNL     1     -11.406   8.628  70.772  1.00  0.00    -0.299 A  
HETATM   13  C   UNL     1     -11.526  10.019  70.532  1.00  0.00    -0.407 A  
HETATM   14  C   UNL     1     -12.532  10.809  71.130  1.00  0.00    -0.519 A  
HETATM   15  C   UNL     1     -13.463  10.102  71.912  1.00  0.00    -0.426 A  
HETATM   16  C   UNL     1     -13.346   8.721  72.157  1.00  0.00    -0.465 A  
BRANCH  14  17
HETATM   17  C   UNL     1     -12.544  12.311  71.026  1.00  0.00    -0.257 A  
HETATM   18  N   UNL     1     -13.203  12.984  71.998  1.00  0.00    -0.449 NA 
HETATM   19  C   UNL     1     -13.386  14.302  71.839  1.00  0.00    -0.388 A  
HETATM   20  N   UNL     1     -13.038  15.017  70.763  1.00  0.00    -0.381 NA 
HETATM   21  N   UNL     1     -14.070  14.972  72.832  1.00  0.00    -0.440 NA 
HETATM   22  H1  UNL     1     -14.209  15.974  72.711  1.00  0.00     0.000 HD 
HETATM   23  C   UNL     1     -12.371  14.340  69.823  1.00  0.00    -0.292 A  
HETATM   24  H2  UNL     1     -14.423  14.483  73.656  1.00  0.00     0.000 HD 
HETATM   25  C   UNL     1     -12.054  12.999  69.927  1.00  0.00    -0.347 A  
BRANCH  23  26
HETATM   26  O   UNL     1     -12.094  14.935  68.606  1.00  0.00    -0.266 OA 
BRANCH  26  27
HETATM   27  C   UNL     1     -11.281  14.192  67.664  1.00  0.00    -0.297 C  
HETATM   28  C   UNL     1     -11.895  13.957  66.261  1.00  0.00    -0.408 C  
HETATM   29  F   UNL     1     -13.205  14.277  66.166  1.00  0.00    -0.344 F  
HETATM   30  F   UNL     1     -11.794  12.632  65.946  1.00  0.00    -0.395 F  
HETATM   31  F   UNL     1     -11.245  14.612  65.268  1.00  0.00    -0.307 F  
BRANCH  27  32
HETATM   32  C   UNL     1      -9.838  14.781  67.595  1.00  0.00    -0.218 A  
HETATM   33  C   UNL     1      -9.720  16.178  67.792  1.00  0.00    -0.229 A  
HETATM   34  C   UNL     1      -8.508  16.848  67.609  1.00  0.00    -0.206 A  
HETATM   35  C   UNL     1      -7.385  16.142  67.206  1.00  0.00    -0.192 A  
HETATM   36  C   UNL     1      -7.431  14.752  67.096  1.00  0.00    -0.069 A  
HETATM   37 CL   UNL     1      -5.924  16.980  66.850  1.00  0.00    -0.213 Cl 
HETATM   38  C   UNL     1      -8.633  14.057  67.346  1.00  0.00    -0.203 A  
BRANCH  38  39
HETATM   39  N   UNL     1      -8.585  12.633  67.372  1.00  0.00    -0.180 NA 
HETATM   40  C   UNL     1      -8.449  11.773  68.448  1.00  0.00    -0.155 A  
HETATM   41  C   UNL     1      -8.244  10.517  67.920  1.00  0.00    -0.107 A  
HETATM   42  C   UNL     1      -8.360  10.698  66.536  1.00  0.00    -0.143 A  
HETATM   43  N   UNL     1      -8.735  11.932  66.238  1.00  0.00    -0.127 NA 
HETATM   44  C   UNL     1      -8.106   9.750  65.422  1.00  0.00    -0.127 C  
ENDBRANCH  38  39
ENDBRANCH  27  32
ENDBRANCH  26  27
ENDBRANCH  23  26
ENDBRANCH  14  17
ENDBRANCH  10  11
ENDBRANCH   6  10
ENDBRANCH   4   6
ENDBRANCH   3   4
ENDBRANCH   2   3
TORSDOF 10
ENDMDL
MODEL       14
REMARK 921   NORMALIZED FREE ENERGY PREDICTED BY IDOCK:   -7.14 KCAL/MOL
REMARK 922        TOTAL FREE ENERGY PREDICTED BY IDOCK:  -13.65 KCAL/MOL
REMARK 923 INTER-LIGAND FREE ENERGY PREDICTED BY IDOCK:  -11.09 KCAL/MOL
REMARK 924 INTRA-LIGAND FREE ENERGY PREDICTED BY IDOCK:   -2.56 KCAL/MOL
REMARK 927      BINDING AFFINITY PREDICTED BY RF-SCORE:    0.00 PKD
ROOT
HETATM    1  C   UNL     1     -10.848   4.360  73.882  1.00  0.00    -0.339 C  
HETATM    2  C   UNL     1     -11.214   5.464  72.906  1.00  0.00    -0.314 C  
ENDROOT
BRANCH   2   3
HETATM    3  O   UNL     1     -10.828   6.712  73.493  1.00  0.00    -0.282 OA 
BRANCH   3   4
HETATM    4  C   UNL     1     -11.223   7.819  72.792  1.00  0.00    -0.398 C  
HETATM    5  O   UNL     1     -12.376   8.218  72.696  1.00  0.00    -0.338 OA 
BRANCH   4   6
HETATM    6  C   UNL     1      -9.982   8.485  72.183  1.00  0.00    -0.317 C  
HETATM    7  N   UNL     1      -8.838   8.311  73.109  1.00  0.00    -0.249 NA 
HETATM    8  H2  UNL     1      -8.676   7.333  73.348  1.00  0.00     0.000 HD 
HETATM    9  H1  UNL     1      -8.013   8.754  72.705  1.00  0.00     0.000 HD 
BRANCH   6  10
HETATM   10  C   UNL     1      -9.680   7.906  70.784  1.00  0.00    -0.179 C  
BRANCH  10  11
HETATM   11  C   UNL     1     -10.058   8.766  69.585  1.00  0.00    -0.204 A  
HETATM   12  C   UNL     1      -9.809   8.396  68.260  1.00  0.00    -0.189 A  
HETATM   13  C   UNL     1     -10.162   9.251  67.187  1.00  0.00    -0.324 A  
HETATM   14  C   UNL     1     -10.768  10.511  67.387  1.00  0.00    -0.334 A  
HETATM   15  C   UNL     1     -11.078  10.820  68.724  1.00  0.00    -0.312 A  
HETATM   16  C   UNL     1     -10.726   9.977  69.793  1.00  0.00    -0.304 A  
BRANCH  14  17
HETATM   17  C   UNL     1     -10.969  11.495  66.266  1.00  0.00    -0.275 A  
HETATM   18  N   UNL     1     -10.508  11.131  65.046  1.00  0.00    -0.296 NA 
HETATM   19  C   UNL     1     -10.509  12.052  64.072  1.00  0.00    -0.372 A  
HETATM   20  N   UNL     1     -10.861  13.335  64.208  1.00  0.00    -0.400 NA 
HETATM   21  N   UNL     1     -10.023  11.670  62.838  1.00  0.00    -0.595 NA 
HETATM   22  H1  UNL     1     -10.024  12.370  62.097  1.00  0.00     0.000 HD 
HETATM   23  C   UNL     1     -11.332  13.670  65.412  1.00  0.00    -0.301 A  
HETATM   24  H2  UNL     1      -9.677  10.724  62.673  1.00  0.00     0.000 HD 
HETATM   25  C   UNL     1     -11.455  12.778  66.460  1.00  0.00    -0.409 A  
BRANCH  23  26
HETATM   26  O   UNL     1     -11.584  14.996  65.713  1.00  0.00    -0.292 OA 
BRANCH  26  27
HETATM   27  C   UNL     1     -10.604  15.702  66.515  1.00  0.00    -0.307 C  
HETATM   28  C   UNL     1     -10.406  17.205  66.194  1.00  0.00    -0.322 C  
HETATM   29  F   UNL     1     -11.007  17.615  65.055  1.00  0.00    -0.404 F  
HETATM   30  F   UNL     1      -9.071  17.455  66.043  1.00  0.00    -0.262 F  
HETATM   31  F   UNL     1     -10.815  18.029  67.189  1.00  0.00    -0.373 F  
BRANCH  27  32
HETATM   32  C   UNL     1     -10.841  15.440  68.035  1.00  0.00    -0.292 A  
HETATM   33  C   UNL     1     -12.144  15.705  68.520  1.00  0.00    -0.010 A  
HETATM   34  C   UNL     1     -12.447  15.654  69.884  1.00  0.00    -0.192 A  
HETATM   35  C   UNL     1     -11.449  15.354  70.800  1.00  0.00    -0.355 A  
HETATM   36  C   UNL     1     -10.177  14.991  70.358  1.00  0.00     0.150 A  
HETATM   37 CL   UNL     1     -11.784  15.422  72.487  1.00  0.00    -0.548 Cl 
HETATM   38  C   UNL     1      -9.880  14.971  68.979  1.00  0.00    -0.236 A  
BRANCH  38  39
HETATM   39  N   UNL     1      -8.618  14.443  68.578  1.00  0.00    -0.173 NA 
HETATM   40  C   UNL     1      -7.415  15.092  68.365  1.00  0.00    -0.115 A  
HETATM   41  C   UNL     1      -6.570  14.171  67.787  1.00  0.00    -0.188 A  
HETATM   42  C   UNL     1      -7.312  12.982  67.770  1.00  0.00    -0.139 A  
HETATM   43  N   UNL     1      -8.466  13.122  68.403  1.00  0.00    -0.156 NA 
HETATM   44  C   UNL     1      -7.002  11.670  67.147  1.00  0.00    -0.144 C  
ENDBRANCH  38  39
ENDBRANCH  27  32
ENDBRANCH  26  27
ENDBRANCH  23  26
ENDBRANCH  14  17
ENDBRANCH  10  11
ENDBRANCH   6  10
ENDBRANCH   4   6
ENDBRANCH   3   4
ENDBRANCH   2   3
TORSDOF 10
ENDMDL
MODEL       15
REMARK 921   NORMALIZED FREE ENERGY PREDICTED BY IDOCK:   -7.13 KCAL/MOL
REMARK 922        TOTAL FREE ENERGY PREDICTED BY IDOCK:  -13.65 KCAL/MOL
REMARK 923 INTER-LIGAND FREE ENERGY PREDICTED BY IDOCK:  -11.78 KCAL/MOL
REMARK 924 INTRA-LIGAND FREE ENERGY PREDICTED BY IDOCK:   -1.87 KCAL/MOL
REMARK 927      BINDING AFFINITY PREDICTED BY RF-SCORE:    0.00 PKD
ROOT
HETATM    1  C   UNL     1     -10.901   2.897  73.783  1.00  0.00    -0.305 C  
HETATM    2  C   UNL     1     -10.568   4.378  73.792  1.00  0.00    -0.244 C  
ENDROOT
BRANCH   2   3
HETATM    3  O   UNL     1     -11.629   5.068  73.121  1.00  0.00    -0.328 OA 
BRANCH   3   4
HETATM    4  C   UNL     1     -11.281   6.289  72.609  1.00  0.00    -0.267 C  
HETATM    5  O   UNL     1     -10.892   7.244  73.268  1.00  0.00    -0.350 OA 
BRANCH   4   6
HETATM    6  C   UNL     1     -11.428   6.243  71.083  1.00  0.00    -0.299 C  
HETATM    7  N   UNL     1     -12.568   7.101  70.682  1.00  0.00    -0.610 NA 
HETATM    8  H2  UNL     1     -12.481   8.054  71.035  1.00  0.00     0.000 HD 
HETATM    9  H1  UNL     1     -12.666   7.070  69.667  1.00  0.00     0.000 HD 
BRANCH   6  10
HETATM   10  C   UNL     1     -10.115   6.673  70.393  1.00  0.00    -0.205 C  
BRANCH  10  11
HETATM   11  C   UNL     1     -10.213   7.787  69.358  1.00  0.00    -0.208 A  
HETATM   12  C   UNL     1     -10.134   9.146  69.677  1.00  0.00    -0.206 A  
HETATM   13  C   UNL     1     -10.257  10.138  68.673  1.00  0.00    -0.193 A  
HETATM   14  C   UNL     1     -10.469   9.820  67.313  1.00  0.00    -0.324 A  
HETATM   15  C   UNL     1     -10.463   8.446  67.012  1.00  0.00    -0.375 A  
HETATM   16  C   UNL     1     -10.347   7.458  68.006  1.00  0.00    -0.247 A  
BRANCH  14  17
HETATM   17  C   UNL     1     -10.786  10.869  66.282  1.00  0.00    -0.176 A  
HETATM   18  N   UNL     1     -10.333  10.645  65.026  1.00  0.00    -0.301 NA 
HETATM   19  C   UNL     1     -10.440  11.637  64.131  1.00  0.00    -0.351 A  
HETATM   20  N   UNL     1     -10.894  12.870  64.380  1.00  0.00    -0.356 NA 
HETATM   21  N   UNL     1      -9.962  11.397  62.859  1.00  0.00    -0.605 NA 
HETATM   22  H1  UNL     1     -10.044  12.152  62.178  1.00  0.00     0.000 HD 
HETATM   23  C   UNL     1     -11.355  13.066  65.618  1.00  0.00    -0.301 A  
HETATM   24  H2  UNL     1      -9.544  10.501  62.609  1.00  0.00     0.000 HD 
HETATM   25  C   UNL     1     -11.371  12.087  66.592  1.00  0.00    -0.399 A  
BRANCH  23  26
HETATM   26  O   UNL     1     -11.708  14.338  66.033  1.00  0.00    -0.358 OA 
BRANCH  26  27
HETATM   27  C   UNL     1     -10.674  15.163  66.625  1.00  0.00    -0.310 C  
HETATM   28  C   UNL     1     -10.413  16.531  65.946  1.00  0.00    -0.323 C  
HETATM   29  F   UNL     1     -11.025  16.685  64.751  1.00  0.00    -0.425 F  
HETATM   30  F   UNL     1      -9.073  16.667  65.718  1.00  0.00    -0.307 F  
HETATM   31  F   UNL     1     -10.756  17.593  66.717  1.00  0.00    -0.328 F  
BRANCH  27  32
HETATM   32  C   UNL     1     -10.882  15.289  68.166  1.00  0.00    -0.273 A  
HETATM   33  C   UNL     1     -12.116  14.815  68.673  1.00  0.00    -0.223 A  
HETATM   34  C   UNL     1     -12.486  15.004  70.007  1.00  0.00    -0.317 A  
HETATM   35  C   UNL     1     -11.640  15.690  70.866  1.00  0.00    -0.389 A  
HETATM   36  C   UNL     1     -10.375  16.088  70.434  1.00  0.00     0.113 A  
HETATM   37 CL   UNL     1     -12.148  16.043  72.472  1.00  0.00    -0.586 Cl 
HETATM   38  C   UNL     1      -9.963  15.840  69.108  1.00  0.00    -0.241 A  
BRANCH  38  39
HETATM   39  N   UNL     1      -8.608  16.125  68.768  1.00  0.00    -0.223 NA 
HETATM   40  C   UNL     1      -7.594  15.266  68.382  1.00  0.00    -0.116 A  
HETATM   41  C   UNL     1      -6.434  16.008  68.377  1.00  0.00    -0.120 A  
HETATM   42  C   UNL     1      -6.852  17.309  68.684  1.00  0.00    -0.207 A  
HETATM   43  N   UNL     1      -8.172  17.393  68.743  1.00  0.00    -0.257 NA 
HETATM   44  C   UNL     1      -6.054  18.530  68.963  1.00  0.00    -0.240 C  
ENDBRANCH  38  39
ENDBRANCH  27  32
ENDBRANCH  26  27
ENDBRANCH  23  26
ENDBRANCH  14  17
ENDBRANCH  10  11
ENDBRANCH   6  10
ENDBRANCH   4   6
ENDBRANCH   3   4
ENDBRANCH   2   3
TORSDOF 10
ENDMDL
MODEL       16
REMARK 921   NORMALIZED FREE ENERGY PREDICTED BY IDOCK:   -7.13 KCAL/MOL
REMARK 922        TOTAL FREE ENERGY PREDICTED BY IDOCK:  -13.65 KCAL/MOL
REMARK 923 INTER-LIGAND FREE ENERGY PREDICTED BY IDOCK:  -11.57 KCAL/MOL
REMARK 924 INTRA-LIGAND FREE ENERGY PREDICTED BY IDOCK:   -2.07 KCAL/MOL
REMARK 927      BINDING AFFINITY PREDICTED BY RF-SCORE:    0.00 PKD
ROOT
HETATM    1  C   UNL     1     -10.855  19.095  67.320  1.00  0.00    -0.529 C  
HETATM    2  C   UNL     1     -10.500  18.516  65.962  1.00  0.00    -0.400 C  
ENDROOT
BRANCH   2   3
HETATM    3  O   UNL     1     -10.344  17.101  66.119  1.00  0.00    -0.340 OA 
BRANCH   3   4
HETATM    4  C   UNL     1     -10.873  16.352  65.103  1.00  0.00    -0.275 C  
HETATM    5  O   UNL     1     -11.512  16.797  64.159  1.00  0.00    -1.171 OA 
BRANCH   4   6
HETATM    6  C   UNL     1     -10.502  14.881  65.330  1.00  0.00    -0.384 C  
HETATM    7  N   UNL     1      -9.135  14.810  65.898  1.00  0.00    -0.476 NA 
HETATM    8  H2  UNL     1      -9.036  15.371  66.745  1.00  0.00     0.000 HD 
HETATM    9  H1  UNL     1      -8.889  13.832  66.049  1.00  0.00     0.000 HD 
BRANCH   6  10
HETATM   10  C   UNL     1     -11.539  14.189  66.242  1.00  0.00    -0.379 C  
BRANCH  10  11
HETATM   11  C   UNL     1     -11.236  12.759  66.670  1.00  0.00    -0.344 A  
HETATM   12  C   UNL     1     -10.595  11.826  65.849  1.00  0.00    -0.314 A  
HETATM   13  C   UNL     1     -10.363  10.502  66.295  1.00  0.00    -0.276 A  
HETATM   14  C   UNL     1     -10.766  10.048  67.570  1.00  0.00    -0.339 A  
HETATM   15  C   UNL     1     -11.335  11.029  68.402  1.00  0.00    -0.363 A  
HETATM   16  C   UNL     1     -11.572  12.344  67.962  1.00  0.00    -0.403 A  
BRANCH  14  17
HETATM   17  C   UNL     1     -10.689   8.599  67.970  1.00  0.00    -0.074 A  
HETATM   18  N   UNL     1     -10.753   7.688  66.971  1.00  0.00    -0.339 NA 
HETATM   19  C   UNL     1     -10.869   6.395  67.305  1.00  0.00    -0.385 A  
HETATM   20  N   UNL     1     -11.001   5.915  68.547  1.00  0.00    -0.263 NA 
HETATM   21  N   UNL     1     -10.946   5.478  66.276  1.00  0.00    -0.751 NA 
HETATM   22  H1  UNL     1     -11.034   4.495  66.529  1.00  0.00     0.000 HD 
HETATM   23  C   UNL     1     -10.916   6.827  69.519  1.00  0.00    -0.279 A  
HETATM   24  H2  UNL     1     -10.915   5.773  65.299  1.00  0.00     0.000 HD 
HETATM   25  C   UNL     1     -10.710   8.173  69.289  1.00  0.00    -0.141 A  
BRANCH  23  26
HETATM   26  O   UNL     1     -11.187   6.471  70.828  1.00  0.00    -0.280 OA 
BRANCH  26  27
HETATM   27  C   UNL     1     -10.183   6.772  71.829  1.00  0.00    -0.190 C  
HETATM   28  C   UNL     1     -10.592   7.777  72.935  1.00  0.00    -0.366 C  
HETATM   29  F   UNL     1     -11.756   8.421  72.698  1.00  0.00    -0.427 F  
HETATM   30  F   UNL     1      -9.629   8.740  73.040  1.00  0.00    -0.255 F  
HETATM   31  F   UNL     1     -10.680   7.221  74.167  1.00  0.00    -0.369 F  
BRANCH  27  32
HETATM   32  C   UNL     1      -9.571   5.459  72.409  1.00  0.00    -0.172 A  
HETATM   33  C   UNL     1     -10.266   4.261  72.118  1.00  0.00    -0.234 A  
HETATM   34  C   UNL     1      -9.908   3.042  72.699  1.00  0.00    -0.209 A  
HETATM   35  C   UNL     1      -8.857   2.991  73.601  1.00  0.00    -0.079 A  
HETATM   36  C   UNL     1      -8.083   4.127  73.842  1.00  0.00    -0.092 A  
HETATM   37 CL   UNL     1      -8.497   1.521  74.421  1.00  0.00    -0.052 Cl 
HETATM   38  C   UNL     1      -8.393   5.348  73.207  1.00  0.00    -0.117 A  
BRANCH  38  39
HETATM   39  N   UNL     1      -7.480   6.431  73.366  1.00  0.00    -0.086 NA 
HETATM   40  C   UNL     1      -7.195   7.190  74.487  1.00  0.00    -0.105 A  
HETATM   41  C   UNL     1      -6.409   8.238  74.061  1.00  0.00    -0.138 A  
HETATM   42  C   UNL     1      -6.200   7.984  72.699  1.00  0.00    -0.066 A  
HETATM   43  N   UNL     1      -6.702   6.812  72.342  1.00  0.00    -0.062 NA 
HETATM   44  C   UNL     1      -5.552   8.821  71.658  1.00  0.00    -0.048 C  
ENDBRANCH  38  39
ENDBRANCH  27  32
ENDBRANCH  26  27
ENDBRANCH  23  26
ENDBRANCH  14  17
ENDBRANCH  10  11
ENDBRANCH   6  10
ENDBRANCH   4   6
ENDBRANCH   3   4
ENDBRANCH   2   3
TORSDOF 10
ENDMDL
MODEL       17
REMARK 921   NORMALIZED FREE ENERGY PREDICTED BY IDOCK:   -7.13 KCAL/MOL
REMARK 922        TOTAL FREE ENERGY PREDICTED BY IDOCK:  -13.63 KCAL/MOL
REMARK 923 INTER-LIGAND FREE ENERGY PREDICTED BY IDOCK:  -12.07 KCAL/MOL
REMARK 924 INTRA-LIGAND FREE ENERGY PREDICTED BY IDOCK:   -1.56 KCAL/MOL
REMARK 927      BINDING AFFINITY PREDICTED BY RF-SCORE:    0.00 PKD
ROOT
HETATM    1  C   UNL     1     -10.433  19.029  66.211  1.00  0.00    -0.534 C  
HETATM    2  C   UNL     1     -10.440  17.567  66.622  1.00  0.00    -0.270 C  
ENDROOT
BRANCH   2   3
HETATM    3  O   UNL     1      -9.948  16.801  65.516  1.00  0.00    -0.567 OA 
BRANCH   3   4
HETATM    4  C   UNL     1     -10.907  16.106  64.831  1.00  0.00    -0.334 C  
HETATM    5  O   UNL     1     -11.623  16.571  63.954  1.00  0.00    -1.175 OA 
BRANCH   4   6
HETATM    6  C   UNL     1     -10.907  14.652  65.322  1.00  0.00    -0.377 C  
HETATM    7  N   UNL     1      -9.591  14.350  65.934  1.00  0.00    -0.481 NA 
HETATM    8  H2  UNL     1      -9.345  15.010  66.672  1.00  0.00     0.000 HD 
HETATM    9  H1  UNL     1      -9.591  13.384  66.260  1.00  0.00     0.000 HD 
BRANCH   6  10
HETATM   10  C   UNL     1     -12.069  14.408  66.310  1.00  0.00    -0.384 C  
BRANCH  10  11
HETATM   11  C   UNL     1     -11.879  13.301  67.339  1.00  0.00    -0.413 A  
HETATM   12  C   UNL     1     -11.619  11.969  67.001  1.00  0.00    -0.387 A  
HETATM   13  C   UNL     1     -11.476  10.979  68.003  1.00  0.00    -0.365 A  
HETATM   14  C   UNL     1     -11.594  11.268  69.380  1.00  0.00    -0.390 A  
HETATM   15  C   UNL     1     -11.776  12.628  69.692  1.00  0.00    -0.373 A  
HETATM   16  C   UNL     1     -11.923  13.615  68.700  1.00  0.00    -0.395 A  
BRANCH  14  17
HETATM   17  C   UNL     1     -11.631  10.190  70.429  1.00  0.00    -0.316 A  
HETATM   18  N   UNL     1     -12.790  10.044  71.113  1.00  0.00    -0.364 NA 
HETATM   19  C   UNL     1     -12.798   9.220  72.170  1.00  0.00    -0.408 A  
HETATM   20  N   UNL     1     -11.738   8.572  72.667  1.00  0.00    -0.321 NA 
HETATM   21  N   UNL     1     -13.984   9.092  72.865  1.00  0.00    -1.067 NA 
HETATM   22  H1  UNL     1     -13.990   8.465  73.669  1.00  0.00     0.000 HD 
HETATM   23  C   UNL     1     -10.609   8.712  71.968  1.00  0.00    -0.351 A  
HETATM   24  H2  UNL     1     -14.821   9.604  72.585  1.00  0.00     0.000 HD 
HETATM   25  C   UNL     1     -10.512   9.468  70.815  1.00  0.00    -0.384 A  
BRANCH  23  26
HETATM   26  O   UNL     1      -9.419   8.214  72.466  1.00  0.00    -0.212 OA 
BRANCH  26  27
HETATM   27  C   UNL     1      -8.226   8.393  71.663  1.00  0.00    -0.152 C  
HETATM   28  C   UNL     1      -6.884   8.476  72.433  1.00  0.00    -0.067 C  
HETATM   29  F   UNL     1      -7.017   8.601  73.772  1.00  0.00    -0.155 F  
HETATM   30  F   UNL     1      -6.193   9.575  72.006  1.00  0.00    -0.041 F  
HETATM   31  F   UNL     1      -6.061   7.424  72.203  1.00  0.00    -0.040 F  
BRANCH  27  32
HETATM   32  C   UNL     1      -8.184   7.357  70.497  1.00  0.00    -0.127 A  
HETATM   33  C   UNL     1      -7.687   7.827  69.258  1.00  0.00    -0.100 A  
HETATM   34  C   UNL     1      -7.735   7.046  68.100  1.00  0.00    -0.113 A  
HETATM   35  C   UNL     1      -8.299   5.780  68.147  1.00  0.00    -0.107 A  
HETATM   36  C   UNL     1      -8.712   5.240  69.365  1.00  0.00    -0.109 A  
HETATM   37 CL   UNL     1      -8.484   4.867  66.699  1.00  0.00    -0.107 Cl 
HETATM   38  C   UNL     1      -8.603   5.994  70.552  1.00  0.00    -0.137 A  
BRANCH  38  39
HETATM   39  N   UNL     1      -8.890   5.339  71.785  1.00  0.00    -0.134 NA 
HETATM   40  C   UNL     1      -8.043   5.000  72.825  1.00  0.00    -0.105 A  
HETATM   41  C   UNL     1      -8.770   4.199  73.678  1.00  0.00    -0.094 A  
HETATM   42  C   UNL     1     -10.057   4.181  73.124  1.00  0.00    -0.146 A  
HETATM   43  N   UNL     1     -10.153   5.005  72.093  1.00  0.00    -0.189 NA 
HETATM   44  C   UNL     1     -11.250   3.383  73.504  1.00  0.00    -0.280 C  
ENDBRANCH  38  39
ENDBRANCH  27  32
ENDBRANCH  26  27
ENDBRANCH  23  26
ENDBRANCH  14  17
ENDBRANCH  10  11
ENDBRANCH   6  10
ENDBRANCH   4   6
ENDBRANCH   3   4
ENDBRANCH   2   3
TORSDOF 10
ENDMDL
MODEL       18
REMARK 921   NORMALIZED FREE ENERGY PREDICTED BY IDOCK:   -7.10 KCAL/MOL
REMARK 922        TOTAL FREE ENERGY PREDICTED BY IDOCK:  -13.59 KCAL/MOL
REMARK 923 INTER-LIGAND FREE ENERGY PREDICTED BY IDOCK:  -11.82 KCAL/MOL
REMARK 924 INTRA-LIGAND FREE ENERGY PREDICTED BY IDOCK:   -1.76 KCAL/MOL
REMARK 927      BINDING AFFINITY PREDICTED BY RF-SCORE:    0.00 PKD
ROOT
HETATM    1  C   UNL     1      -9.564   4.093  69.506  1.00  0.00    -0.274 C  
HETATM    2  C   UNL     1      -8.773   4.340  70.778  1.00  0.00    -0.087 C  
ENDROOT
BRANCH   2   3
HETATM    3  O   UNL     1      -9.625   4.034  71.888  1.00  0.00    -0.133 OA 
BRANCH   3   4
HETATM    4  C   UNL     1      -9.366   4.755  73.022  1.00  0.00    -0.126 C  
HETATM    5  O   UNL     1      -8.250   5.021  73.448  1.00  0.00    -0.109 OA 
BRANCH   4   6
HETATM    6  C   UNL     1     -10.699   5.197  73.640  1.00  0.00    -0.293 C  
HETATM    7  N   UNL     1     -10.456   6.355  74.532  1.00  0.00    -0.358 NA 
HETATM    8  H2  UNL     1      -9.977   7.119  74.055  1.00  0.00     0.000 HD 
HETATM    9  H1  UNL     1     -11.342   6.649  74.943  1.00  0.00     0.000 HD 
BRANCH   6  10
HETATM   10  C   UNL     1     -11.731   5.525  72.540  1.00  0.00    -0.222 C  
BRANCH  10  11
HETATM   11  C   UNL     1     -11.822   6.978  72.091  1.00  0.00    -0.314 A  
HETATM   12  C   UNL     1     -10.779   7.656  71.452  1.00  0.00    -0.247 A  
HETATM   13  C   UNL     1     -10.916   9.016  71.080  1.00  0.00    -0.371 A  
HETATM   14  C   UNL     1     -12.089   9.760  71.335  1.00  0.00    -0.486 A  
HETATM   15  C   UNL     1     -13.147   9.030  71.905  1.00  0.00    -0.459 A  
HETATM   16  C   UNL     1     -13.016   7.680  72.280  1.00  0.00    -0.024 A  
BRANCH  14  17
HETATM   17  C   UNL     1     -12.164  11.246  71.112  1.00  0.00    -0.246 A  
HETATM   18  N   UNL     1     -12.987  11.944  71.929  1.00  0.00    -0.384 NA 
HETATM   19  C   UNL     1     -13.213  13.234  71.644  1.00  0.00    -0.359 A  
HETATM   20  N   UNL     1     -12.755  13.891  70.572  1.00  0.00    -0.288 NA 
HETATM   21  N   UNL     1     -14.064  13.928  72.479  1.00  0.00    -0.702 NA 
HETATM   22  H1  UNL     1     -14.237  14.909  72.261  1.00  0.00     0.000 HD 
HETATM   23  C   UNL     1     -11.929  13.192  69.789  1.00  0.00    -0.314 A  
HETATM   24  H2  UNL     1     -14.504  13.478  73.283  1.00  0.00     0.000 HD 
HETATM   25  C   UNL     1     -11.561  11.885  70.039  1.00  0.00    -0.301 A  
BRANCH  23  26
HETATM   26  O   UNL     1     -11.515  13.716  68.577  1.00  0.00    -0.269 OA 
BRANCH  26  27
HETATM   27  C   UNL     1     -10.183  14.281  68.509  1.00  0.00    -0.245 C  
HETATM   28  C   UNL     1      -9.052  13.327  68.049  1.00  0.00    -0.202 C  
HETATM   29  F   UNL     1      -9.413  12.026  67.987  1.00  0.00    -0.172 F  
HETATM   30  F   UNL     1      -8.016  13.402  68.936  1.00  0.00    -0.117 F  
HETATM   31  F   UNL     1      -8.520  13.657  66.847  1.00  0.00    -0.206 F  
BRANCH  27  32
HETATM   32  C   UNL     1     -10.192  15.625  67.716  1.00  0.00    -0.252 A  
HETATM   33  C   UNL     1      -9.563  16.728  68.343  1.00  0.00    -0.241 A  
HETATM   34  C   UNL     1      -9.632  18.017  67.807  1.00  0.00    -0.278 A  
HETATM   35  C   UNL     1     -10.347  18.241  66.641  1.00  0.00    -0.381 A  
HETATM   36  C   UNL     1     -10.898  17.169  65.939  1.00  0.00    -0.017 A  
HETATM   37 CL   UNL     1     -10.547  19.845  66.050  1.00  0.00    -0.572 Cl 
HETATM   38  C   UNL     1     -10.775  15.854  66.434  1.00  0.00    -0.256 A  
BRANCH  38  39
HETATM   39  N   UNL     1     -11.218  14.785  65.601  1.00  0.00    -0.338 NA 
HETATM   40  C   UNL     1     -12.462  14.186  65.518  1.00  0.00    -0.476 A  
HETATM   41  C   UNL     1     -12.308  13.072  64.722  1.00  0.00    -0.490 A  
HETATM   42  C   UNL     1     -10.973  13.127  64.303  1.00  0.00    -0.403 A  
HETATM   43  N   UNL     1     -10.387  14.247  64.696  1.00  0.00    -0.356 NA 
HETATM   44  C   UNL     1     -10.167  12.138  63.543  1.00  0.00    -0.453 C  
ENDBRANCH  38  39
ENDBRANCH  27  32
ENDBRANCH  26  27
ENDBRANCH  23  26
ENDBRANCH  14  17
ENDBRANCH  10  11
ENDBRANCH   6  10
ENDBRANCH   4   6
ENDBRANCH   3   4
ENDBRANCH   2   3
TORSDOF 10
ENDMDL
MODEL       19
REMARK 921   NORMALIZED FREE ENERGY PREDICTED BY IDOCK:   -6.95 KCAL/MOL
REMARK 922        TOTAL FREE ENERGY PREDICTED BY IDOCK:  -13.36 KCAL/MOL
REMARK 923 INTER-LIGAND FREE ENERGY PREDICTED BY IDOCK:  -10.72 KCAL/MOL
REMARK 924 INTRA-LIGAND FREE ENERGY PREDICTED BY IDOCK:   -2.64 KCAL/MOL
REMARK 927      BINDING AFFINITY PREDICTED BY RF-SCORE:    0.00 PKD
ROOT
HETATM    1  C   UNL     1      -9.734  20.520  67.312  1.00  0.00    -0.600 C  
HETATM    2  C   UNL     1      -9.043  19.316  66.698  1.00  0.00    -0.338 C  
ENDROOT
BRANCH   2   3
HETATM    3  O   UNL     1      -9.321  18.182  67.529  1.00  0.00    -0.256 OA 
BRANCH   3   4
HETATM    4  C   UNL     1      -9.750  17.072  66.853  1.00  0.00    -0.262 C  
HETATM    5  O   UNL     1     -10.084  17.048  65.676  1.00  0.00    -0.554 OA 
BRANCH   4   6
HETATM    6  C   UNL     1      -9.706  15.869  67.805  1.00  0.00    -0.220 C  
HETATM    7  N   UNL     1      -8.861  16.209  68.974  1.00  0.00    -0.244 NA 
HETATM    8  H2  UNL     1      -9.168  17.063  69.440  1.00  0.00     0.000 HD 
HETATM    9  H1  UNL     1      -8.832  15.410  69.606  1.00  0.00     0.000 HD 
BRANCH   6  10
HETATM   10  C   UNL     1     -11.132  15.455  68.229  1.00  0.00    -0.309 C  
BRANCH  10  11
HETATM   11  C   UNL     1     -11.287  14.090  68.888  1.00  0.00    -0.314 A  
HETATM   12  C   UNL     1     -10.545  12.964  68.516  1.00  0.00    -0.270 A  
HETATM   13  C   UNL     1     -10.752  11.715  69.151  1.00  0.00    -0.188 A  
HETATM   14  C   UNL     1     -11.708  11.530  70.174  1.00  0.00    -0.395 A  
HETATM   15  C   UNL     1     -12.381  12.697  70.581  1.00  0.00    -0.375 A  
HETATM   16  C   UNL     1     -12.183  13.939  69.951  1.00  0.00    -0.393 A  
BRANCH  14  17
HETATM   17  C   UNL     1     -12.058  10.170  70.713  1.00  0.00    -0.343 A  
HETATM   18  N   UNL     1     -13.020  10.120  71.664  1.00  0.00    -0.420 NA 
HETATM   19  C   UNL     1     -13.227   8.953  72.290  1.00  0.00    -0.447 A  
HETATM   20  N   UNL     1     -12.516   7.833  72.115  1.00  0.00    -0.275 NA 
HETATM   21  N   UNL     1     -14.202   8.922  73.266  1.00  0.00    -1.237 NA 
HETATM   22  H1  UNL     1     -14.360   8.035  73.743  1.00  0.00     0.000 HD 
HETATM   23  C   UNL     1     -11.585   7.896  71.160  1.00  0.00    -0.280 A  
HETATM   24  H2  UNL     1     -14.745   9.754  73.501  1.00  0.00     0.000 HD 
HETATM   25  C   UNL     1     -11.349   9.022  70.395  1.00  0.00    -0.242 A  
BRANCH  23  26
HETATM   26  O   UNL     1     -10.692   6.853  70.993  1.00  0.00    -0.225 OA 
BRANCH  26  27
HETATM   27  C   UNL     1      -9.533   7.088  70.156  1.00  0.00    -0.162 C  
HETATM   28  C   UNL     1      -8.201   7.383  70.892  1.00  0.00    -0.114 C  
HETATM   29  F   UNL     1      -8.337   7.610  72.218  1.00  0.00    -0.104 F  
HETATM   30  F   UNL     1      -7.638   8.508  70.360  1.00  0.00    -0.062 F  
HETATM   31  F   UNL     1      -7.271   6.410  70.741  1.00  0.00    -0.066 F  
BRANCH  27  32
HETATM   32  C   UNL     1      -9.387   5.963  69.084  1.00  0.00    -0.137 A  
HETATM   33  C   UNL     1      -9.798   4.666  69.477  1.00  0.00    -0.286 A  
HETATM   34  C   UNL     1      -9.582   3.549  68.666  1.00  0.00    -0.140 A  
HETATM   35  C   UNL     1      -8.934   3.695  67.449  1.00  0.00    -0.141 A  
HETATM   36  C   UNL     1      -8.601   4.966  66.980  1.00  0.00    -0.104 A  
HETATM   37 CL   UNL     1      -8.547   2.307  66.509  1.00  0.00    -0.105 Cl 
HETATM   38  C   UNL     1      -8.877   6.109  67.760  1.00  0.00    -0.110 A  
BRANCH  38  39
HETATM   39  N   UNL     1      -8.661   7.387  67.167  1.00  0.00    -0.120 NA 
HETATM   40  C   UNL     1      -7.524   8.174  67.154  1.00  0.00    -0.089 A  
HETATM   41  C   UNL     1      -7.899   9.396  66.640  1.00  0.00    -0.104 A  
HETATM   42  C   UNL     1      -9.246   9.227  66.292  1.00  0.00    -0.186 A  
HETATM   43  N   UNL     1      -9.635   7.972  66.454  1.00  0.00    -0.214 NA 
HETATM   44  C   UNL     1     -10.244  10.220  65.820  1.00  0.00    -0.289 C  
ENDBRANCH  38  39
ENDBRANCH  27  32
ENDBRANCH  26  27
ENDBRANCH  23  26
ENDBRANCH  14  17
ENDBRANCH  10  11
ENDBRANCH   6  10
ENDBRANCH   4   6
ENDBRANCH   3   4
ENDBRANCH   2   3
TORSDOF 10
ENDMDL
MODEL       20
REMARK 921   NORMALIZED FREE ENERGY PREDICTED BY IDOCK:   -6.92 KCAL/MOL
REMARK 922        TOTAL FREE ENERGY PREDICTED BY IDOCK:  -13.30 KCAL/MOL
REMARK 923 INTER-LIGAND FREE ENERGY PREDICTED BY IDOCK:  -11.14 KCAL/MOL
REMARK 924 INTRA-LIGAND FREE ENERGY PREDICTED BY IDOCK:   -2.16 KCAL/MOL
REMARK 927      BINDING AFFINITY PREDICTED BY RF-SCORE:    0.00 PKD
ROOT
HETATM    1  C   UNL     1      -9.505   6.772  68.389  1.00  0.00    -0.126 C  
HETATM    2  C   UNL     1      -9.428   5.576  69.320  1.00  0.00    -0.129 C  
ENDROOT
BRANCH   2   3
HETATM    3  O   UNL     1     -10.471   5.711  70.293  1.00  0.00    -0.246 OA 
BRANCH   3   4
HETATM    4  C   UNL     1     -10.079   6.280  71.474  1.00  0.00    -0.190 C  
HETATM    5  O   UNL     1      -8.933   6.606  71.754  1.00  0.00    -0.140 OA 
BRANCH   4   6
HETATM    6  C   UNL     1     -11.315   6.468  72.364  1.00  0.00    -0.279 C  
HETATM    7  N   UNL     1     -10.954   7.325  73.517  1.00  0.00    -0.555 NA 
HETATM    8  H2  UNL     1     -10.545   8.214  73.228  1.00  0.00     0.000 HD 
HETATM    9  H1  UNL     1     -11.775   7.450  74.108  1.00  0.00     0.000 HD 
BRANCH   6  10
HETATM   10  C   UNL     1     -12.488   7.060  71.553  1.00  0.00    -0.426 C  
BRANCH  10  11
HETATM   11  C   UNL     1     -12.436   8.553  71.254  1.00  0.00    -0.275 A  
HETATM   12  C   UNL     1     -11.498   9.136  70.396  1.00  0.00    -0.228 A  
HETATM   13  C   UNL     1     -11.484  10.535  70.176  1.00  0.00    -0.405 A  
HETATM   14  C   UNL     1     -12.394  11.413  70.805  1.00  0.00    -0.483 A  
HETATM   15  C   UNL     1     -13.375  10.789  71.598  1.00  0.00    -0.390 A  
HETATM   16  C   UNL     1     -13.391   9.401  71.823  1.00  0.00    -0.489 A  
BRANCH  14  17
HETATM   17  C   UNL     1     -12.260  12.909  70.720  1.00  0.00    -0.260 A  
HETATM   18  N   UNL     1     -13.325  13.640  71.123  1.00  0.00    -0.184 NA 
HETATM   19  C   UNL     1     -13.307  14.961  70.893  1.00  0.00    -0.344 A  
HETATM   20  N   UNL     1     -12.356  15.627  70.228  1.00  0.00    -0.400 NA 
HETATM   21  N   UNL     1     -14.406  15.691  71.298  1.00  0.00    -0.678 NA 
HETATM   22  H1  UNL     1     -14.392  16.695  71.122  1.00  0.00     0.000 HD 
HETATM   23  C   UNL     1     -11.304  14.892  69.856  1.00  0.00    -0.277 A  
HETATM   24  H2  UNL     1     -15.201  15.243  71.756  1.00  0.00     0.000 HD 
HETATM   25  C   UNL     1     -11.183  13.542  70.120  1.00  0.00     0.187 A  
BRANCH  23  26
HETATM   26  O   UNL     1     -10.333  15.438  69.035  1.00  0.00    -0.222 OA 
BRANCH  26  27
HETATM   27  C   UNL     1     -10.760  15.997  67.768  1.00  0.00    -0.323 C  
HETATM   28  C   UNL     1     -10.020  17.273  67.294  1.00  0.00    -0.283 C  
HETATM   29  F   UNL     1      -9.224  17.834  68.231  1.00  0.00    -0.248 F  
HETATM   30  F   UNL     1     -10.941  18.220  66.947  1.00  0.00    -0.346 F  
HETATM   31  F   UNL     1      -9.266  17.081  66.184  1.00  0.00    -0.275 F  
BRANCH  27  32
HETATM   32  C   UNL     1     -10.816  14.892  66.667  1.00  0.00    -0.319 A  
HETATM   33  C   UNL     1     -11.787  15.067  65.652  1.00  0.00    -0.050 A  
HETATM   34  C   UNL     1     -12.038  14.080  64.695  1.00  0.00    -0.462 A  
HETATM   35  C   UNL     1     -11.338  12.884  64.740  1.00  0.00    -0.315 A  
HETATM   36  C   UNL     1     -10.306  12.709  65.661  1.00  0.00    -0.293 A  
HETATM   37 CL   UNL     1     -11.737  11.614  63.649  1.00  0.00    -0.483 Cl 
HETATM   38  C   UNL     1      -9.996  13.727  66.587  1.00  0.00    -0.279 A  
BRANCH  38  39
HETATM   39  N   UNL     1      -8.835  13.559  67.397  1.00  0.00    -0.210 NA 
HETATM   40  C   UNL     1      -7.749  14.398  67.568  1.00  0.00    -0.192 A  
HETATM   41  C   UNL     1      -6.811  13.683  68.280  1.00  0.00    -0.108 A  
HETATM   42  C   UNL     1      -7.446  12.468  68.568  1.00  0.00    -0.122 A  
HETATM   43  N   UNL     1      -8.712  12.480  68.183  1.00  0.00    -0.186 NA 
HETATM   44  C   UNL     1      -6.907  11.230  69.186  1.00  0.00    -0.109 C  
ENDBRANCH  38  39
ENDBRANCH  27  32
ENDBRANCH  26  27
ENDBRANCH  23  26
ENDBRANCH  14  17
ENDBRANCH  10  11
ENDBRANCH   6  10
ENDBRANCH   4   6
ENDBRANCH   3   4
ENDBRANCH   2   3
TORSDOF 10
ENDMDL
MODEL       21
REMARK 921   NORMALIZED FREE ENERGY PREDICTED BY IDOCK:   -6.90 KCAL/MOL
REMARK 922        TOTAL FREE ENERGY PREDICTED BY IDOCK:  -13.28 KCAL/MOL
REMARK 923 INTER-LIGAND FREE ENERGY PREDICTED BY IDOCK:  -11.08 KCAL/MOL
REMARK 924 INTRA-LIGAND FREE ENERGY PREDICTED BY IDOCK:   -2.20 KCAL/MOL
REMARK 927      BINDING AFFINITY PREDICTED BY RF-SCORE:    0.00 PKD
ROOT
HETATM    1  C   UNL     1      -9.073   5.363  70.049  1.00  0.00    -0.160 C  
HETATM    2  C   UNL     1     -10.373   5.084  70.782  1.00  0.00    -0.195 C  
ENDROOT
BRANCH   2   3
HETATM    3  O   UNL     1     -10.047   4.440  72.019  1.00  0.00    -0.181 OA 
BRANCH   3   4
HETATM    4  C   UNL     1     -10.835   4.806  73.077  1.00  0.00    -0.256 C  
HETATM    5  O   UNL     1     -12.058   4.801  73.079  1.00  0.00    -0.115 OA 
BRANCH   4   6
HETATM    6  C   UNL     1      -9.930   5.184  74.257  1.00  0.00    -0.213 C  
HETATM    7  N   UNL     1      -8.563   4.672  74.000  1.00  0.00    -0.105 NA 
HETATM    8  H2  UNL     1      -8.190   4.992  73.106  1.00  0.00     0.000 HD 
HETATM    9  H1  UNL     1      -7.962   4.924  74.784  1.00  0.00     0.000 HD 
BRANCH   6  10
HETATM   10  C   UNL     1      -9.938   6.712  74.485  1.00  0.00    -0.316 C  
BRANCH  10  11
HETATM   11  C   UNL     1      -9.817   7.594  73.249  1.00  0.00    -0.360 A  
HETATM   12  C   UNL     1     -10.911   8.189  72.615  1.00  0.00    -0.440 A  
HETATM   13  C   UNL     1     -10.738   8.981  71.453  1.00  0.00    -0.401 A  
HETATM   14  C   UNL     1      -9.472   9.206  70.869  1.00  0.00    -0.343 A  
HETATM   15  C   UNL     1      -8.383   8.662  71.574  1.00  0.00    -0.220 A  
HETATM   16  C   UNL     1      -8.550   7.871  72.726  1.00  0.00    -0.225 A  
BRANCH  14  17
HETATM   17  C   UNL     1      -9.309   9.886  69.536  1.00  0.00    -0.220 A  
HETATM   18  N   UNL     1      -8.066  10.318  69.220  1.00  0.00    -0.143 NA 
HETATM   19  C   UNL     1      -7.923  11.082  68.128  1.00  0.00    -0.119 A  
HETATM   20  N   UNL     1      -8.915  11.525  67.347  1.00  0.00    -0.153 NA 
HETATM   21  N   UNL     1      -6.652  11.526  67.827  1.00  0.00    -0.064 NA 
HETATM   22  H1  UNL     1      -6.543  12.107  66.996  1.00  0.00     0.000 HD 
HETATM   23  C   UNL     1     -10.131  11.072  67.662  1.00  0.00    -0.182 A  
HETATM   24  H2  UNL     1      -5.852  11.282  68.412  1.00  0.00     0.000 HD 
HETATM   25  C   UNL     1     -10.377  10.211  68.715  1.00  0.00    -0.211 A  
BRANCH  23  26
HETATM   26  O   UNL     1     -11.248  11.578  67.022  1.00  0.00    -0.288 OA 
BRANCH  26  27
HETATM   27  C   UNL     1     -11.274  12.999  66.740  1.00  0.00    -0.298 C  
HETATM   28  C   UNL     1     -12.226  13.458  65.606  1.00  0.00    -0.463 C  
HETATM   29  F   UNL     1     -12.741  12.449  64.870  1.00  0.00    -0.532 F  
HETATM   30  F   UNL     1     -11.535  14.259  64.741  1.00  0.00    -0.335 F  
HETATM   31  F   UNL     1     -13.263  14.214  66.043  1.00  0.00    -0.453 F  
BRANCH  27  32
HETATM   32  C   UNL     1     -11.467  13.820  68.053  1.00  0.00    -0.344 A  
HETATM   33  C   UNL     1     -12.129  13.158  69.114  1.00  0.00    -0.261 A  
HETATM   34  C   UNL     1     -12.494  13.827  70.286  1.00  0.00    -0.357 A  
HETATM   35  C   UNL     1     -12.224  15.180  70.419  1.00  0.00    -0.344 A  
HETATM   36  C   UNL     1     -11.488  15.848  69.441  1.00  0.00    -0.351 A  
HETATM   37 CL   UNL     1     -12.791  16.038  71.799  1.00  0.00    -0.419 Cl 
HETATM   38  C   UNL     1     -11.052  15.166  68.285  1.00  0.00    -0.291 A  
BRANCH  38  39
HETATM   39  N   UNL     1     -10.173  15.852  67.398  1.00  0.00    -0.264 NA 
HETATM   40  C   UNL     1      -9.032  15.400  66.759  1.00  0.00    -0.259 A  
HETATM   41  C   UNL     1      -8.437  16.506  66.193  1.00  0.00    -0.320 A  
HETATM   42  C   UNL     1      -9.325  17.556  66.463  1.00  0.00    -0.265 A  
HETATM   43  N   UNL     1     -10.437  17.115  67.032  1.00  0.00    -0.309 NA 
HETATM   44  C   UNL     1      -9.180  19.015  66.234  1.00  0.00    -0.307 C  
ENDBRANCH  38  39
ENDBRANCH  27  32
ENDBRANCH  26  27
ENDBRANCH  23  26
ENDBRANCH  14  17
ENDBRANCH  10  11
ENDBRANCH   6  10
ENDBRANCH   4   6
ENDBRANCH   3   4
ENDBRANCH   2   3
TORSDOF 10
ENDMDL
MODEL       22
REMARK 921   NORMALIZED FREE ENERGY PREDICTED BY IDOCK:   -6.88 KCAL/MOL
REMARK 922        TOTAL FREE ENERGY PREDICTED BY IDOCK:  -13.25 KCAL/MOL
REMARK 923 INTER-LIGAND FREE ENERGY PREDICTED BY IDOCK:  -12.38 KCAL/MOL
REMARK 924 INTRA-LIGAND FREE ENERGY PREDICTED BY IDOCK:   -0.86 KCAL/MOL
REMARK 927      BINDING AFFINITY PREDICTED BY RF-SCORE:    0.00 PKD
ROOT
HETATM    1  C   UNL     1     -10.454  19.255  65.933  1.00  0.00    -0.534 C  
HETATM    2  C   UNL     1     -10.511  17.833  66.463  1.00  0.00    -0.297 C  
ENDROOT
BRANCH   2   3
HETATM    3  O   UNL     1      -9.952  16.973  65.464  1.00  0.00    -0.567 OA 
BRANCH   3   4
HETATM    4  C   UNL     1     -10.866  16.205  64.795  1.00  0.00    -0.262 C  
HETATM    5  O   UNL     1     -11.579  16.596  63.880  1.00  0.00    -1.204 OA 
BRANCH   4   6
HETATM    6  C   UNL     1     -10.820  14.779  65.360  1.00  0.00    -0.363 C  
HETATM    7  N   UNL     1      -9.531  14.581  66.064  1.00  0.00    -0.480 NA 
HETATM    8  H2  UNL     1      -9.366  15.289  66.780  1.00  0.00     0.000 HD 
HETATM    9  H1  UNL     1      -9.500  13.633  66.439  1.00  0.00     0.000 HD 
BRANCH   6  10
HETATM   10  C   UNL     1     -12.027  14.519  66.288  1.00  0.00    -0.335 C  
BRANCH  10  11
HETATM   11  C   UNL     1     -11.878  13.405  67.317  1.00  0.00    -0.422 A  
HETATM   12  C   UNL     1     -11.575  12.082  66.984  1.00  0.00    -0.387 A  
HETATM   13  C   UNL     1     -11.474  11.085  67.986  1.00  0.00    -0.365 A  
HETATM   14  C   UNL     1     -11.679  11.360  69.356  1.00  0.00    -0.406 A  
HETATM   15  C   UNL     1     -11.903  12.713  69.667  1.00  0.00    -0.379 A  
HETATM   16  C   UNL     1     -12.008  13.706  68.676  1.00  0.00    -0.395 A  
BRANCH  14  17
HETATM   17  C   UNL     1     -11.758  10.271  70.392  1.00  0.00    -0.319 A  
HETATM   18  N   UNL     1     -12.966  10.061  70.964  1.00  0.00    -0.368 NA 
HETATM   19  C   UNL     1     -13.031   9.228  72.012  1.00  0.00    -0.425 A  
HETATM   20  N   UNL     1     -11.991   8.630  72.602  1.00  0.00    -0.287 NA 
HETATM   21  N   UNL     1     -14.268   9.034  72.592  1.00  0.00    -0.930 NA 
HETATM   22  H1  UNL     1     -14.318   8.401  73.389  1.00  0.00     0.000 HD 
HETATM   23  C   UNL     1     -10.810   8.833  72.012  1.00  0.00    -0.358 A  
HETATM   24  H2  UNL     1     -15.101   9.506  72.237  1.00  0.00     0.000 HD 
HETATM   25  C   UNL     1     -10.645   9.603  70.877  1.00  0.00    -0.386 A  
BRANCH  23  26
HETATM   26  O   UNL     1      -9.647   8.390  72.618  1.00  0.00    -0.277 OA 
BRANCH  26  27
HETATM   27  C   UNL     1      -9.284   6.999  72.439  1.00  0.00    -0.132 C  
HETATM   28  C   UNL     1      -9.938   5.987  73.412  1.00  0.00    -0.182 C  
HETATM   29  F   UNL     1     -10.589   6.555  74.451  1.00  0.00    -0.334 F  
HETATM   30  F   UNL     1      -8.966   5.192  73.949  1.00  0.00    -0.117 F  
HETATM   31  F   UNL     1     -10.803   5.136  72.808  1.00  0.00    -0.243 F  
BRANCH  27  32
HETATM   32  C   UNL     1      -9.434   6.576  70.944  1.00  0.00    -0.179 A  
HETATM   33  C   UNL     1     -10.638   5.918  70.597  1.00  0.00    -0.334 A  
HETATM   34  C   UNL     1     -10.833   5.358  69.332  1.00  0.00    -0.103 A  
HETATM   35  C   UNL     1      -9.821   5.425  68.386  1.00  0.00    -0.147 A  
HETATM   36  C   UNL     1      -8.659   6.149  68.652  1.00  0.00    -0.113 A  
HETATM   37 CL   UNL     1     -10.003   4.623  66.874  1.00  0.00    -0.233 Cl 
HETATM   38  C   UNL     1      -8.481   6.777  69.902  1.00  0.00    -0.140 A  
BRANCH  38  39
HETATM   39  N   UNL     1      -7.350   7.631  70.063  1.00  0.00    -0.078 NA 
HETATM   40  C   UNL     1      -6.148   7.393  70.706  1.00  0.00    -0.035 A  
HETATM   41  C   UNL     1      -5.489   8.602  70.761  1.00  0.00    -0.028 A  
HETATM   42  C   UNL     1      -6.320   9.483  70.056  1.00  0.00    -0.054 A  
HETATM   43  N   UNL     1      -7.339   8.848  69.500  1.00  0.00    -0.069 NA 
HETATM   44  C   UNL     1      -6.226  10.955  69.886  1.00  0.00    -0.117 C  
ENDBRANCH  38  39
ENDBRANCH  27  32
ENDBRANCH  26  27
ENDBRANCH  23  26
ENDBRANCH  14  17
ENDBRANCH  10  11
ENDBRANCH   6  10
ENDBRANCH   4   6
ENDBRANCH   3   4
ENDBRANCH   2   3
TORSDOF 10
ENDMDL
MODEL       23
REMARK 921   NORMALIZED FREE ENERGY PREDICTED BY IDOCK:   -6.81 KCAL/MOL
REMARK 922        TOTAL FREE ENERGY PREDICTED BY IDOCK:  -13.13 KCAL/MOL
REMARK 923 INTER-LIGAND FREE ENERGY PREDICTED BY IDOCK:  -10.44 KCAL/MOL
REMARK 924 INTRA-LIGAND FREE ENERGY PREDICTED BY IDOCK:   -2.70 KCAL/MOL
REMARK 927      BINDING AFFINITY PREDICTED BY RF-SCORE:    0.00 PKD
ROOT
HETATM    1  C   UNL     1     -10.737  19.549  66.987  1.00  0.00    -0.592 C  
HETATM    2  C   UNL     1      -9.387  19.750  66.323  1.00  0.00    -0.391 C  
ENDROOT
BRANCH   2   3
HETATM    3  O   UNL     1      -8.473  18.810  66.899  1.00  0.00    -0.263 OA 
BRANCH   3   4
HETATM    4  C   UNL     1      -7.690  18.146  65.994  1.00  0.00    -0.169 C  
HETATM    5  O   UNL     1      -6.998  18.680  65.137  1.00  0.00    -0.511 OA 
BRANCH   4   6
HETATM    6  C   UNL     1      -7.801  16.639  66.258  1.00  0.00    -0.274 C  
HETATM    7  N   UNL     1      -7.374  16.360  67.649  1.00  0.00    -0.128 NA 
HETATM    8  H2  UNL     1      -7.890  16.914  68.333  1.00  0.00     0.000 HD 
HETATM    9  H1  UNL     1      -7.448  15.358  67.824  1.00  0.00     0.000 HD 
BRANCH   6  10
HETATM   10  C   UNL     1      -9.238  16.141  65.988  1.00  0.00    -0.363 C  
BRANCH  10  11
HETATM   11  C   UNL     1      -9.828  15.160  66.993  1.00  0.00    -0.233 A  
HETATM   12  C   UNL     1      -9.623  13.778  66.934  1.00  0.00    -0.263 A  
HETATM   13  C   UNL     1     -10.220  12.913  67.885  1.00  0.00    -0.233 A  
HETATM   14  C   UNL     1     -11.050  13.385  68.925  1.00  0.00    -0.307 A  
HETATM   15  C   UNL     1     -11.172  14.784  69.005  1.00  0.00    -0.286 A  
HETATM   16  C   UNL     1     -10.586  15.646  68.062  1.00  0.00    -0.271 A  
BRANCH  14  17
HETATM   17  C   UNL     1     -11.832  12.456  69.815  1.00  0.00    -0.317 A  
HETATM   18  N   UNL     1     -12.554  13.027  70.807  1.00  0.00    -0.286 NA 
HETATM   19  C   UNL     1     -13.114  12.223  71.722  1.00  0.00    -0.344 A  
HETATM   20  N   UNL     1     -12.967  10.895  71.793  1.00  0.00    -0.473 NA 
HETATM   21  N   UNL     1     -13.836  12.821  72.734  1.00  0.00    -0.655 NA 
HETATM   22  H1  UNL     1     -14.261  12.210  73.431  1.00  0.00     0.000 HD 
HETATM   23  C   UNL     1     -12.268  10.348  70.795  1.00  0.00    -0.359 A  
HETATM   24  H2  UNL     1     -13.941  13.835  72.785  1.00  0.00     0.000 HD 
HETATM   25  C   UNL     1     -11.722  11.076  69.754  1.00  0.00    -0.410 A  
BRANCH  23  26
HETATM   26  O   UNL     1     -11.924   9.009  70.842  1.00  0.00    -0.282 OA 
BRANCH  26  27
HETATM   27  C   UNL     1     -10.524   8.680  71.019  1.00  0.00    -0.219 C  
HETATM   28  C   UNL     1     -10.127   8.080  72.392  1.00  0.00    -0.266 C  
HETATM   29  F   UNL     1     -11.095   8.151  73.331  1.00  0.00    -0.326 F  
HETATM   30  F   UNL     1      -9.054   8.767  72.884  1.00  0.00    -0.296 F  
HETATM   31  F   UNL     1      -9.723   6.788  72.322  1.00  0.00    -0.151 F  
BRANCH  27  32
HETATM   32  C   UNL     1     -10.000   7.830  69.820  1.00  0.00    -0.189 A  
HETATM   33  C   UNL     1     -10.929   6.942  69.227  1.00  0.00    -0.260 A  
HETATM   34  C   UNL     1     -10.547   6.022  68.247  1.00  0.00    -0.325 A  
HETATM   35  C   UNL     1      -9.221   5.953  67.847  1.00  0.00    -0.108 A  
HETATM   36  C   UNL     1      -8.293   6.875  68.332  1.00  0.00    -0.120 A  
HETATM   37 CL   UNL     1      -8.719   4.735  66.740  1.00  0.00    -0.108 Cl 
HETATM   38  C   UNL     1      -8.683   7.853  69.270  1.00  0.00    -0.138 A  
BRANCH  38  39
HETATM   39  N   UNL     1      -7.737   8.863  69.611  1.00  0.00    -0.075 NA 
HETATM   40  C   UNL     1      -6.793   8.885  70.623  1.00  0.00    -0.057 A  
HETATM   41  C   UNL     1      -6.285  10.165  70.657  1.00  0.00    -0.103 A  
HETATM   42  C   UNL     1      -6.910  10.815  69.584  1.00  0.00    -0.133 A  
HETATM   43  N   UNL     1      -7.640   9.975  68.868  1.00  0.00    -0.081 NA 
HETATM   44  C   UNL     1      -6.883  12.245  69.186  1.00  0.00    -0.073 C  
ENDBRANCH  38  39
ENDBRANCH  27  32
ENDBRANCH  26  27
ENDBRANCH  23  26
ENDBRANCH  14  17
ENDBRANCH  10  11
ENDBRANCH   6  10
ENDBRANCH   4   6
ENDBRANCH   3   4
ENDBRANCH   2   3
TORSDOF 10
ENDMDL
MODEL       24
REMARK 921   NORMALIZED FREE ENERGY PREDICTED BY IDOCK:   -6.76 KCAL/MOL
REMARK 922        TOTAL FREE ENERGY PREDICTED BY IDOCK:  -13.06 KCAL/MOL
REMARK 923 INTER-LIGAND FREE ENERGY PREDICTED BY IDOCK:  -10.79 KCAL/MOL
REMARK 924 INTRA-LIGAND FREE ENERGY PREDICTED BY IDOCK:   -2.26 KCAL/MOL
REMARK 927      BINDING AFFINITY PREDICTED BY RF-SCORE:    0.00 PKD
ROOT
HETATM    1  C   UNL     1     -10.842  15.640  64.981  1.00  0.00    -0.468 C  
HETATM    2  C   UNL     1      -9.590  15.347  65.788  1.00  0.00    -0.333 C  
ENDROOT
BRANCH   2   3
HETATM    3  O   UNL     1      -9.391  16.438  66.696  1.00  0.00    -0.231 OA 
BRANCH   3   4
HETATM    4  C   UNL     1      -9.065  16.066  67.972  1.00  0.00    -0.189 C  
HETATM    5  O   UNL     1      -8.090  15.396  68.284  1.00  0.00    -0.132 OA 
BRANCH   4   6
HETATM    6  C   UNL     1     -10.103  16.656  68.936  1.00  0.00    -0.274 C  
HETATM    7  N   UNL     1     -10.135  18.128  68.768  1.00  0.00    -0.386 NA 
HETATM    8  H2  UNL     1     -10.302  18.405  67.800  1.00  0.00     0.000 HD 
HETATM    9  H1  UNL     1     -10.825  18.520  69.409  1.00  0.00     0.000 HD 
BRANCH   6  10
HETATM   10  C   UNL     1     -11.491  16.021  68.703  1.00  0.00    -0.377 C  
BRANCH  10  11
HETATM   11  C   UNL     1     -11.724  14.636  69.295  1.00  0.00    -0.348 A  
HETATM   12  C   UNL     1     -12.257  14.422  70.570  1.00  0.00    -0.411 A  
HETATM   13  C   UNL     1     -12.428  13.110  71.076  1.00  0.00    -0.406 A  
HETATM   14  C   UNL     1     -12.068  11.959  70.340  1.00  0.00    -0.421 A  
HETATM   15  C   UNL     1     -11.610  12.204  69.033  1.00  0.00    -0.374 A  
HETATM   16  C   UNL     1     -11.435  13.504  68.527  1.00  0.00    -0.345 A  
BRANCH  14  17
HETATM   17  C   UNL     1     -12.073  10.582  70.947  1.00  0.00    -0.383 A  
HETATM   18  N   UNL     1     -13.195  10.211  71.608  1.00  0.00    -0.413 NA 
HETATM   19  C   UNL     1     -13.165   9.069  72.309  1.00  0.00    -0.460 A  
HETATM   20  N   UNL     1     -12.096   8.284  72.481  1.00  0.00    -0.380 NA 
HETATM   21  N   UNL     1     -14.312   8.712  72.988  1.00  0.00    -1.094 NA 
HETATM   22  H1  UNL     1     -14.289   7.843  73.522  1.00  0.00     0.000 HD 
HETATM   23  C   UNL     1     -11.005   8.654  71.806  1.00  0.00    -0.326 A  
HETATM   24  H2  UNL     1     -15.150   9.293  72.958  1.00  0.00     0.000 HD 
HETATM   25  C   UNL     1     -10.954   9.765  70.985  1.00  0.00    -0.402 A  
BRANCH  23  26
HETATM   26  O   UNL     1      -9.801   8.007  72.023  1.00  0.00    -0.181 OA 
BRANCH  26  27
HETATM   27  C   UNL     1      -8.782   8.122  70.999  1.00  0.00    -0.139 C  
HETATM   28  C   UNL     1      -7.328   8.322  71.496  1.00  0.00    -0.087 C  
HETATM   29  F   UNL     1      -7.223   8.593  72.815  1.00  0.00    -0.132 F  
HETATM   30  F   UNL     1      -6.773   9.381  70.835  1.00  0.00    -0.072 F  
HETATM   31  F   UNL     1      -6.516   7.269  71.232  1.00  0.00    -0.039 F  
BRANCH  27  32
HETATM   32  C   UNL     1      -8.907   6.961  69.963  1.00  0.00    -0.142 A  
HETATM   33  C   UNL     1      -8.725   7.313  68.604  1.00  0.00    -0.127 A  
HETATM   34  C   UNL     1      -8.957   6.402  67.570  1.00  0.00    -0.116 A  
HETATM   35  C   UNL     1      -9.394   5.120  67.867  1.00  0.00    -0.120 A  
HETATM   36  C   UNL     1      -9.492   4.702  69.194  1.00  0.00    -0.224 A  
HETATM   37 CL   UNL     1      -9.809   4.037  66.595  1.00  0.00    -0.220 Cl 
HETATM   38  C   UNL     1      -9.193   5.593  70.246  1.00  0.00    -0.151 A  
BRANCH  38  39
HETATM   39  N   UNL     1      -9.157   5.069  71.572  1.00  0.00    -0.138 NA 
HETATM   40  C   UNL     1      -8.070   4.766  72.373  1.00  0.00    -0.107 A  
HETATM   41  C   UNL     1      -8.567   4.094  73.468  1.00  0.00    -0.092 A  
HETATM   42  C   UNL     1      -9.956   4.115  73.287  1.00  0.00    -0.136 A  
HETATM   43  N   UNL     1     -10.298   4.850  72.241  1.00  0.00    -0.202 NA 
HETATM   44  C   UNL     1     -11.031   3.436  74.055  1.00  0.00    -0.219 C  
ENDBRANCH  38  39
ENDBRANCH  27  32
ENDBRANCH  26  27
ENDBRANCH  23  26
ENDBRANCH  14  17
ENDBRANCH  10  11
ENDBRANCH   6  10
ENDBRANCH   4   6
ENDBRANCH   3   4
ENDBRANCH   2   3
TORSDOF 10
ENDMDL
MODEL       25
REMARK 921   NORMALIZED FREE ENERGY PREDICTED BY IDOCK:   -6.74 KCAL/MOL
REMARK 922        TOTAL FREE ENERGY PREDICTED BY IDOCK:  -13.02 KCAL/MOL
REMARK 923 INTER-LIGAND FREE ENERGY PREDICTED BY IDOCK:  -10.44 KCAL/MOL
REMARK 924 INTRA-LIGAND FREE ENERGY PREDICTED BY IDOCK:   -2.58 KCAL/MOL
REMARK 927      BINDING AFFINITY PREDICTED BY RF-SCORE:    0.00 PKD
ROOT
HETATM    1  C   UNL     1      -9.528   4.438  69.545  1.00  0.00    -0.251 C  
HETATM    2  C   UNL     1      -8.774   3.418  70.380  1.00  0.00    -0.075 C  
ENDROOT
BRANCH   2   3
HETATM    3  O   UNL     1      -9.735   2.692  71.154  1.00  0.00    -0.154 OA 
BRANCH   3   4
HETATM    4  C   UNL     1      -9.489   2.677  72.501  1.00  0.00    -0.100 C  
HETATM    5  O   UNL     1      -8.384   2.560  73.013  1.00  0.00    -0.067 OA 
BRANCH   4   6
HETATM    6  C   UNL     1     -10.817   2.864  73.246  1.00  0.00    -0.175 C  
HETATM    7  N   UNL     1     -10.986   1.757  74.217  1.00  0.00    -0.136 NA 
HETATM    8  H2  UNL     1     -10.192   1.673  74.852  1.00  0.00     0.000 HD 
HETATM    9  H1  UNL     1     -11.868   1.882  74.712  1.00  0.00     0.000 HD 
BRANCH   6  10
HETATM   10  C   UNL     1     -10.868   4.245  73.935  1.00  0.00    -0.330 C  
BRANCH  10  11
HETATM   11  C   UNL     1     -10.723   5.469  73.039  1.00  0.00    -0.295 A  
HETATM   12  C   UNL     1     -11.743   5.943  72.209  1.00  0.00    -0.309 A  
HETATM   13  C   UNL     1     -11.539   7.073  71.379  1.00  0.00    -0.329 A  
HETATM   14  C   UNL     1     -10.313   7.772  71.334  1.00  0.00    -0.226 A  
HETATM   15  C   UNL     1      -9.334   7.321  72.238  1.00  0.00    -0.162 A  
HETATM   16  C   UNL     1      -9.530   6.197  73.061  1.00  0.00    -0.142 A  
BRANCH  14  17
HETATM   17  C   UNL     1     -10.037   8.849  70.320  1.00  0.00    -0.189 A  
HETATM   18  N   UNL     1      -8.739   9.171  70.111  1.00  0.00    -0.162 NA 
HETATM   19  C   UNL     1      -8.469  10.243  69.353  1.00  0.00    -0.160 A  
HETATM   20  N   UNL     1      -9.373  11.082  68.833  1.00  0.00    -0.176 NA 
HETATM   21  N   UNL     1      -7.142  10.565  69.159  1.00  0.00    -0.079 NA 
HETATM   22  H1  UNL     1      -6.937  11.381  68.583  1.00  0.00     0.000 HD 
HETATM   23  C   UNL     1     -10.648  10.737  69.034  1.00  0.00    -0.219 A  
HETATM   24  H2  UNL     1      -6.394  10.009  69.576  1.00  0.00     0.000 HD 
HETATM   25  C   UNL     1     -11.034   9.606  69.726  1.00  0.00    -0.266 A  
BRANCH  23  26
HETATM   26  O   UNL     1     -11.665  11.604  68.675  1.00  0.00    -0.284 OA 
BRANCH  26  27
HETATM   27  C   UNL     1     -11.328  13.004  68.509  1.00  0.00    -0.288 C  
HETATM   28  C   UNL     1     -11.802  13.675  67.195  1.00  0.00    -0.396 C  
HETATM   29  F   UNL     1     -12.271  12.811  66.267  1.00  0.00    -0.456 F  
HETATM   30  F   UNL     1     -10.748  14.327  66.623  1.00  0.00    -0.280 F  
HETATM   31  F   UNL     1     -12.752  14.623  67.384  1.00  0.00    -0.109 F  
BRANCH  27  32
HETATM   32  C   UNL     1     -11.727  13.821  69.777  1.00  0.00    -0.367 A  
HETATM   33  C   UNL     1     -12.552  13.158  70.717  1.00  0.00    -0.338 A  
HETATM   34  C   UNL     1     -13.099  13.825  71.817  1.00  0.00    -0.463 A  
HETATM   35  C   UNL     1     -12.851  15.177  71.996  1.00  0.00    -0.345 A  
HETATM   36  C   UNL     1     -11.965  15.846  71.150  1.00  0.00    -0.472 A  
HETATM   37 CL   UNL     1     -13.629  16.032  73.270  1.00  0.00    -0.612 Cl 
HETATM   38  C   UNL     1     -11.352  15.165  70.077  1.00  0.00    -0.277 A  
BRANCH  38  39
HETATM   39  N   UNL     1     -10.341  15.852  69.345  1.00  0.00    -0.245 NA 
HETATM   40  C   UNL     1      -8.980  15.612  69.280  1.00  0.00    -0.267 A  
HETATM   41  C   UNL     1      -8.426  16.681  68.610  1.00  0.00    -0.253 A  
HETATM   42  C   UNL     1      -9.526  17.464  68.235  1.00  0.00    -0.290 A  
HETATM   43  N   UNL     1     -10.669  16.866  68.531  1.00  0.00    -0.357 NA 
HETATM   44  C   UNL     1      -9.573  18.810  67.611  1.00  0.00    -0.340 C  
ENDBRANCH  38  39
ENDBRANCH  27  32
ENDBRANCH  26  27
ENDBRANCH  23  26
ENDBRANCH  14  17
ENDBRANCH  10  11
ENDBRANCH   6  10
ENDBRANCH   4   6
ENDBRANCH   3   4
ENDBRANCH   2   3
TORSDOF 10
ENDMDL
MODEL       26
REMARK 921   NORMALIZED FREE ENERGY PREDICTED BY IDOCK:   -6.72 KCAL/MOL
REMARK 922        TOTAL FREE ENERGY PREDICTED BY IDOCK:  -13.00 KCAL/MOL
REMARK 923 INTER-LIGAND FREE ENERGY PREDICTED BY IDOCK:  -10.59 KCAL/MOL
REMARK 924 INTRA-LIGAND FREE ENERGY PREDICTED BY IDOCK:   -2.40 KCAL/MOL
REMARK 927      BINDING AFFINITY PREDICTED BY RF-SCORE:    0.00 PKD
ROOT
HETATM    1  C   UNL     1     -13.194   9.203  71.602  1.00  0.00    -0.438 C  
HETATM    2  C   UNL     1     -11.776   8.908  72.057  1.00  0.00    -0.367 C  
ENDROOT
BRANCH   2   3
HETATM    3  O   UNL     1     -11.820   7.754  72.904  1.00  0.00    -0.266 OA 
BRANCH   3   4
HETATM    4  C   UNL     1     -10.594   7.240  73.232  1.00  0.00    -0.382 C  
HETATM    5  O   UNL     1      -9.649   7.890  73.657  1.00  0.00    -0.280 OA 
BRANCH   4   6
HETATM    6  C   UNL     1     -10.622   5.722  73.011  1.00  0.00    -0.242 C  
HETATM    7  N   UNL     1     -12.031   5.274  72.916  1.00  0.00    -0.448 NA 
HETATM    8  H2  UNL     1     -12.553   5.780  72.200  1.00  0.00     0.000 HD 
HETATM    9  H1  UNL     1     -12.049   4.265  72.770  1.00  0.00     0.000 HD 
BRANCH   6  10
HETATM   10  C   UNL     1      -9.811   5.337  71.755  1.00  0.00    -0.222 C  
BRANCH  10  11
HETATM   11  C   UNL     1      -9.865   6.300  70.576  1.00  0.00    -0.207 A  
HETATM   12  C   UNL     1      -8.891   7.271  70.328  1.00  0.00    -0.147 A  
HETATM   13  C   UNL     1      -9.009   8.156  69.227  1.00  0.00    -0.148 A  
HETATM   14  C   UNL     1     -10.103   8.117  68.335  1.00  0.00    -0.226 A  
HETATM   15  C   UNL     1     -11.025   7.079  68.564  1.00  0.00    -0.135 A  
HETATM   16  C   UNL     1     -10.914   6.201  69.657  1.00  0.00    -0.459 A  
BRANCH  14  17
HETATM   17  C   UNL     1     -10.324   9.172  67.285  1.00  0.00    -0.270 A  
HETATM   18  N   UNL     1      -9.803   8.930  66.059  1.00  0.00    -0.257 NA 
HETATM   19  C   UNL     1      -9.825   9.921  65.158  1.00  0.00    -0.278 A  
HETATM   20  N   UNL     1     -10.253  11.169  65.377  1.00  0.00    -0.259 NA 
HETATM   21  N   UNL     1      -9.278   9.663  63.918  1.00  0.00    -0.410 NA 
HETATM   22  H1  UNL     1      -9.294  10.417  63.232  1.00  0.00     0.000 HD 
HETATM   23  C   UNL     1     -10.782  11.384  66.585  1.00  0.00    -0.269 A  
HETATM   24  H2  UNL     1      -8.874   8.753  63.695  1.00  0.00     0.000 HD 
HETATM   25  C   UNL     1     -10.888  10.408  67.557  1.00  0.00    -0.358 A  
BRANCH  23  26
HETATM   26  O   UNL     1     -11.119  12.667  66.976  1.00  0.00    -0.259 OA 
BRANCH  26  27
HETATM   27  C   UNL     1     -10.393  13.767  66.373  1.00  0.00    -0.290 C  
HETATM   28  C   UNL     1     -11.244  14.826  65.627  1.00  0.00    -0.343 C  
HETATM   29  F   UNL     1     -12.534  14.470  65.438  1.00  0.00    -0.388 F  
HETATM   30  F   UNL     1     -10.711  15.032  64.386  1.00  0.00    -0.342 F  
HETATM   31  F   UNL     1     -11.242  16.042  66.225  1.00  0.00    -0.212 F  
BRANCH  27  32
HETATM   32  C   UNL     1      -9.405  14.406  67.397  1.00  0.00    -0.199 A  
HETATM   33  C   UNL     1      -8.125  14.750  66.902  1.00  0.00    -0.083 A  
HETATM   34  C   UNL     1      -7.102  15.190  67.747  1.00  0.00    -0.185 A  
HETATM   35  C   UNL     1      -7.328  15.281  69.112  1.00  0.00    -0.172 A  
HETATM   36  C   UNL     1      -8.601  15.046  69.630  1.00  0.00     0.005 A  
HETATM   37 CL   UNL     1      -6.035  15.693  70.171  1.00  0.00    -0.159 Cl 
HETATM   38  C   UNL     1      -9.660  14.669  68.777  1.00  0.00    -0.210 A  
BRANCH  38  39
HETATM   39  N   UNL     1     -10.970  14.596  69.333  1.00  0.00    -0.255 NA 
HETATM   40  C   UNL     1     -11.956  15.563  69.401  1.00  0.00    -0.336 A  
HETATM   41  C   UNL     1     -12.943  15.059  70.220  1.00  0.00    -0.206 A  
HETATM   42  C   UNL     1     -12.512  13.762  70.525  1.00  0.00    -0.339 A  
HETATM   43  N   UNL     1     -11.420  13.442  69.848  1.00  0.00    -0.171 NA 
HETATM   44  C   UNL     1     -13.071  12.766  71.474  1.00  0.00    -0.380 C  
ENDBRANCH  38  39
ENDBRANCH  27  32
ENDBRANCH  26  27
ENDBRANCH  23  26
ENDBRANCH  14  17
ENDBRANCH  10  11
ENDBRANCH   6  10
ENDBRANCH   4   6
ENDBRANCH   3   4
ENDBRANCH   2   3
TORSDOF 10
ENDMDL
MODEL       27
REMARK 921   NORMALIZED FREE ENERGY PREDICTED BY IDOCK:   -6.72 KCAL/MOL
REMARK 922        TOTAL FREE ENERGY PREDICTED BY IDOCK:  -12.99 KCAL/MOL
REMARK 923 INTER-LIGAND FREE ENERGY PREDICTED BY IDOCK:  -10.40 KCAL/MOL
REMARK 924 INTRA-LIGAND FREE ENERGY PREDICTED BY IDOCK:   -2.59 KCAL/MOL
REMARK 927      BINDING AFFINITY PREDICTED BY RF-SCORE:    0.00 PKD
ROOT
HETATM    1  C   UNL     1      -5.393  17.697  66.241  1.00  0.00    -0.229 C  
HETATM    2  C   UNL     1      -6.223  17.972  67.482  1.00  0.00    -0.171 C  
ENDROOT
BRANCH   2   3
HETATM    3  O   UNL     1      -6.973  19.171  67.249  1.00  0.00    -0.200 OA 
BRANCH   3   4
HETATM    4  C   UNL     1      -7.661  19.634  68.337  1.00  0.00    -0.331 C  
HETATM    5  O   UNL     1      -7.341  19.450  69.504  1.00  0.00    -0.262 OA 
BRANCH   4   6
HETATM    6  C   UNL     1      -8.870  20.442  67.848  1.00  0.00    -0.080 C  
HETATM    7  N   UNL     1      -8.724  20.697  66.395  1.00  0.00    -0.490 NA 
HETATM    8  H2  UNL     1      -8.589  19.838  65.861  1.00  0.00     0.000 HD 
HETATM    9  H1  UNL     1      -9.527  21.234  66.070  1.00  0.00     0.000 HD 
BRANCH   6  10
HETATM   10  C   UNL     1     -10.188  19.706  68.172  1.00  0.00    -0.580 C  
BRANCH  10  11
HETATM   11  C   UNL     1     -10.349  18.299  67.611  1.00  0.00    -0.414 A  
HETATM   12  C   UNL     1     -10.322  18.005  66.244  1.00  0.00    -0.384 A  
HETATM   13  C   UNL     1     -10.502  16.678  65.781  1.00  0.00    -0.324 A  
HETATM   14  C   UNL     1     -10.724  15.592  66.656  1.00  0.00    -0.306 A  
HETATM   15  C   UNL     1     -10.666  15.906  68.026  1.00  0.00    -0.301 A  
HETATM   16  C   UNL     1     -10.492  17.222  68.491  1.00  0.00    -0.375 A  
BRANCH  14  17
HETATM   17  C   UNL     1     -11.101  14.222  66.159  1.00  0.00    -0.324 A  
HETATM   18  N   UNL     1     -11.551  14.139  64.885  1.00  0.00    -0.360 NA 
HETATM   19  C   UNL     1     -12.062  12.971  64.472  1.00  0.00    -0.410 A  
HETATM   20  N   UNL     1     -12.240  11.882  65.230  1.00  0.00    -0.292 NA 
HETATM   21  N   UNL     1     -12.528  12.905  63.175  1.00  0.00    -0.728 NA 
HETATM   22  H1  UNL     1     -12.917  12.016  62.861  1.00  0.00     0.000 HD 
HETATM   23  C   UNL     1     -11.772  11.977  66.477  1.00  0.00    -0.256 A  
HETATM   24  H2  UNL     1     -12.485  13.714  62.554  1.00  0.00     0.000 HD 
HETATM   25  C   UNL     1     -11.150  13.105  66.977  1.00  0.00    -0.305 A  
BRANCH  23  26
HETATM   26  O   UNL     1     -12.033  10.974  67.394  1.00  0.00    -0.450 OA 
BRANCH  26  27
HETATM   27  C   UNL     1     -10.999  10.658  68.358  1.00  0.00    -0.251 C  
HETATM   28  C   UNL     1     -11.473  10.348  69.800  1.00  0.00    -0.280 C  
HETATM   29  F   UNL     1     -12.774  10.635  70.031  1.00  0.00    -0.377 F  
HETATM   30  F   UNL     1     -10.746  11.099  70.679  1.00  0.00     0.133 F  
HETATM   31  F   UNL     1     -11.269   9.061  70.173  1.00  0.00    -0.244 F  
BRANCH  27  32
HETATM   32  C   UNL     1     -10.035   9.566  67.797  1.00  0.00    -0.216 A  
HETATM   33  C   UNL     1     -10.641   8.495  67.098  1.00  0.00    -0.314 A  
HETATM   34  C   UNL     1      -9.908   7.382  66.677  1.00  0.00    -0.263 A  
HETATM   35  C   UNL     1      -8.553   7.302  66.960  1.00  0.00    -0.122 A  
HETATM   36  C   UNL     1      -7.897   8.377  67.559  1.00  0.00    -0.099 A  
HETATM   37 CL   UNL     1      -7.675   5.876  66.563  1.00  0.00    -0.098 Cl 
HETATM   38  C   UNL     1      -8.614   9.536  67.925  1.00  0.00    -0.119 A  
BRANCH  38  39
HETATM   39  N   UNL     1      -7.871  10.661  68.387  1.00  0.00    -0.107 NA 
HETATM   40  C   UNL     1      -7.029  10.776  69.479  1.00  0.00    -0.130 A  
HETATM   41  C   UNL     1      -6.734  12.116  69.605  1.00  0.00     0.035 A  
HETATM   42  C   UNL     1      -7.362  12.715  68.506  1.00  0.00    -0.115 A  
HETATM   43  N   UNL     1      -7.890  11.810  67.696  1.00  0.00    -0.130 NA 
HETATM   44  C   UNL     1      -7.529  14.151  68.165  1.00  0.00    -0.129 C  
ENDBRANCH  38  39
ENDBRANCH  27  32
ENDBRANCH  26  27
ENDBRANCH  23  26
ENDBRANCH  14  17
ENDBRANCH  10  11
ENDBRANCH   6  10
ENDBRANCH   4   6
ENDBRANCH   3   4
ENDBRANCH   2   3
TORSDOF 10
ENDMDL
MODEL       28
REMARK 921   NORMALIZED FREE ENERGY PREDICTED BY IDOCK:   -6.68 KCAL/MOL
REMARK 922        TOTAL FREE ENERGY PREDICTED BY IDOCK:  -12.92 KCAL/MOL
REMARK 923 INTER-LIGAND FREE ENERGY PREDICTED BY IDOCK:  -10.56 KCAL/MOL
REMARK 924 INTRA-LIGAND FREE ENERGY PREDICTED BY IDOCK:   -2.36 KCAL/MOL
REMARK 927      BINDING AFFINITY PREDICTED BY RF-SCORE:    0.00 PKD
ROOT
HETATM    1  C   UNL     1     -10.488  18.514  66.543  1.00  0.00    -0.435 C  
HETATM    2  C   UNL     1     -10.468  17.002  66.670  1.00  0.00    -0.253 C  
ENDROOT
BRANCH   2   3
HETATM    3  O   UNL     1     -10.169  16.459  65.379  1.00  0.00    -0.546 OA 
BRANCH   3   4
HETATM    4  C   UNL     1     -11.258  16.007  64.684  1.00  0.00    -0.330 C  
HETATM    5  O   UNL     1     -11.896  16.663  63.871  1.00  0.00    -1.047 OA 
BRANCH   4   6
HETATM    6  C   UNL     1     -11.516  14.545  65.069  1.00  0.00    -0.382 C  
HETATM    7  N   UNL     1     -12.653  14.029  64.269  1.00  0.00    -0.685 NA 
HETATM    8  H2  UNL     1     -12.507  14.146  63.266  1.00  0.00     0.000 HD 
HETATM    9  H1  UNL     1     -12.824  13.056  64.526  1.00  0.00     0.000 HD 
BRANCH   6  10
HETATM   10  C   UNL     1     -10.243  13.694  64.873  1.00  0.00    -0.363 C  
BRANCH  10  11
HETATM   11  C   UNL     1      -9.801  12.831  66.048  1.00  0.00    -0.258 A  
HETATM   12  C   UNL     1      -8.892  13.259  67.021  1.00  0.00    -0.216 A  
HETATM   13  C   UNL     1      -8.501  12.402  68.079  1.00  0.00    -0.176 A  
HETATM   14  C   UNL     1      -8.989  11.083  68.207  1.00  0.00    -0.155 A  
HETATM   15  C   UNL     1      -9.960  10.709  67.261  1.00  0.00    -0.224 A  
HETATM   16  C   UNL     1     -10.349  11.555  66.207  1.00  0.00    -0.280 A  
BRANCH  14  17
HETATM   17  C   UNL     1      -8.433  10.114  69.216  1.00  0.00    -0.163 A  
HETATM   18  N   UNL     1      -7.441  10.570  70.016  1.00  0.00    -0.124 NA 
HETATM   19  C   UNL     1      -6.804   9.685  70.797  1.00  0.00    -0.086 A  
HETATM   20  N   UNL     1      -7.008   8.363  70.810  1.00  0.00    -0.042 NA 
HETATM   21  N   UNL     1      -5.787  10.163  71.597  1.00  0.00    -0.301 NA 
HETATM   22  H1  UNL     1      -5.302   9.490  72.191  1.00  0.00     0.000 HD 
HETATM   23  C   UNL     1      -8.004   7.935  70.029  1.00  0.00    -0.111 A  
HETATM   24  H2  UNL     1      -5.529  11.151  71.596  1.00  0.00     0.000 HD 
HETATM   25  C   UNL     1      -8.780   8.772  69.251  1.00  0.00    -0.135 A  
BRANCH  23  26
HETATM   26  O   UNL     1      -8.208   6.579  69.847  1.00  0.00    -0.122 OA 
BRANCH  26  27
HETATM   27  C   UNL     1      -9.576   6.102  69.822  1.00  0.00    -0.150 C  
HETATM   28  C   UNL     1     -10.010   5.321  68.556  1.00  0.00    -0.163 C  
HETATM   29  F   UNL     1      -9.125   5.380  67.536  1.00  0.00    -0.111 F  
HETATM   30  F   UNL     1     -11.180   5.846  68.087  1.00  0.00    -0.347 F  
HETATM   31  F   UNL     1     -10.272   4.012  68.790  1.00  0.00    -0.097 F  
BRANCH  27  32
HETATM   32  C   UNL     1      -9.921   5.344  71.141  1.00  0.00    -0.257 A  
HETATM   33  C   UNL     1      -9.044   4.295  71.509  1.00  0.00    -0.176 A  
HETATM   34  C   UNL     1      -9.322   3.445  72.583  1.00  0.00    -0.150 A  
HETATM   35  C   UNL     1     -10.494   3.609  73.306  1.00  0.00    -0.177 A  
HETATM   36  C   UNL     1     -11.337   4.688  73.040  1.00  0.00    -0.287 A  
HETATM   37 CL   UNL     1     -10.906   2.484  74.542  1.00  0.00    -0.118 Cl 
HETATM   38  C   UNL     1     -11.030   5.594  72.004  1.00  0.00    -0.243 A  
BRANCH  38  39
HETATM   39  N   UNL     1     -11.839   6.762  71.879  1.00  0.00    -0.311 NA 
HETATM   40  C   UNL     1     -13.209   6.876  71.724  1.00  0.00    -0.217 A  
HETATM   41  C   UNL     1     -13.461   8.200  71.438  1.00  0.00    -0.249 A  
HETATM   42  C   UNL     1     -12.207   8.820  71.528  1.00  0.00    -0.327 A  
HETATM   43  N   UNL     1     -11.281   7.979  71.961  1.00  0.00    -0.277 NA 
HETATM   44  C   UNL     1     -11.800  10.208  71.193  1.00  0.00    -0.472 C  
ENDBRANCH  38  39
ENDBRANCH  27  32
ENDBRANCH  26  27
ENDBRANCH  23  26
ENDBRANCH  14  17
ENDBRANCH  10  11
ENDBRANCH   6  10
ENDBRANCH   4   6
ENDBRANCH   3   4
ENDBRANCH   2   3
TORSDOF 10
ENDMDL
MODEL       29
REMARK 921   NORMALIZED FREE ENERGY PREDICTED BY IDOCK:   -6.63 KCAL/MOL
REMARK 922        TOTAL FREE ENERGY PREDICTED BY IDOCK:  -12.84 KCAL/MOL
REMARK 923 INTER-LIGAND FREE ENERGY PREDICTED BY IDOCK:  -10.80 KCAL/MOL
REMARK 924 INTRA-LIGAND FREE ENERGY PREDICTED BY IDOCK:   -2.04 KCAL/MOL
REMARK 927      BINDING AFFINITY PREDICTED BY RF-SCORE:    0.00 PKD
ROOT
HETATM    1  C   UNL     1      -7.118   3.857  67.673  1.00  0.00    -0.056 C  
HETATM    2  C   UNL     1      -7.022   4.770  66.464  1.00  0.00    -0.067 C  
ENDROOT
BRANCH   2   3
HETATM    3  O   UNL     1      -8.334   5.279  66.196  1.00  0.00    -0.112 OA 
BRANCH   3   4
HETATM    4  C   UNL     1      -8.653   6.421  66.878  1.00  0.00    -0.110 C  
HETATM    5  O   UNL     1      -7.845   7.227  67.320  1.00  0.00    -0.107 OA 
BRANCH   4   6
HETATM    6  C   UNL     1     -10.181   6.534  66.962  1.00  0.00    -0.215 C  
HETATM    7  N   UNL     1     -10.789   5.352  66.307  1.00  0.00    -0.697 NA 
HETATM    8  H2  UNL     1     -10.443   4.473  66.692  1.00  0.00     0.000 HD 
HETATM    9  H1  UNL     1     -11.804   5.428  66.363  1.00  0.00     0.000 HD 
BRANCH   6  10
HETATM   10  C   UNL     1     -10.640   6.677  68.430  1.00  0.00    -0.289 C  
BRANCH  10  11
HETATM   11  C   UNL     1     -10.878   8.092  68.944  1.00  0.00    -0.001 A  
HETATM   12  C   UNL     1     -11.192   8.387  70.274  1.00  0.00    -0.175 A  
HETATM   13  C   UNL     1     -11.426   9.721  70.687  1.00  0.00    -0.397 A  
HETATM   14  C   UNL     1     -11.367  10.815  69.795  1.00  0.00    -0.372 A  
HETATM   15  C   UNL     1     -10.971  10.495  68.483  1.00  0.00    -0.300 A  
HETATM   16  C   UNL     1     -10.741   9.172  68.067  1.00  0.00    -0.205 A  
BRANCH  14  17
HETATM   17  C   UNL     1     -11.799  12.201  70.191  1.00  0.00    -0.287 A  
HETATM   18  N   UNL     1     -12.669  12.296  71.224  1.00  0.00    -0.322 NA 
HETATM   19  C   UNL     1     -13.209  13.495  71.483  1.00  0.00    -0.322 A  
HETATM   20  N   UNL     1     -13.025  14.609  70.766  1.00  0.00    -0.356 NA 
HETATM   21  N   UNL     1     -14.104  13.574  72.531  1.00  0.00    -0.758 NA 
HETATM   22  H1  UNL     1     -14.516  14.485  72.728  1.00  0.00     0.000 HD 
HETATM   23  C   UNL     1     -12.148  14.501  69.764  1.00  0.00    -0.331 A  
HETATM   24  H2  UNL     1     -14.345  12.752  73.086  1.00  0.00     0.000 HD 
HETATM   25  C   UNL     1     -11.470  13.335  69.465  1.00  0.00    -0.299 A  
BRANCH  23  26
HETATM   26  O   UNL     1     -11.990  15.540  68.865  1.00  0.00    -0.351 OA 
BRANCH  26  27
HETATM   27  C   UNL     1     -10.935  15.422  67.880  1.00  0.00    -0.310 C  
HETATM   28  C   UNL     1     -11.362  14.954  66.466  1.00  0.00    -0.319 C  
HETATM   29  F   UNL     1     -12.631  14.495  66.392  1.00  0.00    -0.415 F  
HETATM   30  F   UNL     1     -10.553  13.926  66.073  1.00  0.00    -0.278 F  
HETATM   31  F   UNL     1     -11.220  15.907  65.513  1.00  0.00    -0.290 F  
BRANCH  27  32
HETATM   32  C   UNL     1     -10.065  16.718  67.844  1.00  0.00    -0.284 A  
HETATM   33  C   UNL     1     -10.764  17.938  67.680  1.00  0.00    -0.343 A  
HETATM   34  C   UNL     1     -10.095  19.149  67.484  1.00  0.00    -0.463 A  
HETATM   35  C   UNL     1      -8.710  19.170  67.428  1.00  0.00    -0.290 A  
HETATM   36  C   UNL     1      -7.980  18.009  67.681  1.00  0.00    -0.221 A  
HETATM   37 CL   UNL     1      -7.887  20.634  67.053  1.00  0.00    -0.341 Cl 
HETATM   38  C   UNL     1      -8.644  16.793  67.950  1.00  0.00    -0.202 A  
BRANCH  38  39
HETATM   39  N   UNL     1      -7.854  15.678  68.356  1.00  0.00    -0.124 NA 
HETATM   40  C   UNL     1      -7.746  14.420  67.791  1.00  0.00    -0.161 A  
HETATM   41  C   UNL     1      -7.024  13.654  68.680  1.00  0.00    -0.103 A  
HETATM   42  C   UNL     1      -6.667  14.547  69.699  1.00  0.00    -0.155 A  
HETATM   43  N   UNL     1      -7.023  15.787  69.403  1.00  0.00    -0.192 NA 
HETATM   44  C   UNL     1      -6.005  14.295  71.004  1.00  0.00    -0.181 C  
ENDBRANCH  38  39
ENDBRANCH  27  32
ENDBRANCH  26  27
ENDBRANCH  23  26
ENDBRANCH  14  17
ENDBRANCH  10  11
ENDBRANCH   6  10
ENDBRANCH   4   6
ENDBRANCH   3   4
ENDBRANCH   2   3
TORSDOF 10
ENDMDL
MODEL       30
REMARK 921   NORMALIZED FREE ENERGY PREDICTED BY IDOCK:   -6.62 KCAL/MOL
REMARK 922        TOTAL FREE ENERGY PREDICTED BY IDOCK:  -12.83 KCAL/MOL
REMARK 923 INTER-LIGAND FREE ENERGY PREDICTED BY IDOCK:  -11.33 KCAL/MOL
REMARK 924 INTRA-LIGAND FREE ENERGY PREDICTED BY IDOCK:   -1.50 KCAL/MOL
REMARK 927      BINDING AFFINITY PREDICTED BY RF-SCORE:    0.00 PKD
ROOT
HETATM    1  C   UNL     1     -10.869  19.618  67.112  1.00  0.00    -0.526 C  
HETATM    2  C   UNL     1      -9.671  20.050  66.287  1.00  0.00    -0.433 C  
ENDROOT
BRANCH   2   3
HETATM    3  O   UNL     1      -8.496  19.519  66.912  1.00  0.00    -0.275 OA 
BRANCH   3   4
HETATM    4  C   UNL     1      -7.715  18.747  66.096  1.00  0.00    -0.247 C  
HETATM    5  O   UNL     1      -7.049  19.164  65.158  1.00  0.00    -0.449 OA 
BRANCH   4   6
HETATM    6  C   UNL     1      -7.789  17.291  66.576  1.00  0.00    -0.287 C  
HETATM    7  N   UNL     1      -7.598  17.258  68.045  1.00  0.00    -0.191 NA 
HETATM    8  H2  UNL     1      -8.256  17.863  68.537  1.00  0.00     0.000 HD 
HETATM    9  H1  UNL     1      -7.648  16.290  68.364  1.00  0.00     0.000 HD 
BRANCH   6  10
HETATM   10  C   UNL     1      -9.127  16.644  66.155  1.00  0.00    -0.318 C  
BRANCH  10  11
HETATM   11  C   UNL     1      -9.736  15.631  67.117  1.00  0.00    -0.226 A  
HETATM   12  C   UNL     1      -9.166  14.383  67.385  1.00  0.00    -0.199 A  
HETATM   13  C   UNL     1      -9.793  13.473  68.271  1.00  0.00    -0.233 A  
HETATM   14  C   UNL     1     -11.014  13.762  68.919  1.00  0.00    -0.281 A  
HETATM   15  C   UNL     1     -11.520  15.054  68.692  1.00  0.00    -0.329 A  
HETATM   16  C   UNL     1     -10.904  15.960  67.810  1.00  0.00    -0.324 A  
BRANCH  14  17
HETATM   17  C   UNL     1     -11.772  12.727  69.708  1.00  0.00    -0.282 A  
HETATM   18  N   UNL     1     -12.562  13.182  70.708  1.00  0.00    -0.300 NA 
HETATM   19  C   UNL     1     -13.106  12.283  71.540  1.00  0.00    -0.257 A  
HETATM   20  N   UNL     1     -12.884  10.964  71.521  1.00  0.00    -0.441 NA 
HETATM   21  N   UNL     1     -13.898  12.763  72.562  1.00  0.00    -0.654 NA 
HETATM   22  H1  UNL     1     -14.312  12.079  73.195  1.00  0.00     0.000 HD 
HETATM   23  C   UNL     1     -12.118  10.532  70.515  1.00  0.00    -0.345 A  
HETATM   24  H2  UNL     1     -14.064  13.763  72.681  1.00  0.00     0.000 HD 
HETATM   25  C   UNL     1     -11.579  11.363  69.553  1.00  0.00    -0.399 A  
BRANCH  23  26
HETATM   26  O   UNL     1     -11.698   9.214  70.480  1.00  0.00    -0.247 OA 
BRANCH  26  27
HETATM   27  C   UNL     1     -10.336   8.953  70.060  1.00  0.00    -0.204 C  
HETATM   28  C   UNL     1      -9.282   8.822  71.188  1.00  0.00    -0.237 C  
HETATM   29  F   UNL     1      -9.724   9.194  72.409  1.00  0.00    -0.301 F  
HETATM   30  F   UNL     1      -8.217   9.627  70.898  1.00  0.00    -0.212 F  
HETATM   31  F   UNL     1      -8.767   7.574  71.306  1.00  0.00    -0.121 F  
BRANCH  27  32
HETATM   32  C   UNL     1     -10.286   7.763  69.052  1.00  0.00    -0.219 A  
HETATM   33  C   UNL     1      -9.827   8.065  67.748  1.00  0.00    -0.207 A  
HETATM   34  C   UNL     1      -9.875   7.126  66.714  1.00  0.00    -0.272 A  
HETATM   35  C   UNL     1     -10.401   5.865  66.953  1.00  0.00    -0.247 A  
HETATM   36  C   UNL     1     -10.773   5.493  68.245  1.00  0.00    -0.155 A  
HETATM   37 CL   UNL     1     -10.586   4.751  65.655  1.00  0.00    -0.266 Cl 
HETATM   38  C   UNL     1     -10.664   6.411  69.311  1.00  0.00    -0.292 A  
BRANCH  38  39
HETATM   39  N   UNL     1     -10.908   5.931  70.631  1.00  0.00    -0.289 NA 
HETATM   40  C   UNL     1     -11.901   6.280  71.528  1.00  0.00    -0.230 A  
HETATM   41  C   UNL     1     -11.568   5.692  72.728  1.00  0.00    -0.289 A  
HETATM   42  C   UNL     1     -10.418   4.944  72.441  1.00  0.00    -0.209 A  
HETATM   43  N   UNL     1     -10.139   4.961  71.147  1.00  0.00    -0.209 NA 
HETATM   44  C   UNL     1      -9.508   4.202  73.350  1.00  0.00    -0.127 C  
ENDBRANCH  38  39
ENDBRANCH  27  32
ENDBRANCH  26  27
ENDBRANCH  23  26
ENDBRANCH  14  17
ENDBRANCH  10  11
ENDBRANCH   6  10
ENDBRANCH   4   6
ENDBRANCH   3   4
ENDBRANCH   2   3
TORSDOF 10
ENDMDL
MODEL       31
REMARK 921   NORMALIZED FREE ENERGY PREDICTED BY IDOCK:   -6.60 KCAL/MOL
REMARK 922        TOTAL FREE ENERGY PREDICTED BY IDOCK:  -12.80 KCAL/MOL
REMARK 923 INTER-LIGAND FREE ENERGY PREDICTED BY IDOCK:  -11.70 KCAL/MOL
REMARK 924 INTRA-LIGAND FREE ENERGY PREDICTED BY IDOCK:   -1.10 KCAL/MOL
REMARK 927      BINDING AFFINITY PREDICTED BY RF-SCORE:    0.00 PKD
ROOT
HETATM    1  C   UNL     1      -9.166   3.278  68.208  1.00  0.00    -0.239 C  
HETATM    2  C   UNL     1      -9.617   3.982  66.940  1.00  0.00    -0.207 C  
ENDROOT
BRANCH   2   3
HETATM    3  O   UNL     1      -8.720   3.606  65.889  1.00  0.00    -0.112 OA 
BRANCH   3   4
HETATM    4  C   UNL     1      -8.535   4.562  64.928  1.00  0.00    -0.130 C  
HETATM    5  O   UNL     1      -9.116   4.600  63.851  1.00  0.00    -0.140 OA 
BRANCH   4   6
HETATM    6  C   UNL     1      -7.512   5.585  65.440  1.00  0.00    -0.074 C  
HETATM    7  N   UNL     1      -6.224   4.896  65.690  1.00  0.00    -0.033 NA 
HETATM    8  H2  UNL     1      -5.889   4.389  64.870  1.00  0.00     0.000 HD 
HETATM    9  H1  UNL     1      -5.545   5.576  66.030  1.00  0.00     0.000 HD 
BRANCH   6  10
HETATM   10  C   UNL     1      -7.356   6.751  64.440  1.00  0.00    -0.087 C  
BRANCH  10  11
HETATM   11  C   UNL     1      -8.246   7.969  64.655  1.00  0.00    -0.109 A  
HETATM   12  C   UNL     1      -8.864   8.268  65.873  1.00  0.00    -0.197 A  
HETATM   13  C   UNL     1      -9.701   9.403  66.005  1.00  0.00    -0.345 A  
HETATM   14  C   UNL     1      -9.965  10.281  64.931  1.00  0.00    -0.393 A  
HETATM   15  C   UNL     1      -9.267  10.000  63.743  1.00  0.00    -0.314 A  
HETATM   16  C   UNL     1      -8.438   8.872  63.605  1.00  0.00    -0.145 A  
BRANCH  14  17
HETATM   17  C   UNL     1     -10.997  11.373  65.019  1.00  0.00    -0.204 A  
HETATM   18  N   UNL     1     -11.375  11.949  63.854  1.00  0.00    -0.400 NA 
HETATM   19  C   UNL     1     -12.153  13.039  63.913  1.00  0.00    -0.471 A  
HETATM   20  N   UNL     1     -12.541  13.665  65.031  1.00  0.00    -0.626 NA 
HETATM   21  N   UNL     1     -12.519  13.623  62.718  1.00  0.00    -0.738 NA 
HETATM   22  H1  UNL     1     -13.110  14.453  62.763  1.00  0.00     0.000 HD 
HETATM   23  C   UNL     1     -12.176  13.070  66.169  1.00  0.00    -0.360 A  
HETATM   24  H2  UNL     1     -12.209  13.241  61.824  1.00  0.00     0.000 HD 
HETATM   25  C   UNL     1     -11.448  11.897  66.220  1.00  0.00    -0.367 A  
BRANCH  23  26
HETATM   26  O   UNL     1     -12.389  13.702  67.381  1.00  0.00    -0.297 OA 
BRANCH  26  27
HETATM   27  C   UNL     1     -11.506  13.366  68.480  1.00  0.00    -0.310 C  
HETATM   28  C   UNL     1     -10.015  13.750  68.307  1.00  0.00    -0.243 C  
HETATM   29  F   UNL     1      -9.684  14.145  67.058  1.00  0.00    -0.231 F  
HETATM   30  F   UNL     1      -9.239  12.662  68.591  1.00  0.00    -0.180 F  
HETATM   31  F   UNL     1      -9.602  14.718  69.161  1.00  0.00    -0.202 F  
BRANCH  27  32
HETATM   32  C   UNL     1     -12.099  13.860  69.836  1.00  0.00    -0.406 A  
HETATM   33  C   UNL     1     -12.422  15.236  69.914  1.00  0.00    -0.275 A  
HETATM   34  C   UNL     1     -12.819  15.833  71.114  1.00  0.00    -0.468 A  
HETATM   35  C   UNL     1     -12.884  15.073  72.272  1.00  0.00    -0.333 A  
HETATM   36  C   UNL     1     -12.670  13.696  72.221  1.00  0.00    -0.237 A  
HETATM   37 CL   UNL     1     -13.241  15.828  73.777  1.00  0.00    -0.502 Cl 
HETATM   38  C   UNL     1     -12.337  13.071  71.001  1.00  0.00    -0.244 A  
BRANCH  38  39
HETATM   39  N   UNL     1     -12.284  11.647  70.975  1.00  0.00    -0.300 NA 
HETATM   40  C   UNL     1     -11.449  10.806  70.261  1.00  0.00    -0.319 A  
HETATM   41  C   UNL     1     -11.945   9.531  70.423  1.00  0.00    -0.123 A  
HETATM   42  C   UNL     1     -13.017   9.686  71.311  1.00  0.00    -0.360 A  
HETATM   43  N   UNL     1     -13.096  10.928  71.764  1.00  0.00    -0.480 NA 
HETATM   44  C   UNL     1     -14.034   8.704  71.764  1.00  0.00    -0.492 C  
ENDBRANCH  38  39
ENDBRANCH  27  32
ENDBRANCH  26  27
ENDBRANCH  23  26
ENDBRANCH  14  17
ENDBRANCH  10  11
ENDBRANCH   6  10
ENDBRANCH   4   6
ENDBRANCH   3   4
ENDBRANCH   2   3
TORSDOF 10
ENDMDL
MODEL       32
REMARK 921   NORMALIZED FREE ENERGY PREDICTED BY IDOCK:   -6.60 KCAL/MOL
REMARK 922        TOTAL FREE ENERGY PREDICTED BY IDOCK:  -12.79 KCAL/MOL
REMARK 923 INTER-LIGAND FREE ENERGY PREDICTED BY IDOCK:  -10.30 KCAL/MOL
REMARK 924 INTRA-LIGAND FREE ENERGY PREDICTED BY IDOCK:   -2.49 KCAL/MOL
REMARK 927      BINDING AFFINITY PREDICTED BY RF-SCORE:    0.00 PKD
ROOT
HETATM    1  C   UNL     1      -9.650   5.416  69.253  1.00  0.00    -0.198 C  
HETATM    2  C   UNL     1      -8.878   4.480  70.165  1.00  0.00    -0.086 C  
ENDROOT
BRANCH   2   3
HETATM    3  O   UNL     1      -9.830   3.730  70.927  1.00  0.00    -0.185 OA 
BRANCH   3   4
HETATM    4  C   UNL     1      -9.437   3.443  72.207  1.00  0.00    -0.123 C  
HETATM    5  O   UNL     1      -8.281   3.446  72.606  1.00  0.00    -0.077 OA 
BRANCH   4   6
HETATM    6  C   UNL     1     -10.685   3.154  73.052  1.00  0.00    -0.122 C  
HETATM    7  N   UNL     1     -10.430   1.965  73.898  1.00  0.00    -0.106 NA 
HETATM    8  H2  UNL     1      -9.590   2.066  74.468  1.00  0.00     0.000 HD 
HETATM    9  H1  UNL     1     -11.259   1.773  74.460  1.00  0.00     0.000 HD 
BRANCH   6  10
HETATM   10  C   UNL     1     -11.072   4.387  73.896  1.00  0.00    -0.264 C  
BRANCH  10  11
HETATM   11  C   UNL     1     -11.080   5.735  73.185  1.00  0.00    -0.288 A  
HETATM   12  C   UNL     1     -10.173   6.761  73.467  1.00  0.00    -0.320 A  
HETATM   13  C   UNL     1     -10.246   8.003  72.789  1.00  0.00    -0.389 A  
HETATM   14  C   UNL     1     -11.226   8.278  71.810  1.00  0.00    -0.346 A  
HETATM   15  C   UNL     1     -12.072   7.200  71.492  1.00  0.00    -0.377 A  
HETATM   16  C   UNL     1     -12.007   5.967  72.165  1.00  0.00    -0.261 A  
BRANCH  14  17
HETATM   17  C   UNL     1     -11.419   9.653  71.230  1.00  0.00    -0.392 A  
HETATM   18  N   UNL     1     -12.236  10.492  71.909  1.00  0.00    -0.065 NA 
HETATM   19  C   UNL     1     -12.571  11.653  71.329  1.00  0.00    -0.320 A  
HETATM   20  N   UNL     1     -12.229  12.039  70.094  1.00  0.00    -0.267 NA 
HETATM   21  N   UNL     1     -13.414  12.492  72.028  1.00  0.00    -0.468 NA 
HETATM   22  H1  UNL     1     -13.669  13.375  71.587  1.00  0.00     0.000 HD 
HETATM   23  C   UNL     1     -11.407  11.208  69.448  1.00  0.00    -0.283 A  
HETATM   24  H2  UNL     1     -13.769  12.238  72.951  1.00  0.00     0.000 HD 
HETATM   25  C   UNL     1     -10.932  10.028  69.987  1.00  0.00    -0.352 A  
BRANCH  23  26
HETATM   26  O   UNL     1     -11.108  11.427  68.115  1.00  0.00    -0.211 OA 
BRANCH  26  27
HETATM   27  C   UNL     1      -9.744  11.191  67.684  1.00  0.00    -0.170 C  
HETATM   28  C   UNL     1      -9.549  10.138  66.564  1.00  0.00    -0.187 C  
HETATM   29  F   UNL     1     -10.651   9.407  66.289  1.00  0.00    -0.275 F  
HETATM   30  F   UNL     1      -8.581   9.254  66.948  1.00  0.00    -0.122 F  
HETATM   31  F   UNL     1      -9.110  10.665  65.395  1.00  0.00    -0.171 F  
BRANCH  27  32
HETATM   32  C   UNL     1      -9.022  12.539  67.372  1.00  0.00    -0.188 A  
HETATM   33  C   UNL     1      -7.673  12.638  67.788  1.00  0.00    -0.145 A  
HETATM   34  C   UNL     1      -6.962  13.838  67.701  1.00  0.00    -0.186 A  
HETATM   35  C   UNL     1      -7.587  14.975  67.214  1.00  0.00    -0.194 A  
HETATM   36  C   UNL     1      -8.883  14.900  66.703  1.00  0.00    -0.287 A  
HETATM   37 CL   UNL     1      -6.760  16.485  67.231  1.00  0.00    -0.195 Cl 
HETATM   38  C   UNL     1      -9.586  13.677  66.721  1.00  0.00    -0.275 A  
BRANCH  38  39
HETATM   39  N   UNL     1     -10.840  13.620  66.045  1.00  0.00    -0.275 NA 
HETATM   40  C   UNL     1     -12.071  14.125  66.424  1.00  0.00    -0.451 A  
HETATM   41  C   UNL     1     -12.992  13.619  65.533  1.00  0.00    -0.325 A  
HETATM   42  C   UNL     1     -12.223  12.898  64.610  1.00  0.00    -0.435 A  
HETATM   43  N   UNL     1     -10.927  13.053  64.833  1.00  0.00    -0.295 NA 
HETATM   44  C   UNL     1     -12.647  12.011  63.497  1.00  0.00    -0.625 C  
ENDBRANCH  38  39
ENDBRANCH  27  32
ENDBRANCH  26  27
ENDBRANCH  23  26
ENDBRANCH  14  17
ENDBRANCH  10  11
ENDBRANCH   6  10
ENDBRANCH   4   6
ENDBRANCH   3   4
ENDBRANCH   2   3
TORSDOF 10
ENDMDL
MODEL       33
REMARK 921   NORMALIZED FREE ENERGY PREDICTED BY IDOCK:   -6.59 KCAL/MOL
REMARK 922        TOTAL FREE ENERGY PREDICTED BY IDOCK:  -12.79 KCAL/MOL
REMARK 923 INTER-LIGAND FREE ENERGY PREDICTED BY IDOCK:  -10.51 KCAL/MOL
REMARK 924 INTRA-LIGAND FREE ENERGY PREDICTED BY IDOCK:   -2.27 KCAL/MOL
REMARK 927      BINDING AFFINITY PREDICTED BY RF-SCORE:    0.00 PKD
ROOT
HETATM    1  C   UNL     1     -10.734  19.646  65.595  1.00  0.00    -0.428 C  
HETATM    2  C   UNL     1     -10.482  18.339  66.324  1.00  0.00    -0.376 C  
ENDROOT
BRANCH   2   3
HETATM    3  O   UNL     1     -10.608  17.277  65.371  1.00  0.00    -0.630 OA 
BRANCH   3   4
HETATM    4  C   UNL     1     -10.657  16.023  65.917  1.00  0.00    -0.328 C  
HETATM    5  O   UNL     1     -10.225  15.718  67.021  1.00  0.00    -0.267 OA 
BRANCH   4   6
HETATM    6  C   UNL     1     -11.368  15.085  64.933  1.00  0.00    -0.417 C  
HETATM    7  N   UNL     1     -12.020  15.896  63.879  1.00  0.00    -1.249 NA 
HETATM    8  H2  UNL     1     -11.366  16.525  63.412  1.00  0.00     0.000 HD 
HETATM    9  H1  UNL     1     -12.493  15.273  63.225  1.00  0.00     0.000 HD 
BRANCH   6  10
HETATM   10  C   UNL     1     -10.377  14.061  64.339  1.00  0.00     0.009 C  
BRANCH  10  11
HETATM   11  C   UNL     1     -10.354  12.675  64.973  1.00  0.00    -0.320 A  
HETATM   12  C   UNL     1     -10.769  12.418  66.283  1.00  0.00    -0.287 A  
HETATM   13  C   UNL     1     -10.700  11.111  66.825  1.00  0.00    -0.326 A  
HETATM   14  C   UNL     1     -10.210  10.009  66.091  1.00  0.00    -0.283 A  
HETATM   15  C   UNL     1      -9.876  10.283  64.752  1.00  0.00    -0.403 A  
HETATM   16  C   UNL     1      -9.937  11.580  64.211  1.00  0.00    -0.312 A  
BRANCH  14  17
HETATM   17  C   UNL     1      -9.962   8.666  66.724  1.00  0.00    -0.273 A  
HETATM   18  N   UNL     1      -9.160   7.812  66.046  1.00  0.00    -0.156 NA 
HETATM   19  C   UNL     1      -9.064   6.551  66.491  1.00  0.00    -0.152 A  
HETATM   20  N   UNL     1      -9.750   6.027  67.513  1.00  0.00    -0.112 NA 
HETATM   21  N   UNL     1      -8.253   5.688  65.782  1.00  0.00    -0.117 NA 
HETATM   22  H1  UNL     1      -8.181   4.729  66.120  1.00  0.00     0.000 HD 
HETATM   23  C   UNL     1     -10.520   6.889  68.181  1.00  0.00    -0.204 A  
HETATM   24  H2  UNL     1      -7.746   5.998  64.952  1.00  0.00     0.000 HD 
HETATM   25  C   UNL     1     -10.623   8.229  67.861  1.00  0.00    -0.212 A  
BRANCH  23  26
HETATM   26  O   UNL     1     -11.387   6.432  69.158  1.00  0.00    -0.364 OA 
BRANCH  26  27
HETATM   27  C   UNL     1     -11.184   6.906  70.512  1.00  0.00    -0.307 C  
HETATM   28  C   UNL     1     -12.451   7.027  71.396  1.00  0.00    -0.384 C  
HETATM   29  F   UNL     1     -13.614   6.893  70.722  1.00  0.00    -0.306 F  
HETATM   30  F   UNL     1     -12.474   8.265  71.974  1.00  0.00    -0.307 F  
HETATM   31  F   UNL     1     -12.477   6.149  72.429  1.00  0.00    -0.323 F  
BRANCH  27  32
HETATM   32  C   UNL     1     -10.040   6.107  71.211  1.00  0.00    -0.227 A  
HETATM   33  C   UNL     1     -10.361   4.796  71.638  1.00  0.00    -0.215 A  
HETATM   34  C   UNL     1      -9.476   4.034  72.405  1.00  0.00    -0.182 A  
HETATM   35  C   UNL     1      -8.254   4.569  72.782  1.00  0.00    -0.099 A  
HETATM   36  C   UNL     1      -7.857   5.817  72.302  1.00  0.00    -0.103 A  
HETATM   37 CL   UNL     1      -7.218   3.688  73.837  1.00  0.00    -0.051 Cl 
HETATM   38  C   UNL     1      -8.714   6.566  71.469  1.00  0.00    -0.132 A  
BRANCH  38  39
HETATM   39  N   UNL     1      -8.197   7.758  70.882  1.00  0.00    -0.105 NA 
HETATM   40  C   UNL     1      -8.468   9.081  71.183  1.00  0.00    -0.177 A  
HETATM   41  C   UNL     1      -7.880   9.836  70.192  1.00  0.00    -0.196 A  
HETATM   42  C   UNL     1      -7.211   8.900  69.393  1.00  0.00    -0.061 A  
HETATM   43  N   UNL     1      -7.267   7.686  69.918  1.00  0.00    -0.070 NA 
HETATM   44  C   UNL     1      -6.510   9.076  68.096  1.00  0.00    -0.060 C  
ENDBRANCH  38  39
ENDBRANCH  27  32
ENDBRANCH  26  27
ENDBRANCH  23  26
ENDBRANCH  14  17
ENDBRANCH  10  11
ENDBRANCH   6  10
ENDBRANCH   4   6
ENDBRANCH   3   4
ENDBRANCH   2   3
TORSDOF 10
ENDMDL
MODEL       34
REMARK 921   NORMALIZED FREE ENERGY PREDICTED BY IDOCK:   -6.58 KCAL/MOL
REMARK 922        TOTAL FREE ENERGY PREDICTED BY IDOCK:  -12.77 KCAL/MOL
REMARK 923 INTER-LIGAND FREE ENERGY PREDICTED BY IDOCK:  -10.91 KCAL/MOL
REMARK 924 INTRA-LIGAND FREE ENERGY PREDICTED BY IDOCK:   -1.86 KCAL/MOL
REMARK 927      BINDING AFFINITY PREDICTED BY RF-SCORE:    0.00 PKD
ROOT
HETATM    1  C   UNL     1      -9.193   3.677  67.205  1.00  0.00    -0.215 C  
HETATM    2  C   UNL     1      -9.192   4.682  66.067  1.00  0.00    -0.144 C  
ENDROOT
BRANCH   2   3
HETATM    3  O   UNL     1      -8.373   4.152  65.018  1.00  0.00    -0.107 OA 
BRANCH   3   4
HETATM    4  C   UNL     1      -8.332   4.918  63.885  1.00  0.00    -0.127 C  
HETATM    5  O   UNL     1      -9.081   4.797  62.925  1.00  0.00    -0.129 OA 
BRANCH   4   6
HETATM    6  C   UNL     1      -7.220   5.965  64.038  1.00  0.00    -0.056 C  
HETATM    7  N   UNL     1      -5.909   5.314  63.804  1.00  0.00    -0.017 NA 
HETATM    8  H2  UNL     1      -5.869   4.834  62.905  1.00  0.00     0.000 HD 
HETATM    9  H1  UNL     1      -5.171   6.010  63.906  1.00  0.00     0.000 HD 
BRANCH   6  10
HETATM   10  C   UNL     1      -7.451   7.153  63.080  1.00  0.00    -0.091 C  
BRANCH  10  11
HETATM   11  C   UNL     1      -8.264   8.325  63.617  1.00  0.00    -0.083 A  
HETATM   12  C   UNL     1      -8.498   8.543  64.978  1.00  0.00    -0.183 A  
HETATM   13  C   UNL     1      -9.283   9.638  65.415  1.00  0.00    -0.295 A  
HETATM   14  C   UNL     1      -9.874  10.555  64.519  1.00  0.00    -0.401 A  
HETATM   15  C   UNL     1      -9.555  10.357  63.163  1.00  0.00    -0.346 A  
HETATM   16  C   UNL     1      -8.780   9.269  62.723  1.00  0.00    -0.218 A  
BRANCH  14  17
HETATM   17  C   UNL     1     -10.858  11.601  64.969  1.00  0.00    -0.288 A  
HETATM   18  N   UNL     1     -11.304  12.464  64.027  1.00  0.00    -0.365 NA 
HETATM   19  C   UNL     1     -12.036  13.512  64.428  1.00  0.00    -0.420 A  
HETATM   20  N   UNL     1     -12.314  13.834  65.697  1.00  0.00    -0.452 NA 
HETATM   21  N   UNL     1     -12.473  14.390  63.457  1.00  0.00    -1.090 NA 
HETATM   22  H1  UNL     1     -13.030  15.188  63.763  1.00  0.00     0.000 HD 
HETATM   23  C   UNL     1     -11.882  12.961  66.611  1.00  0.00    -0.395 A  
HETATM   24  H2  UNL     1     -12.249  14.247  62.472  1.00  0.00     0.000 HD 
HETATM   25  C   UNL     1     -11.194  11.804  66.299  1.00  0.00    -0.370 A  
BRANCH  23  26
HETATM   26  O   UNL     1     -11.978  13.262  67.958  1.00  0.00    -0.350 OA 
BRANCH  26  27
HETATM   27  C   UNL     1     -11.434  14.529  68.404  1.00  0.00    -0.302 C  
HETATM   28  C   UNL     1     -11.800  14.967  69.844  1.00  0.00    -0.311 C  
HETATM   29  F   UNL     1     -12.768  14.222  70.423  1.00  0.00    -0.373 F  
HETATM   30  F   UNL     1     -12.263  16.252  69.815  1.00  0.00    -0.220 F  
HETATM   31  F   UNL     1     -10.742  14.985  70.691  1.00  0.00    -0.267 F  
BRANCH  27  32
HETATM   32  C   UNL     1      -9.899  14.599  68.129  1.00  0.00    -0.224 A  
HETATM   33  C   UNL     1      -9.174  13.397  68.316  1.00  0.00    -0.198 A  
HETATM   34  C   UNL     1      -7.779  13.361  68.247  1.00  0.00    -0.141 A  
HETATM   35  C   UNL     1      -7.070  14.529  68.008  1.00  0.00    -0.140 A  
HETATM   36  C   UNL     1      -7.747  15.714  67.722  1.00  0.00    -0.159 A  
HETATM   37 CL   UNL     1      -5.350  14.515  68.056  1.00  0.00    -0.120 Cl 
HETATM   38  C   UNL     1      -9.158  15.747  67.719  1.00  0.00    -0.188 A  
BRANCH  38  39
HETATM   39  N   UNL     1      -9.795  16.939  67.267  1.00  0.00    -0.259 NA 
HETATM   40  C   UNL     1     -10.292  17.256  66.015  1.00  0.00    -0.305 A  
HETATM   41  C   UNL     1     -10.608  18.596  66.047  1.00  0.00    -0.410 A  
HETATM   42  C   UNL     1     -10.355  18.981  67.370  1.00  0.00    -0.424 A  
HETATM   43  N   UNL     1     -10.036  17.941  68.125  1.00  0.00    -0.345 NA 
HETATM   44  C   UNL     1     -10.369  20.328  67.994  1.00  0.00    -0.382 C  
ENDBRANCH  38  39
ENDBRANCH  27  32
ENDBRANCH  26  27
ENDBRANCH  23  26
ENDBRANCH  14  17
ENDBRANCH  10  11
ENDBRANCH   6  10
ENDBRANCH   4   6
ENDBRANCH   3   4
ENDBRANCH   2   3
TORSDOF 10
ENDMDL
MODEL       35
REMARK 921   NORMALIZED FREE ENERGY PREDICTED BY IDOCK:   -6.58 KCAL/MOL
REMARK 922        TOTAL FREE ENERGY PREDICTED BY IDOCK:  -12.76 KCAL/MOL
REMARK 923 INTER-LIGAND FREE ENERGY PREDICTED BY IDOCK:  -10.57 KCAL/MOL
REMARK 924 INTRA-LIGAND FREE ENERGY PREDICTED BY IDOCK:   -2.20 KCAL/MOL
REMARK 927      BINDING AFFINITY PREDICTED BY RF-SCORE:    0.00 PKD
ROOT
HETATM    1  C   UNL     1      -6.267   4.328  68.586  1.00  0.00    -0.032 C  
HETATM    2  C   UNL     1      -7.532   3.728  69.173  1.00  0.00    -0.053 C  
ENDROOT
BRANCH   2   3
HETATM    3  O   UNL     1      -8.509   4.772  69.263  1.00  0.00    -0.080 OA 
BRANCH   3   4
HETATM    4  C   UNL     1      -9.504   4.705  68.326  1.00  0.00    -0.147 C  
HETATM    5  O   UNL     1      -9.774   3.718  67.655  1.00  0.00    -0.178 OA 
BRANCH   4   6
HETATM    6  C   UNL     1     -10.236   6.053  68.287  1.00  0.00    -0.181 C  
HETATM    7  N   UNL     1     -11.311   5.989  67.268  1.00  0.00    -0.424 NA 
HETATM    8  H2  UNL     1     -11.946   5.206  67.422  1.00  0.00     0.000 HD 
HETATM    9  H1  UNL     1     -11.797   6.885  67.243  1.00  0.00     0.000 HD 
BRANCH   6  10
HETATM   10  C   UNL     1     -10.789   6.416  69.682  1.00  0.00    -0.380 C  
BRANCH  10  11
HETATM   11  C   UNL     1     -11.057   7.890  69.956  1.00  0.00    -0.165 A  
HETATM   12  C   UNL     1     -11.901   8.345  70.974  1.00  0.00    -0.278 A  
HETATM   13  C   UNL     1     -12.130   9.730  71.164  1.00  0.00    -0.460 A  
HETATM   14  C   UNL     1     -11.539  10.718  70.346  1.00  0.00    -0.431 A  
HETATM   15  C   UNL     1     -10.635  10.234  69.383  1.00  0.00    -0.262 A  
HETATM   16  C   UNL     1     -10.407   8.860  69.188  1.00  0.00    -0.230 A  
BRANCH  14  17
HETATM   17  C   UNL     1     -11.929  12.169  70.427  1.00  0.00    -0.272 A  
HETATM   18  N   UNL     1     -12.736  12.527  71.453  1.00  0.00    -0.312 NA 
HETATM   19  C   UNL     1     -13.245  13.767  71.452  1.00  0.00    -0.305 A  
HETATM   20  N   UNL     1     -13.088  14.677  70.483  1.00  0.00    -0.283 NA 
HETATM   21  N   UNL     1     -14.076  14.112  72.497  1.00  0.00    -0.635 NA 
HETATM   22  H1  UNL     1     -14.464  15.056  72.496  1.00  0.00     0.000 HD 
HETATM   23  C   UNL     1     -12.273  14.313  69.490  1.00  0.00    -0.297 A  
HETATM   24  H2  UNL     1     -14.295  13.451  73.243  1.00  0.00     0.000 HD 
HETATM   25  C   UNL     1     -11.629  13.092  69.438  1.00  0.00    -0.360 A  
BRANCH  23  26
HETATM   26  O   UNL     1     -12.154  15.109  68.364  1.00  0.00    -0.241 OA 
BRANCH  26  27
HETATM   27  C   UNL     1     -11.291  14.641  67.299  1.00  0.00    -0.353 C  
HETATM   28  C   UNL     1     -11.989  14.228  65.978  1.00  0.00    -0.400 C  
HETATM   29  F   UNL     1     -13.335  14.139  66.065  1.00  0.00    -0.377 F  
HETATM   30  F   UNL     1     -11.540  12.993  65.605  1.00  0.00    -0.330 F  
HETATM   31  F   UNL     1     -11.702  15.045  64.935  1.00  0.00    -0.363 F  
BRANCH  27  32
HETATM   32  C   UNL     1     -10.111  15.636  67.066  1.00  0.00    -0.253 A  
HETATM   33  C   UNL     1     -10.455  17.007  66.980  1.00  0.00    -0.279 A  
HETATM   34  C   UNL     1      -9.517  17.981  66.628  1.00  0.00    -0.300 A  
HETATM   35  C   UNL     1      -8.214  17.608  66.334  1.00  0.00    -0.263 A  
HETATM   36  C   UNL     1      -7.809  16.283  66.502  1.00  0.00    -0.298 A  
HETATM   37 CL   UNL     1      -7.090  18.782  65.770  1.00  0.00    -0.290 Cl 
HETATM   38  C   UNL     1      -8.731  15.303  66.925  1.00  0.00    -0.258 A  
BRANCH  38  39
HETATM   39  N   UNL     1      -8.229  14.005  67.230  1.00  0.00    -0.186 NA 
HETATM   40  C   UNL     1      -7.299  13.617  68.179  1.00  0.00    -0.121 A  
HETATM   41  C   UNL     1      -7.008  12.295  67.923  1.00  0.00    -0.104 A  
HETATM   42  C   UNL     1      -7.864  11.948  66.870  1.00  0.00    -0.120 A  
HETATM   43  N   UNL     1      -8.706  12.929  66.586  1.00  0.00    -0.105 NA 
HETATM   44  C   UNL     1      -7.929  10.705  66.060  1.00  0.00    -0.159 C  
ENDBRANCH  38  39
ENDBRANCH  27  32
ENDBRANCH  26  27
ENDBRANCH  23  26
ENDBRANCH  14  17
ENDBRANCH  10  11
ENDBRANCH   6  10
ENDBRANCH   4   6
ENDBRANCH   3   4
ENDBRANCH   2   3
TORSDOF 10
ENDMDL
MODEL       36
REMARK 921   NORMALIZED FREE ENERGY PREDICTED BY IDOCK:   -6.56 KCAL/MOL
REMARK 922        TOTAL FREE ENERGY PREDICTED BY IDOCK:  -12.73 KCAL/MOL
REMARK 923 INTER-LIGAND FREE ENERGY PREDICTED BY IDOCK:  -11.02 KCAL/MOL
REMARK 924 INTRA-LIGAND FREE ENERGY PREDICTED BY IDOCK:   -1.71 KCAL/MOL
REMARK 927      BINDING AFFINITY PREDICTED BY RF-SCORE:    0.00 PKD
ROOT
HETATM    1  C   UNL     1      -5.693  20.315  68.602  1.00  0.00    -0.303 C  
HETATM    2  C   UNL     1      -7.133  19.843  68.682  1.00  0.00    -0.303 C  
ENDROOT
BRANCH   2   3
HETATM    3  O   UNL     1      -7.839  20.409  67.571  1.00  0.00    -0.307 OA 
BRANCH   3   4
HETATM    4  C   UNL     1      -8.315  19.494  66.672  1.00  0.00    -0.318 C  
HETATM    5  O   UNL     1      -7.776  19.201  65.613  1.00  0.00    -0.460 OA 
BRANCH   4   6
HETATM    6  C   UNL     1      -9.607  18.882  67.228  1.00  0.00    -0.307 C  
HETATM    7  N   UNL     1     -10.422  19.955  67.847  1.00  0.00    -0.400 NA 
HETATM    8  H2  UNL     1     -10.603  20.725  67.203  1.00  0.00     0.000 HD 
HETATM    9  H1  UNL     1     -11.280  19.547  68.217  1.00  0.00     0.000 HD 
BRANCH   6  10
HETATM   10  C   UNL     1     -10.383  18.139  66.119  1.00  0.00    -0.394 C  
BRANCH  10  11
HETATM   11  C   UNL     1     -10.223  16.625  66.061  1.00  0.00    -0.366 A  
HETATM   12  C   UNL     1     -10.792  15.826  65.064  1.00  0.00    -0.461 A  
HETATM   13  C   UNL     1     -10.628  14.419  65.077  1.00  0.00    -0.452 A  
HETATM   14  C   UNL     1      -9.899  13.748  66.084  1.00  0.00    -0.310 A  
HETATM   15  C   UNL     1      -9.272  14.584  67.026  1.00  0.00    -0.253 A  
HETATM   16  C   UNL     1      -9.435  15.981  67.020  1.00  0.00    -0.230 A  
BRANCH  14  17
HETATM   17  C   UNL     1      -9.883  12.248  66.202  1.00  0.00    -0.243 A  
HETATM   18  N   UNL     1      -9.689  11.549  65.059  1.00  0.00    -0.245 NA 
HETATM   19  C   UNL     1      -9.849  10.219  65.100  1.00  0.00    -0.321 A  
HETATM   20  N   UNL     1     -10.257   9.511  66.159  1.00  0.00    -0.247 NA 
HETATM   21  N   UNL     1      -9.660   9.521  63.924  1.00  0.00    -0.403 NA 
HETATM   22  H1  UNL     1      -9.782   8.510  63.955  1.00  0.00     0.000 HD 
HETATM   23  C   UNL     1     -10.423  10.215  67.282  1.00  0.00    -0.256 A  
HETATM   24  H2  UNL     1      -9.409   9.999  63.058  1.00  0.00     0.000 HD 
HETATM   25  C   UNL     1     -10.202  11.575  67.371  1.00  0.00    -0.228 A  
BRANCH  23  26
HETATM   26  O   UNL     1     -10.985   9.619  68.397  1.00  0.00    -0.198 OA 
BRANCH  26  27
HETATM   27  C   UNL     1     -10.844  10.301  69.667  1.00  0.00    -0.271 C  
HETATM   28  C   UNL     1     -12.119  10.980  70.230  1.00  0.00    -0.362 C  
HETATM   29  F   UNL     1     -13.147  11.044  69.355  1.00  0.00    -0.020 F  
HETATM   30  F   UNL     1     -11.822  12.267  70.578  1.00  0.00    -0.402 F  
HETATM   31  F   UNL     1     -12.586  10.400  71.362  1.00  0.00    -0.392 F  
BRANCH  27  32
HETATM   32  C   UNL     1     -10.144   9.380  70.715  1.00  0.00    -0.366 A  
HETATM   33  C   UNL     1     -10.993   8.719  71.635  1.00  0.00    -0.391 A  
HETATM   34  C   UNL     1     -10.484   7.987  72.711  1.00  0.00    -0.415 A  
HETATM   35  C   UNL     1      -9.114   7.912  72.906  1.00  0.00    -0.220 A  
HETATM   36  C   UNL     1      -8.240   8.465  71.970  1.00  0.00    -0.212 A  
HETATM   37 CL   UNL     1      -8.487   7.125  74.303  1.00  0.00    -0.196 Cl 
HETATM   38  C   UNL     1      -8.742   9.147  70.842  1.00  0.00    -0.221 A  
BRANCH  38  39
HETATM   39  N   UNL     1      -7.812   9.553  69.841  1.00  0.00    -0.119 NA 
HETATM   40  C   UNL     1      -7.067  10.715  69.746  1.00  0.00    -0.139 A  
HETATM   41  C   UNL     1      -6.494  10.711  68.493  1.00  0.00    -0.054 A  
HETATM   42  C   UNL     1      -6.873   9.480  67.942  1.00  0.00    -0.074 A  
HETATM   43  N   UNL     1      -7.514   8.730  68.825  1.00  0.00    -0.083 NA 
HETATM   44  C   UNL     1      -6.686   8.949  66.568  1.00  0.00    -0.075 C  
ENDBRANCH  38  39
ENDBRANCH  27  32
ENDBRANCH  26  27
ENDBRANCH  23  26
ENDBRANCH  14  17
ENDBRANCH  10  11
ENDBRANCH   6  10
ENDBRANCH   4   6
ENDBRANCH   3   4
ENDBRANCH   2   3
TORSDOF 10
ENDMDL
MODEL       37
REMARK 921   NORMALIZED FREE ENERGY PREDICTED BY IDOCK:   -6.54 KCAL/MOL
REMARK 922        TOTAL FREE ENERGY PREDICTED BY IDOCK:  -12.70 KCAL/MOL
REMARK 923 INTER-LIGAND FREE ENERGY PREDICTED BY IDOCK:  -10.55 KCAL/MOL
REMARK 924 INTRA-LIGAND FREE ENERGY PREDICTED BY IDOCK:   -2.14 KCAL/MOL
REMARK 927      BINDING AFFINITY PREDICTED BY RF-SCORE:    0.00 PKD
ROOT
HETATM    1  C   UNL     1     -10.225  19.957  65.987  1.00  0.00    -0.591 C  
HETATM    2  C   UNL     1      -9.477  20.461  67.208  1.00  0.00    -0.431 C  
ENDROOT
BRANCH   2   3
HETATM    3  O   UNL     1      -8.123  20.716  66.817  1.00  0.00    -0.218 OA 
BRANCH   3   4
HETATM    4  C   UNL     1      -7.351  19.596  66.671  1.00  0.00    -0.242 C  
HETATM    5  O   UNL     1      -7.326  18.881  65.678  1.00  0.00    -0.459 OA 
BRANCH   4   6
HETATM    6  C   UNL     1      -6.507  19.411  67.939  1.00  0.00    -0.227 C  
HETATM    7  N   UNL     1      -6.126  20.744  68.463  1.00  0.00    -0.345 NA 
HETATM    8  H2  UNL     1      -6.935  21.346  68.619  1.00  0.00     0.000 HD 
HETATM    9  H1  UNL     1      -5.565  20.621  69.305  1.00  0.00     0.000 HD 
BRANCH   6  10
HETATM   10  C   UNL     1      -7.272  18.578  68.990  1.00  0.00    -0.262 C  
BRANCH  10  11
HETATM   11  C   UNL     1      -8.012  17.345  68.488  1.00  0.00    -0.266 A  
HETATM   12  C   UNL     1      -7.368  16.199  68.010  1.00  0.00    -0.138 A  
HETATM   13  C   UNL     1      -8.111  15.092  67.533  1.00  0.00    -0.200 A  
HETATM   14  C   UNL     1      -9.523  15.081  67.502  1.00  0.00    -0.203 A  
HETATM   15  C   UNL     1     -10.142  16.213  68.062  1.00  0.00    -0.242 A  
HETATM   16  C   UNL     1      -9.409  17.317  68.533  1.00  0.00    -0.276 A  
BRANCH  14  17
HETATM   17  C   UNL     1     -10.305  13.988  66.824  1.00  0.00    -0.271 A  
HETATM   18  N   UNL     1     -10.909  14.307  65.655  1.00  0.00    -0.298 NA 
HETATM   19  C   UNL     1     -11.756  13.416  65.121  1.00  0.00    -0.321 A  
HETATM   20  N   UNL     1     -12.123  12.255  65.674  1.00  0.00    -0.578 NA 
HETATM   21  N   UNL     1     -12.374  13.761  63.936  1.00  0.00    -0.756 NA 
HETATM   22  H1  UNL     1     -13.019  13.083  63.530  1.00  0.00     0.000 HD 
HETATM   23  C   UNL     1     -11.502  11.949  66.816  1.00  0.00    -0.316 A  
HETATM   24  H2  UNL     1     -12.194  14.658  63.484  1.00  0.00     0.000 HD 
HETATM   25  C   UNL     1     -10.549  12.755  67.407  1.00  0.00    -0.241 A  
BRANCH  23  26
HETATM   26  O   UNL     1     -11.907  10.850  67.553  1.00  0.00    -0.524 OA 
BRANCH  26  27
HETATM   27  C   UNL     1     -10.959  10.283  68.490  1.00  0.00    -0.247 C  
HETATM   28  C   UNL     1     -11.517   9.893  69.882  1.00  0.00    -0.179 C  
HETATM   29  F   UNL     1     -12.768  10.342  70.126  1.00  0.00    -0.316 F  
HETATM   30  F   UNL     1     -10.715  10.428  70.850  1.00  0.00    -0.316 F  
HETATM   31  F   UNL     1     -11.514   8.557  70.113  1.00  0.00    -0.246 F  
BRANCH  27  32
HETATM   32  C   UNL     1     -10.148   9.127  67.825  1.00  0.00    -0.253 A  
HETATM   33  C   UNL     1     -10.899   8.018  67.366  1.00  0.00    -0.146 A  
HETATM   34  C   UNL     1     -10.282   6.858  66.889  1.00  0.00    -0.310 A  
HETATM   35  C   UNL     1      -8.898   6.770  66.875  1.00  0.00    -0.119 A  
HETATM   36  C   UNL     1      -8.121   7.874  67.225  1.00  0.00    -0.118 A  
HETATM   37 CL   UNL     1      -8.136   5.297  66.415  1.00  0.00    -0.108 Cl 
HETATM   38  C   UNL     1      -8.734   9.074  67.642  1.00  0.00    -0.124 A  
BRANCH  38  39
HETATM   39  N   UNL     1      -7.901  10.215  67.836  1.00  0.00    -0.100 NA 
HETATM   40  C   UNL     1      -7.320  11.054  66.901  1.00  0.00    -0.133 A  
HETATM   41  C   UNL     1      -6.445  11.862  67.593  1.00  0.00    -0.089 A  
HETATM   42  C   UNL     1      -6.627  11.504  68.935  1.00  0.00    -0.073 A  
HETATM   43  N   UNL     1      -7.623  10.643  69.076  1.00  0.00    -0.111 NA 
HETATM   44  C   UNL     1      -5.875  11.919  70.146  1.00  0.00    -0.157 C  
ENDBRANCH  38  39
ENDBRANCH  27  32
ENDBRANCH  26  27
ENDBRANCH  23  26
ENDBRANCH  14  17
ENDBRANCH  10  11
ENDBRANCH   6  10
ENDBRANCH   4   6
ENDBRANCH   3   4
ENDBRANCH   2   3
TORSDOF 10
ENDMDL
MODEL       38
REMARK 921   NORMALIZED FREE ENERGY PREDICTED BY IDOCK:   -6.53 KCAL/MOL
REMARK 922        TOTAL FREE ENERGY PREDICTED BY IDOCK:  -12.68 KCAL/MOL
REMARK 923 INTER-LIGAND FREE ENERGY PREDICTED BY IDOCK:  -12.39 KCAL/MOL
REMARK 924 INTRA-LIGAND FREE ENERGY PREDICTED BY IDOCK:   -0.29 KCAL/MOL
REMARK 927      BINDING AFFINITY PREDICTED BY RF-SCORE:    0.00 PKD
ROOT
HETATM    1  C   UNL     1     -11.028   6.655  68.240  1.00  0.00    -0.321 C  
HETATM    2  C   UNL     1     -10.516   5.677  69.281  1.00  0.00    -0.286 C  
ENDROOT
BRANCH   2   3
HETATM    3  O   UNL     1     -11.236   5.916  70.497  1.00  0.00    -0.305 OA 
BRANCH   3   4
HETATM    4  C   UNL     1     -10.456   5.969  71.620  1.00  0.00    -0.228 C  
HETATM    5  O   UNL     1      -9.529   5.211  71.871  1.00  0.00    -0.143 OA 
BRANCH   4   6
HETATM    6  C   UNL     1     -10.917   7.151  72.484  1.00  0.00    -0.273 C  
HETATM    7  N   UNL     1     -11.003   6.712  73.896  1.00  0.00    -0.405 NA 
HETATM    8  H2  UNL     1     -10.130   6.304  74.231  1.00  0.00     0.000 HD 
HETATM    9  H1  UNL     1     -11.310   7.497  74.470  1.00  0.00     0.000 HD 
BRANCH   6  10
HETATM   10  C   UNL     1      -9.967   8.357  72.314  1.00  0.00    -0.383 C  
BRANCH  10  11
HETATM   11  C   UNL     1     -10.028   9.101  70.986  1.00  0.00    -0.367 A  
HETATM   12  C   UNL     1     -11.133   9.850  70.571  1.00  0.00    -0.398 A  
HETATM   13  C   UNL     1     -11.140  10.501  69.312  1.00  0.00    -0.298 A  
HETATM   14  C   UNL     1     -10.053  10.428  68.413  1.00  0.00    -0.181 A  
HETATM   15  C   UNL     1      -8.926   9.735  68.893  1.00  0.00    -0.144 A  
HETATM   16  C   UNL     1      -8.916   9.084  70.139  1.00  0.00    -0.200 A  
BRANCH  14  17
HETATM   17  C   UNL     1     -10.134  10.958  67.007  1.00  0.00    -0.205 A  
HETATM   18  N   UNL     1      -9.956  10.064  66.007  1.00  0.00    -0.258 NA 
HETATM   19  C   UNL     1      -9.843  10.531  64.756  1.00  0.00    -0.323 A  
HETATM   20  N   UNL     1      -9.819  11.821  64.401  1.00  0.00    -0.231 NA 
HETATM   21  N   UNL     1      -9.648   9.608  63.749  1.00  0.00    -0.453 NA 
HETATM   22  H1  UNL     1      -9.562   9.964  62.798  1.00  0.00     0.000 HD 
HETATM   23  C   UNL     1     -10.016  12.688  65.398  1.00  0.00    -0.214 A  
HETATM   24  H2  UNL     1      -9.593   8.609  63.949  1.00  0.00     0.000 HD 
HETATM   25  C   UNL     1     -10.229  12.309  66.710  1.00  0.00    -0.229 A  
BRANCH  23  26
HETATM   26  O   UNL     1      -9.862  14.045  65.178  1.00  0.00    -0.262 OA 
BRANCH  26  27
HETATM   27  C   UNL     1     -11.001  14.902  65.440  1.00  0.00    -0.364 C  
HETATM   28  C   UNL     1     -12.342  14.484  64.784  1.00  0.00    -0.391 C  
HETATM   29  F   UNL     1     -12.229  13.500  63.865  1.00  0.00    -0.451 F  
HETATM   30  F   UNL     1     -12.876  15.562  64.137  1.00  0.00    -0.286 F  
HETATM   31  F   UNL     1     -13.285  14.098  65.678  1.00  0.00    -0.568 F  
BRANCH  27  32
HETATM   32  C   UNL     1     -11.143  15.181  66.969  1.00  0.00    -0.328 A  
HETATM   33  C   UNL     1     -11.911  14.248  67.707  1.00  0.00    -0.414 A  
HETATM   34  C   UNL     1     -12.237  14.461  69.049  1.00  0.00    -0.233 A  
HETATM   35  C   UNL     1     -11.821  15.622  69.683  1.00  0.00    -0.362 A  
HETATM   36  C   UNL     1     -10.982  16.520  69.023  1.00  0.00    -0.306 A  
HETATM   37 CL   UNL     1     -12.332  15.953  71.293  1.00  0.00    -0.478 Cl 
HETATM   38  C   UNL     1     -10.588  16.280  67.690  1.00  0.00    -0.311 A  
BRANCH  38  39
HETATM   39  N   UNL     1      -9.608  17.143  67.119  1.00  0.00    -0.249 NA 
HETATM   40  C   UNL     1      -8.439  16.832  66.449  1.00  0.00    -0.303 A  
HETATM   41  C   UNL     1      -7.750  18.015  66.293  1.00  0.00    -0.293 A  
HETATM   42  C   UNL     1      -8.611  18.989  66.816  1.00  0.00    -0.304 A  
HETATM   43  N   UNL     1      -9.785  18.473  67.145  1.00  0.00    -0.295 NA 
HETATM   44  C   UNL     1      -8.383  20.436  67.060  1.00  0.00    -0.349 C  
ENDBRANCH  38  39
ENDBRANCH  27  32
ENDBRANCH  26  27
ENDBRANCH  23  26
ENDBRANCH  14  17
ENDBRANCH  10  11
ENDBRANCH   6  10
ENDBRANCH   4   6
ENDBRANCH   3   4
ENDBRANCH   2   3
TORSDOF 10
ENDMDL
MODEL       39
REMARK 921   NORMALIZED FREE ENERGY PREDICTED BY IDOCK:   -6.50 KCAL/MOL
REMARK 922        TOTAL FREE ENERGY PREDICTED BY IDOCK:  -12.63 KCAL/MOL
REMARK 923 INTER-LIGAND FREE ENERGY PREDICTED BY IDOCK:  -10.56 KCAL/MOL
REMARK 924 INTRA-LIGAND FREE ENERGY PREDICTED BY IDOCK:   -2.07 KCAL/MOL
REMARK 927      BINDING AFFINITY PREDICTED BY RF-SCORE:    0.00 PKD
ROOT
HETATM    1  C   UNL     1     -10.431  17.607  66.143  1.00  0.00    -0.295 C  
HETATM    2  C   UNL     1     -10.268  16.110  66.339  1.00  0.00    -0.306 C  
ENDROOT
BRANCH   2   3
HETATM    3  O   UNL     1     -10.958  15.452  65.272  1.00  0.00    -0.353 OA 
BRANCH   3   4
HETATM    4  C   UNL     1     -11.786  14.436  65.668  1.00  0.00    -0.355 C  
HETATM    5  O   UNL     1     -12.396  14.398  66.728  1.00  0.00    -0.392 OA 
BRANCH   4   6
HETATM    6  C   UNL     1     -11.844  13.385  64.552  1.00  0.00    -0.398 C  
HETATM    7  N   UNL     1     -12.421  14.004  63.335  1.00  0.00    -1.123 NA 
HETATM    8  H2  UNL     1     -11.918  14.844  63.051  1.00  0.00     0.000 HD 
HETATM    9  H1  UNL     1     -12.460  13.304  62.594  1.00  0.00     0.000 HD 
BRANCH   6  10
HETATM   10  C   UNL     1     -10.444  12.791  64.286  1.00  0.00    -0.423 C  
BRANCH  10  11
HETATM   11  C   UNL     1     -10.131  11.446  64.931  1.00  0.00    -0.323 A  
HETATM   12  C   UNL     1      -9.337  10.467  64.326  1.00  0.00    -0.324 A  
HETATM   13  C   UNL     1      -9.102   9.224  64.965  1.00  0.00    -0.245 A  
HETATM   14  C   UNL     1      -9.651   8.902  66.226  1.00  0.00    -0.328 A  
HETATM   15  C   UNL     1     -10.377   9.937  66.844  1.00  0.00    -0.300 A  
HETATM   16  C   UNL     1     -10.618  11.170  66.212  1.00  0.00    -0.309 A  
BRANCH  14  17
HETATM   17  C   UNL     1      -9.557   7.521  66.816  1.00  0.00    -0.206 A  
HETATM   18  N   UNL     1     -10.164   6.524  66.131  1.00  0.00     0.170 NA 
HETATM   19  C   UNL     1     -10.253   5.321  66.716  1.00  0.00    -0.249 A  
HETATM   20  N   UNL     1      -9.857   5.024  67.959  1.00  0.00    -0.153 NA 
HETATM   21  N   UNL     1     -10.886   4.318  66.011  1.00  0.00    -0.358 NA 
HETATM   22  H1  UNL     1     -10.954   3.403  66.456  1.00  0.00     0.000 HD 
HETATM   23  C   UNL     1      -9.243   6.014  68.611  1.00  0.00    -0.115 A  
HETATM   24  H2  UNL     1     -11.271   4.485  65.081  1.00  0.00     0.000 HD 
HETATM   25  C   UNL     1      -9.022   7.265  68.068  1.00  0.00    -0.131 A  
BRANCH  23  26
HETATM   26  O   UNL     1      -8.927   5.871  69.951  1.00  0.00    -0.136 OA 
BRANCH  26  27
HETATM   27  C   UNL     1     -10.002   5.540  70.864  1.00  0.00    -0.199 C  
HETATM   28  C   UNL     1      -9.631   4.632  72.063  1.00  0.00    -0.151 C  
HETATM   29  F   UNL     1      -8.402   4.076  71.981  1.00  0.00    -0.089 F  
HETATM   30  F   UNL     1     -10.522   3.599  72.132  1.00  0.00    -0.235 F  
HETATM   31  F   UNL     1      -9.713   5.258  73.263  1.00  0.00    -0.140 F  
BRANCH  27  32
HETATM   32  C   UNL     1     -10.771   6.826  71.302  1.00  0.00    -0.257 A  
HETATM   33  C   UNL     1     -12.169   6.691  71.476  1.00  0.00    -0.391 A  
HETATM   34  C   UNL     1     -12.991   7.794  71.721  1.00  0.00    -0.351 A  
HETATM   35  C   UNL     1     -12.438   9.065  71.779  1.00  0.00    -0.368 A  
HETATM   36  C   UNL     1     -11.055   9.232  71.710  1.00  0.00    -0.398 A  
HETATM   37 CL   UNL     1     -13.460  10.440  71.946  1.00  0.00    -0.439 Cl 
HETATM   38  C   UNL     1     -10.210   8.117  71.533  1.00  0.00    -0.206 A  
BRANCH  38  39
HETATM   39  N   UNL     1      -8.803   8.327  71.628  1.00  0.00    -0.155 NA 
HETATM   40  C   UNL     1      -7.897   7.842  72.555  1.00  0.00    -0.108 A  
HETATM   41  C   UNL     1      -6.712   8.507  72.329  1.00  0.00    -0.092 A  
HETATM   42  C   UNL     1      -6.968   9.300  71.203  1.00  0.00    -0.052 A  
HETATM   43  N   UNL     1      -8.165   9.050  70.695  1.00  0.00    -0.163 NA 
HETATM   44  C   UNL     1      -6.133  10.345  70.559  1.00  0.00    -0.116 C  
ENDBRANCH  38  39
ENDBRANCH  27  32
ENDBRANCH  26  27
ENDBRANCH  23  26
ENDBRANCH  14  17
ENDBRANCH  10  11
ENDBRANCH   6  10
ENDBRANCH   4   6
ENDBRANCH   3   4
ENDBRANCH   2   3
TORSDOF 10
ENDMDL
MODEL       40
REMARK 921   NORMALIZED FREE ENERGY PREDICTED BY IDOCK:   -6.49 KCAL/MOL
REMARK 922        TOTAL FREE ENERGY PREDICTED BY IDOCK:  -12.63 KCAL/MOL
REMARK 923 INTER-LIGAND FREE ENERGY PREDICTED BY IDOCK:  -10.87 KCAL/MOL
REMARK 924 INTRA-LIGAND FREE ENERGY PREDICTED BY IDOCK:   -1.75 KCAL/MOL
REMARK 927      BINDING AFFINITY PREDICTED BY RF-SCORE:    0.00 PKD
ROOT
HETATM    1  C   UNL     1     -10.413  18.149  66.099  1.00  0.00    -0.377 C  
HETATM    2  C   UNL     1     -10.191  16.663  66.315  1.00  0.00    -0.334 C  
ENDROOT
BRANCH   2   3
HETATM    3  O   UNL     1     -10.226  16.026  65.032  1.00  0.00    -0.513 OA 
BRANCH   3   4
HETATM    4  C   UNL     1     -11.455  15.546  64.667  1.00  0.00    -0.324 C  
HETATM    5  O   UNL     1     -12.183  16.045  63.820  1.00  0.00    -0.895 OA 
BRANCH   4   6
HETATM    6  C   UNL     1     -11.743  14.270  65.469  1.00  0.00    -0.353 C  
HETATM    7  N   UNL     1     -13.160  13.886  65.272  1.00  0.00    -0.770 NA 
HETATM    8  H2  UNL     1     -13.404  13.788  64.286  1.00  0.00     0.000 HD 
HETATM    9  H1  UNL     1     -13.351  13.038  65.806  1.00  0.00     0.000 HD 
BRANCH   6  10
HETATM   10  C   UNL     1     -10.778  13.136  65.058  1.00  0.00    -0.338 C  
BRANCH  10  11
HETATM   11  C   UNL     1     -10.130  12.339  66.184  1.00  0.00    -0.265 A  
HETATM   12  C   UNL     1     -10.468  11.018  66.489  1.00  0.00    -0.309 A  
HETATM   13  C   UNL     1      -9.847  10.337  67.565  1.00  0.00    -0.204 A  
HETATM   14  C   UNL     1      -8.871  10.944  68.385  1.00  0.00    -0.147 A  
HETATM   15  C   UNL     1      -8.494  12.245  68.004  1.00  0.00    -0.171 A  
HETATM   16  C   UNL     1      -9.111  12.926  66.940  1.00  0.00    -0.224 A  
BRANCH  14  17
HETATM   17  C   UNL     1      -8.351  10.289  69.637  1.00  0.00    -0.123 A  
HETATM   18  N   UNL     1      -7.014  10.094  69.712  1.00  0.00    -0.100 NA 
HETATM   19  C   UNL     1      -6.541   9.356  70.726  1.00  0.00    -0.096 A  
HETATM   20  N   UNL     1      -7.279   8.723  71.645  1.00  0.00    -0.196 NA 
HETATM   21  N   UNL     1      -5.177   9.156  70.782  1.00  0.00    -0.027 NA 
HETATM   22  H1  UNL     1      -4.817   8.594  71.553  1.00  0.00     0.000 HD 
HETATM   23  C   UNL     1      -8.594   8.943  71.567  1.00  0.00    -0.135 A  
HETATM   24  H2  UNL     1      -4.553   9.554  70.080  1.00  0.00     0.000 HD 
HETATM   25  C   UNL     1      -9.178   9.757  70.614  1.00  0.00     0.001 A  
BRANCH  23  26
HETATM   26  O   UNL     1      -9.466   8.226  72.366  1.00  0.00    -0.230 OA 
BRANCH  26  27
HETATM   27  C   UNL     1      -9.467   6.783  72.235  1.00  0.00    -0.141 C  
HETATM   28  C   UNL     1     -10.160   5.989  73.371  1.00  0.00    -0.198 C  
HETATM   29  F   UNL     1     -10.477   6.731  74.455  1.00  0.00    -0.380 F  
HETATM   30  F   UNL     1      -9.318   5.005  73.804  1.00  0.00    -0.126 F  
HETATM   31  F   UNL     1     -11.287   5.348  72.974  1.00  0.00    -0.294 F  
BRANCH  27  32
HETATM   32  C   UNL     1      -9.962   6.357  70.817  1.00  0.00    -0.212 A  
HETATM   33  C   UNL     1      -9.116   5.482  70.095  1.00  0.00    -0.162 A  
HETATM   34  C   UNL     1      -9.371   5.145  68.763  1.00  0.00    -0.166 A  
HETATM   35  C   UNL     1     -10.468   5.689  68.112  1.00  0.00    -0.195 A  
HETATM   36  C   UNL     1     -11.380   6.477  68.814  1.00  0.00    -0.237 A  
HETATM   37 CL   UNL     1     -10.711   5.384  66.436  1.00  0.00    -0.340 Cl 
HETATM   38  C   UNL     1     -11.171   6.766  70.178  1.00  0.00    -0.335 A  
BRANCH  38  39
HETATM   39  N   UNL     1     -12.210   7.441  70.883  1.00  0.00    -0.271 NA 
HETATM   40  C   UNL     1     -13.417   6.956  71.355  1.00  0.00    -0.154 A  
HETATM   41  C   UNL     1     -14.144   8.050  71.768  1.00  0.00    -0.517 A  
HETATM   42  C   UNL     1     -13.272   9.133  71.592  1.00  0.00    -0.377 A  
HETATM   43  N   UNL     1     -12.065   8.729  71.227  1.00  0.00    -0.294 NA 
HETATM   44  C   UNL     1     -13.518  10.591  71.726  1.00  0.00    -0.345 C  
ENDBRANCH  38  39
ENDBRANCH  27  32
ENDBRANCH  26  27
ENDBRANCH  23  26
ENDBRANCH  14  17
ENDBRANCH  10  11
ENDBRANCH   6  10
ENDBRANCH   4   6
ENDBRANCH   3   4
ENDBRANCH   2   3
TORSDOF 10
ENDMDL
MODEL       41
REMARK 921   NORMALIZED FREE ENERGY PREDICTED BY IDOCK:   -6.46 KCAL/MOL
REMARK 922        TOTAL FREE ENERGY PREDICTED BY IDOCK:  -12.58 KCAL/MOL
REMARK 923 INTER-LIGAND FREE ENERGY PREDICTED BY IDOCK:  -10.22 KCAL/MOL
REMARK 924 INTRA-LIGAND FREE ENERGY PREDICTED BY IDOCK:   -2.36 KCAL/MOL
REMARK 927      BINDING AFFINITY PREDICTED BY RF-SCORE:    0.00 PKD
ROOT
HETATM    1  C   UNL     1      -9.306   6.705  68.239  1.00  0.00    -0.119 C  
HETATM    2  C   UNL     1      -8.945   5.779  69.387  1.00  0.00    -0.116 C  
ENDROOT
BRANCH   2   3
HETATM    3  O   UNL     1      -9.959   5.911  70.390  1.00  0.00    -0.178 OA 
BRANCH   3   4
HETATM    4  C   UNL     1      -9.539   6.497  71.553  1.00  0.00    -0.161 C  
HETATM    5  O   UNL     1      -8.379   6.782  71.819  1.00  0.00    -0.110 OA 
BRANCH   4   6
HETATM    6  C   UNL     1     -10.762   6.765  72.440  1.00  0.00    -0.226 C  
HETATM    7  N   UNL     1     -10.402   7.771  73.467  1.00  0.00    -0.272 NA 
HETATM    8  H2  UNL     1     -10.025   8.626  73.058  1.00  0.00     0.000 HD 
HETATM    9  H1  UNL     1     -11.216   7.948  74.056  1.00  0.00     0.000 HD 
BRANCH   6  10
HETATM   10  C   UNL     1     -11.967   7.219  71.587  1.00  0.00    -0.341 C  
BRANCH  10  11
HETATM   11  C   UNL     1     -12.018   8.689  71.192  1.00  0.00    -0.320 A  
HETATM   12  C   UNL     1     -11.275   9.232  70.139  1.00  0.00    -0.237 A  
HETATM   13  C   UNL     1     -11.346  10.614  69.835  1.00  0.00    -0.386 A  
HETATM   14  C   UNL     1     -12.150  11.513  70.569  1.00  0.00    -0.472 A  
HETATM   15  C   UNL     1     -12.945  10.925  71.569  1.00  0.00    -0.556 A  
HETATM   16  C   UNL     1     -12.875   9.554  71.878  1.00  0.00    -0.508 A  
BRANCH  14  17
HETATM   17  C   UNL     1     -12.080  13.003  70.368  1.00  0.00    -0.314 A  
HETATM   18  N   UNL     1     -13.003  13.749  71.019  1.00  0.00    -0.286 NA 
HETATM   19  C   UNL     1     -13.082  15.054  70.722  1.00  0.00    -0.369 A  
HETATM   20  N   UNL     1     -12.375  15.686  69.778  1.00  0.00    -0.278 NA 
HETATM   21  N   UNL     1     -14.036  15.799  71.384  1.00  0.00    -0.471 NA 
HETATM   22  H1  UNL     1     -14.097  16.791  71.158  1.00  0.00     0.000 HD 
HETATM   23  C   UNL     1     -11.456  14.939  69.161  1.00  0.00    -0.302 A  
HETATM   24  H2  UNL     1     -14.657  15.373  72.073  1.00  0.00     0.000 HD 
HETATM   25  C   UNL     1     -11.233  13.607  69.452  1.00  0.00    -0.252 A  
BRANCH  23  26
HETATM   26  O   UNL     1     -10.772  15.442  68.069  1.00  0.00    -0.263 OA 
BRANCH  26  27
HETATM   27  C   UNL     1     -10.797  14.667  66.845  1.00  0.00    -0.305 C  
HETATM   28  C   UNL     1     -10.868  15.472  65.522  1.00  0.00    -0.361 C  
HETATM   29  F   UNL     1     -11.128  16.788  65.685  1.00  0.00    -0.200 F  
HETATM   30  F   UNL     1     -11.874  14.969  64.748  1.00  0.00    -0.373 F  
HETATM   31  F   UNL     1      -9.748  15.370  64.766  1.00  0.00    -0.169 F  
BRANCH  27  32
HETATM   32  C   UNL     1      -9.654  13.605  66.839  1.00  0.00    -0.262 A  
HETATM   33  C   UNL     1     -10.009  12.305  66.408  1.00  0.00    -0.243 A  
HETATM   34  C   UNL     1      -9.118  11.231  66.496  1.00  0.00    -0.193 A  
HETATM   35  C   UNL     1      -7.856  11.426  67.036  1.00  0.00    -0.158 A  
HETATM   36  C   UNL     1      -7.431  12.708  67.382  1.00  0.00    -0.146 A  
HETATM   37 CL   UNL     1      -6.806  10.083  67.271  1.00  0.00    -0.081 Cl 
HETATM   38  C   UNL     1      -8.297  13.811  67.231  1.00  0.00    -0.174 A  
BRANCH  38  39
HETATM   39  N   UNL     1      -7.761  15.114  67.450  1.00  0.00    -0.182 NA 
HETATM   40  C   UNL     1      -7.550  15.795  68.635  1.00  0.00    -0.150 A  
HETATM   41  C   UNL     1      -7.217  17.087  68.290  1.00  0.00    -0.196 A  
HETATM   42  C   UNL     1      -7.166  17.070  66.890  1.00  0.00    -0.209 A  
HETATM   43  N   UNL     1      -7.323  15.845  66.414  1.00  0.00     0.032 NA 
HETATM   44  C   UNL     1      -6.997  18.186  65.926  1.00  0.00    -0.319 C  
ENDBRANCH  38  39
ENDBRANCH  27  32
ENDBRANCH  26  27
ENDBRANCH  23  26
ENDBRANCH  14  17
ENDBRANCH  10  11
ENDBRANCH   6  10
ENDBRANCH   4   6
ENDBRANCH   3   4
ENDBRANCH   2   3
TORSDOF 10
ENDMDL
MODEL       42
REMARK 921   NORMALIZED FREE ENERGY PREDICTED BY IDOCK:   -6.45 KCAL/MOL
REMARK 922        TOTAL FREE ENERGY PREDICTED BY IDOCK:  -12.56 KCAL/MOL
REMARK 923 INTER-LIGAND FREE ENERGY PREDICTED BY IDOCK:  -10.64 KCAL/MOL
REMARK 924 INTRA-LIGAND FREE ENERGY PREDICTED BY IDOCK:   -1.93 KCAL/MOL
REMARK 927      BINDING AFFINITY PREDICTED BY RF-SCORE:    0.00 PKD
ROOT
HETATM    1  C   UNL     1     -11.901   8.248  71.127  1.00  0.00    -0.302 C  
HETATM    2  C   UNL     1     -11.751   7.831  72.579  1.00  0.00    -0.339 C  
ENDROOT
BRANCH   2   3
HETATM    3  O   UNL     1     -11.445   6.432  72.602  1.00  0.00    -0.256 OA 
BRANCH   3   4
HETATM    4  C   UNL     1     -10.383   6.093  73.396  1.00  0.00    -0.239 C  
HETATM    5  O   UNL     1     -10.162   6.551  74.510  1.00  0.00    -0.358 OA 
BRANCH   4   6
HETATM    6  C   UNL     1      -9.547   5.029  72.674  1.00  0.00    -0.141 C  
HETATM    7  N   UNL     1     -10.375   4.400  71.618  1.00  0.00    -0.108 NA 
HETATM    8  H2  UNL     1     -10.771   5.086  70.974  1.00  0.00     0.000 HD 
HETATM    9  H1  UNL     1      -9.819   3.693  71.137  1.00  0.00     0.000 HD 
BRANCH   6  10
HETATM   10  C   UNL     1      -8.254   5.646  72.098  1.00  0.00    -0.112 C  
BRANCH  10  11
HETATM   11  C   UNL     1      -8.416   6.819  71.139  1.00  0.00    -0.125 A  
HETATM   12  C   UNL     1      -8.882   6.684  69.827  1.00  0.00    -0.144 A  
HETATM   13  C   UNL     1      -8.988   7.809  68.973  1.00  0.00    -0.145 A  
HETATM   14  C   UNL     1      -8.629   9.112  69.385  1.00  0.00    -0.138 A  
HETATM   15  C   UNL     1      -8.242   9.228  70.732  1.00  0.00    -0.210 A  
HETATM   16  C   UNL     1      -8.130   8.113  71.583  1.00  0.00    -0.150 A  
BRANCH  14  17
HETATM   17  C   UNL     1      -8.563  10.270  68.426  1.00  0.00    -0.125 A  
HETATM   18  N   UNL     1      -7.417  10.412  67.721  1.00  0.00    -0.088 NA 
HETATM   19  C   UNL     1      -7.257  11.528  66.996  1.00  0.00    -0.146 A  
HETATM   20  N   UNL     1      -8.103  12.564  66.957  1.00  0.00    -0.145 NA 
HETATM   21  N   UNL     1      -6.078  11.665  66.293  1.00  0.00    -0.466 NA 
HETATM   22  H1  UNL     1      -5.956  12.514  65.742  1.00  0.00     0.000 HD 
HETATM   23  C   UNL     1      -9.237  12.397  67.642  1.00  0.00    -0.185 A  
HETATM   24  H2  UNL     1      -5.355  10.945  66.323  1.00  0.00     0.000 HD 
HETATM   25  C   UNL     1      -9.540  11.251  68.352  1.00  0.00    -0.195 A  
BRANCH  23  26
HETATM   26  O   UNL     1     -10.115  13.454  67.798  1.00  0.00    -0.223 OA 
BRANCH  26  27
HETATM   27  C   UNL     1     -10.550  14.149  66.603  1.00  0.00    -0.278 C  
HETATM   28  C   UNL     1     -11.804  13.579  65.893  1.00  0.00    -0.372 C  
HETATM   29  F   UNL     1     -12.200  12.371  66.349  1.00  0.00    -0.441 F  
HETATM   30  F   UNL     1     -11.532  13.424  64.564  1.00  0.00    -0.329 F  
HETATM   31  F   UNL     1     -12.878  14.405  65.946  1.00  0.00    -0.456 F  
BRANCH  27  32
HETATM   32  C   UNL     1     -10.654  15.684  66.863  1.00  0.00    -0.311 A  
HETATM   33  C   UNL     1     -10.386  16.527  65.758  1.00  0.00    -0.359 A  
HETATM   34  C   UNL     1     -10.301  17.915  65.894  1.00  0.00    -0.259 A  
HETATM   35  C   UNL     1     -10.463  18.496  67.142  1.00  0.00    -0.409 A  
HETATM   36  C   UNL     1     -10.825  17.714  68.239  1.00  0.00    -0.195 A  
HETATM   37 CL   UNL     1     -10.226  20.190  67.339  1.00  0.00    -0.550 Cl 
HETATM   38  C   UNL     1     -10.982  16.319  68.098  1.00  0.00    -0.343 A  
BRANCH  38  39
HETATM   39  N   UNL     1     -11.504  15.593  69.209  1.00  0.00    -0.336 NA 
HETATM   40  C   UNL     1     -12.519  14.653  69.252  1.00  0.00    -0.019 A  
HETATM   41  C   UNL     1     -12.777  14.418  70.584  1.00  0.00    -0.421 A  
HETATM   42  C   UNL     1     -11.822  15.185  71.264  1.00  0.00    -0.350 A  
HETATM   43  N   UNL     1     -10.962  15.742  70.426  1.00  0.00    -0.336 NA 
HETATM   44  C   UNL     1     -11.673  15.460  72.716  1.00  0.00    -0.535 C  
ENDBRANCH  38  39
ENDBRANCH  27  32
ENDBRANCH  26  27
ENDBRANCH  23  26
ENDBRANCH  14  17
ENDBRANCH  10  11
ENDBRANCH   6  10
ENDBRANCH   4   6
ENDBRANCH   3   4
ENDBRANCH   2   3
TORSDOF 10
ENDMDL
MODEL       43
REMARK 921   NORMALIZED FREE ENERGY PREDICTED BY IDOCK:   -6.42 KCAL/MOL
REMARK 922        TOTAL FREE ENERGY PREDICTED BY IDOCK:  -12.51 KCAL/MOL
REMARK 923 INTER-LIGAND FREE ENERGY PREDICTED BY IDOCK:   -9.86 KCAL/MOL
REMARK 924 INTRA-LIGAND FREE ENERGY PREDICTED BY IDOCK:   -2.65 KCAL/MOL
REMARK 927      BINDING AFFINITY PREDICTED BY RF-SCORE:    0.00 PKD
ROOT
HETATM    1  C   UNL     1      -9.930  19.686  68.847  1.00  0.00    -0.524 C  
HETATM    2  C   UNL     1      -8.991  18.548  68.491  1.00  0.00    -0.323 C  
ENDROOT
BRANCH   2   3
HETATM    3  O   UNL     1      -8.825  18.548  67.068  1.00  0.00    -0.265 OA 
BRANCH   3   4
HETATM    4  C   UNL     1      -9.007  17.330  66.472  1.00  0.00    -0.268 C  
HETATM    5  O   UNL     1      -8.132  16.492  66.301  1.00  0.00    -0.307 OA 
BRANCH   4   6
HETATM    6  C   UNL     1     -10.487  17.184  66.092  1.00  0.00    -0.275 C  
HETATM    7  N   UNL     1     -10.851  18.268  65.149  1.00  0.00    -0.555 NA 
HETATM    8  H2  UNL     1     -10.241  18.295  64.332  1.00  0.00     0.000 HD 
HETATM    9  H1  UNL     1     -11.835  18.171  64.897  1.00  0.00     0.000 HD 
BRANCH   6  10
HETATM   10  C   UNL     1     -10.763  15.787  65.496  1.00  0.00    -0.397 C  
BRANCH  10  11
HETATM   11  C   UNL     1     -11.084  14.668  66.479  1.00  0.00    -0.329 A  
HETATM   12  C   UNL     1     -11.636  14.888  67.745  1.00  0.00    -0.358 A  
HETATM   13  C   UNL     1     -11.889  13.808  68.626  1.00  0.00    -0.409 A  
HETATM   14  C   UNL     1     -11.598  12.468  68.288  1.00  0.00    -0.376 A  
HETATM   15  C   UNL     1     -11.120  12.271  66.980  1.00  0.00    -0.339 A  
HETATM   16  C   UNL     1     -10.862  13.340  66.103  1.00  0.00    -0.290 A  
BRANCH  14  17
HETATM   17  C   UNL     1     -11.690  11.347  69.288  1.00  0.00    -0.337 A  
HETATM   18  N   UNL     1     -12.520  11.537  70.341  1.00  0.00    -0.270 NA 
HETATM   19  C   UNL     1     -12.490  10.641  71.337  1.00  0.00    -0.390 A  
HETATM   20  N   UNL     1     -11.655   9.599  71.428  1.00  0.00    -0.385 NA 
HETATM   21  N   UNL     1     -13.332  10.855  72.409  1.00  0.00    -0.480 NA 
HETATM   22  H1  UNL     1     -13.309  10.174  73.167  1.00  0.00     0.000 HD 
HETATM   23  C   UNL     1     -10.858   9.417  70.372  1.00  0.00    -0.269 A  
HETATM   24  H2  UNL     1     -13.954  11.663  72.442  1.00  0.00     0.000 HD 
HETATM   25  C   UNL     1     -10.871  10.230  69.255  1.00  0.00    -0.275 A  
BRANCH  23  26
HETATM   26  O   UNL     1      -9.854   8.466  70.417  1.00  0.00    -0.178 OA 
BRANCH  26  27
HETATM   27  C   UNL     1      -8.924   8.417  69.307  1.00  0.00    -0.150 C  
HETATM   28  C   UNL     1      -7.445   8.746  69.633  1.00  0.00    -0.071 C  
HETATM   29  F   UNL     1      -7.248   9.260  70.867  1.00  0.00    -0.082 F  
HETATM   30  F   UNL     1      -6.990   9.679  68.745  1.00  0.00    -0.062 F  
HETATM   31  F   UNL     1      -6.612   7.686  69.497  1.00  0.00    -0.034 F  
BRANCH  27  32
HETATM   32  C   UNL     1      -9.080   7.083  68.513  1.00  0.00    -0.131 A  
HETATM   33  C   UNL     1      -9.461   5.947  69.267  1.00  0.00    -0.154 A  
HETATM   34  C   UNL     1      -9.491   4.667  68.707  1.00  0.00    -0.214 A  
HETATM   35  C   UNL     1      -9.122   4.486  67.382  1.00  0.00    -0.128 A  
HETATM   36  C   UNL     1      -8.835   5.589  66.578  1.00  0.00    -0.121 A  
HETATM   37 CL   UNL     1      -9.027   2.899  66.725  1.00  0.00    -0.162 Cl 
HETATM   38  C   UNL     1      -8.870   6.893  67.115  1.00  0.00    -0.120 A  
BRANCH  38  39
HETATM   39  N   UNL     1      -8.723   7.988  66.215  1.00  0.00    -0.145 NA 
HETATM   40  C   UNL     1      -9.673   8.875  65.740  1.00  0.00    -0.123 A  
HETATM   41  C   UNL     1      -9.064   9.602  64.740  1.00  0.00    -0.283 A  
HETATM   42  C   UNL     1      -7.738   9.150  64.741  1.00  0.00    -0.111 A  
HETATM   43  N   UNL     1      -7.511   8.314  65.741  1.00  0.00    -0.079 NA 
HETATM   44  C   UNL     1      -6.626   9.449  63.804  1.00  0.00    -0.095 C  
ENDBRANCH  38  39
ENDBRANCH  27  32
ENDBRANCH  26  27
ENDBRANCH  23  26
ENDBRANCH  14  17
ENDBRANCH  10  11
ENDBRANCH   6  10
ENDBRANCH   4   6
ENDBRANCH   3   4
ENDBRANCH   2   3
TORSDOF 10
ENDMDL
MODEL       44
REMARK 921   NORMALIZED FREE ENERGY PREDICTED BY IDOCK:   -6.42 KCAL/MOL
REMARK 922        TOTAL FREE ENERGY PREDICTED BY IDOCK:  -12.51 KCAL/MOL
REMARK 923 INTER-LIGAND FREE ENERGY PREDICTED BY IDOCK:   -9.94 KCAL/MOL
REMARK 924 INTRA-LIGAND FREE ENERGY PREDICTED BY IDOCK:   -2.57 KCAL/MOL
REMARK 927      BINDING AFFINITY PREDICTED BY RF-SCORE:    0.00 PKD
ROOT
HETATM    1  C   UNL     1      -8.874   5.227  70.273  1.00  0.00    -0.145 C  
HETATM    2  C   UNL     1      -8.789   3.713  70.337  1.00  0.00    -0.084 C  
ENDROOT
BRANCH   2   3
HETATM    3  O   UNL     1      -8.410   3.354  71.671  1.00  0.00    -0.064 OA 
BRANCH   3   4
HETATM    4  C   UNL     1      -9.292   2.527  72.312  1.00  0.00    -0.094 C  
HETATM    5  O   UNL     1     -10.042   1.733  71.760  1.00  0.00    -0.152 OA 
BRANCH   4   6
HETATM    6  C   UNL     1      -9.156   2.740  73.826  1.00  0.00    -0.081 C  
HETATM    7  N   UNL     1      -7.876   3.434  74.102  1.00  0.00    -0.065 NA 
HETATM    8  H2  UNL     1      -7.784   4.304  73.577  1.00  0.00     0.000 HD 
HETATM    9  H1  UNL     1      -7.786   3.575  75.108  1.00  0.00     0.000 HD 
BRANCH   6  10
HETATM   10  C   UNL     1     -10.366   3.525  74.379  1.00  0.00    -0.245 C  
BRANCH  10  11
HETATM   11  C   UNL     1     -10.643   4.890  73.763  1.00  0.00    -0.331 A  
HETATM   12  C   UNL     1     -11.619   5.113  72.786  1.00  0.00    -0.241 A  
HETATM   13  C   UNL     1     -11.813   6.402  72.233  1.00  0.00    -0.315 A  
HETATM   14  C   UNL     1     -11.042   7.520  72.620  1.00  0.00    -0.398 A  
HETATM   15  C   UNL     1     -10.124   7.282  73.659  1.00  0.00    -0.387 A  
HETATM   16  C   UNL     1      -9.924   6.003  74.209  1.00  0.00    -0.275 A  
BRANCH  14  17
HETATM   17  C   UNL     1     -11.120   8.839  71.901  1.00  0.00    -0.364 A  
HETATM   18  N   UNL     1     -12.188   9.623  72.180  1.00  0.00    -0.248 NA 
HETATM   19  C   UNL     1     -12.380  10.716  71.428  1.00  0.00    -0.350 A  
HETATM   20  N   UNL     1     -11.649  11.076  70.368  1.00  0.00    -0.312 NA 
HETATM   21  N   UNL     1     -13.480  11.498  71.716  1.00  0.00    -0.227 NA 
HETATM   22  H1  UNL     1     -13.627  12.329  71.145  1.00  0.00     0.000 HD 
HETATM   23  C   UNL     1     -10.589  10.303  70.120  1.00  0.00    -0.246 A  
HETATM   24  H2  UNL     1     -14.122  11.254  72.472  1.00  0.00     0.000 HD 
HETATM   25  C   UNL     1     -10.250   9.203  70.885  1.00  0.00    -0.351 A  
BRANCH  23  26
HETATM   26  O   UNL     1      -9.849  10.488  68.966  1.00  0.00    -0.194 OA 
BRANCH  26  27
HETATM   27  C   UNL     1      -9.584  11.850  68.548  1.00  0.00    -0.157 C  
HETATM   28  C   UNL     1      -8.094  12.245  68.395  1.00  0.00    -0.151 C  
HETATM   29  F   UNL     1      -7.224  11.338  68.890  1.00  0.00    -0.080 F  
HETATM   30  F   UNL     1      -7.870  13.410  69.072  1.00  0.00    -0.087 F  
HETATM   31  F   UNL     1      -7.730  12.500  67.114  1.00  0.00    -0.153 F  
BRANCH  27  32
HETATM   32  C   UNL     1     -10.434  12.218  67.292  1.00  0.00    -0.236 A  
HETATM   33  C   UNL     1     -10.585  11.203  66.318  1.00  0.00    -0.309 A  
HETATM   34  C   UNL     1     -11.194  11.450  65.085  1.00  0.00    -0.146 A  
HETATM   35  C   UNL     1     -11.652  12.724  64.786  1.00  0.00    -0.325 A  
HETATM   36  C   UNL     1     -11.613  13.729  65.753  1.00  0.00    -0.342 A  
HETATM   37 CL   UNL     1     -12.281  13.066  63.221  1.00  0.00    -0.589 Cl 
HETATM   38  C   UNL     1     -11.063  13.471  67.026  1.00  0.00    -0.296 A  
BRANCH  38  39
HETATM   39  N   UNL     1     -11.191  14.482  68.023  1.00  0.00    -0.279 NA 
HETATM   40  C   UNL     1     -10.540  15.698  68.138  1.00  0.00    -0.274 A  
HETATM   41  C   UNL     1     -10.861  16.197  69.381  1.00  0.00    -0.320 A  
HETATM   42  C   UNL     1     -11.769  15.268  69.905  1.00  0.00    -0.323 A  
HETATM   43  N   UNL     1     -12.087  14.344  69.012  1.00  0.00    -0.297 NA 
HETATM   44  C   UNL     1     -12.367  15.175  71.261  1.00  0.00    -0.401 C  
ENDBRANCH  38  39
ENDBRANCH  27  32
ENDBRANCH  26  27
ENDBRANCH  23  26
ENDBRANCH  14  17
ENDBRANCH  10  11
ENDBRANCH   6  10
ENDBRANCH   4   6
ENDBRANCH   3   4
ENDBRANCH   2   3
TORSDOF 10
ENDMDL
MODEL       45
REMARK 921   NORMALIZED FREE ENERGY PREDICTED BY IDOCK:   -6.41 KCAL/MOL
REMARK 922        TOTAL FREE ENERGY PREDICTED BY IDOCK:  -12.50 KCAL/MOL
REMARK 923 INTER-LIGAND FREE ENERGY PREDICTED BY IDOCK:  -10.90 KCAL/MOL
REMARK 924 INTRA-LIGAND FREE ENERGY PREDICTED BY IDOCK:   -1.59 KCAL/MOL
REMARK 927      BINDING AFFINITY PREDICTED BY RF-SCORE:    0.00 PKD
ROOT
HETATM    1  C   UNL     1      -5.716  17.107  69.625  1.00  0.00    -0.220 C  
HETATM    2  C   UNL     1      -6.214  18.481  70.039  1.00  0.00    -0.084 C  
ENDROOT
BRANCH   2   3
HETATM    3  O   UNL     1      -6.461  19.233  68.845  1.00  0.00    -0.250 OA 
BRANCH   3   4
HETATM    4  C   UNL     1      -7.772  19.569  68.644  1.00  0.00    -0.355 C  
HETATM    5  O   UNL     1      -8.695  19.291  69.398  1.00  0.00    -0.098 OA 
BRANCH   4   6
HETATM    6  C   UNL     1      -7.880  20.375  67.343  1.00  0.00    -0.324 C  
HETATM    7  N   UNL     1      -6.785  21.373  67.302  1.00  0.00    -0.669 NA 
HETATM    8  H2  UNL     1      -5.865  20.947  67.420  1.00  0.00     0.000 HD 
HETATM    9  H1  UNL     1      -6.857  21.908  66.437  1.00  0.00     0.000 HD 
BRANCH   6  10
HETATM   10  C   UNL     1      -7.850  19.439  66.115  1.00  0.00    -0.317 C  
BRANCH  10  11
HETATM   11  C   UNL     1      -8.434  18.043  66.297  1.00  0.00    -0.214 A  
HETATM   12  C   UNL     1      -7.666  16.921  66.620  1.00  0.00    -0.298 A  
HETATM   13  C   UNL     1      -8.263  15.644  66.752  1.00  0.00    -0.300 A  
HETATM   14  C   UNL     1      -9.646  15.428  66.560  1.00  0.00    -0.298 A  
HETATM   15  C   UNL     1     -10.403  16.587  66.315  1.00  0.00    -0.327 A  
HETATM   16  C   UNL     1      -9.815  17.857  66.179  1.00  0.00    -0.256 A  
BRANCH  14  17
HETATM   17  C   UNL     1     -10.246  14.049  66.515  1.00  0.00    -0.279 A  
HETATM   18  N   UNL     1     -11.233  13.844  65.611  1.00  0.00    -0.303 NA 
HETATM   19  C   UNL     1     -11.908  12.687  65.667  1.00  0.00    -0.437 A  
HETATM   20  N   UNL     1     -11.748  11.730  66.588  1.00  0.00    -0.554 NA 
HETATM   21  N   UNL     1     -12.920  12.498  64.748  1.00  0.00    -0.842 NA 
HETATM   22  H1  UNL     1     -13.434  11.619  64.791  1.00  0.00     0.000 HD 
HETATM   23  C   UNL     1     -10.757  11.941  67.458  1.00  0.00    -0.225 A  
HETATM   24  H2  UNL     1     -13.145  13.210  64.052  1.00  0.00     0.000 HD 
HETATM   25  C   UNL     1      -9.944  13.058  67.435  1.00  0.00    -0.228 A  
BRANCH  23  26
HETATM   26  O   UNL     1     -10.595  11.097  68.543  1.00  0.00    -0.173 OA 
BRANCH  26  27
HETATM   27  C   UNL     1     -10.192   9.731  68.277  1.00  0.00    -0.183 C  
HETATM   28  C   UNL     1      -8.753   9.529  67.741  1.00  0.00    -0.115 C  
HETATM   29  F   UNL     1      -8.131  10.671  67.372  1.00  0.00    -0.109 F  
HETATM   30  F   UNL     1      -8.798   8.734  66.631  1.00  0.00    -0.120 F  
HETATM   31  F   UNL     1      -7.936   8.885  68.610  1.00  0.00    -0.097 F  
BRANCH  27  32
HETATM   32  C   UNL     1     -10.510   8.813  69.499  1.00  0.00    -0.222 A  
HETATM   33  C   UNL     1     -10.892   9.470  70.693  1.00  0.00    -0.371 A  
HETATM   34  C   UNL     1     -11.058   8.776  71.895  1.00  0.00    -0.434 A  
HETATM   35  C   UNL     1     -10.830   7.409  71.938  1.00  0.00    -0.229 A  
HETATM   36  C   UNL     1     -10.548   6.708  70.766  1.00  0.00    -0.265 A  
HETATM   37 CL   UNL     1     -10.902   6.573  73.440  1.00  0.00    -0.277 Cl 
HETATM   38  C   UNL     1     -10.447   7.388  69.534  1.00  0.00    -0.232 A  
BRANCH  38  39
HETATM   39  N   UNL     1     -10.315   6.606  68.350  1.00  0.00    -0.178 NA 
HETATM   40  C   UNL     1     -11.153   6.516  67.252  1.00  0.00    -0.350 A  
HETATM   41  C   UNL     1     -10.685   5.469  66.489  1.00  0.00    -0.309 A  
HETATM   42  C   UNL     1      -9.524   5.048  67.150  1.00  0.00    -0.136 A  
HETATM   43  N   UNL     1      -9.225   5.848  68.161  1.00  0.00    -0.116 NA 
HETATM   44  C   UNL     1      -8.652   3.873  66.897  1.00  0.00    -0.107 C  
ENDBRANCH  38  39
ENDBRANCH  27  32
ENDBRANCH  26  27
ENDBRANCH  23  26
ENDBRANCH  14  17
ENDBRANCH  10  11
ENDBRANCH   6  10
ENDBRANCH   4   6
ENDBRANCH   3   4
ENDBRANCH   2   3
TORSDOF 10
ENDMDL
MODEL       46
REMARK 921   NORMALIZED FREE ENERGY PREDICTED BY IDOCK:   -6.38 KCAL/MOL
REMARK 922        TOTAL FREE ENERGY PREDICTED BY IDOCK:  -12.45 KCAL/MOL
REMARK 923 INTER-LIGAND FREE ENERGY PREDICTED BY IDOCK:  -10.53 KCAL/MOL
REMARK 924 INTRA-LIGAND FREE ENERGY PREDICTED BY IDOCK:   -1.92 KCAL/MOL
REMARK 927      BINDING AFFINITY PREDICTED BY RF-SCORE:    0.00 PKD
ROOT
HETATM    1  C   UNL     1     -10.563  19.119  67.208  1.00  0.00    -0.573 C  
HETATM    2  C   UNL     1     -10.367  17.674  66.786  1.00  0.00    -0.331 C  
ENDROOT
BRANCH   2   3
HETATM    3  O   UNL     1      -9.927  16.940  67.934  1.00  0.00    -0.259 OA 
BRANCH   3   4
HETATM    4  C   UNL     1     -10.675  15.832  68.225  1.00  0.00    -0.281 C  
HETATM    5  O   UNL     1     -11.708  15.832  68.881  1.00  0.00    -0.383 OA 
BRANCH   4   6
HETATM    6  C   UNL     1     -10.023  14.610  67.564  1.00  0.00    -0.223 C  
HETATM    7  N   UNL     1      -9.241  13.871  68.583  1.00  0.00    -0.346 NA 
HETATM    8  H2  UNL     1      -9.802  13.619  69.397  1.00  0.00     0.000 HD 
HETATM    9  H1  UNL     1      -8.807  13.059  68.144  1.00  0.00     0.000 HD 
BRANCH   6  10
HETATM   10  C   UNL     1     -11.089  13.714  66.897  1.00  0.00    -0.314 C  
BRANCH  10  11
HETATM   11  C   UNL     1     -10.936  12.209  67.077  1.00  0.00    -0.319 A  
HETATM   12  C   UNL     1     -11.397  11.515  68.200  1.00  0.00    -0.367 A  
HETATM   13  C   UNL     1     -11.203  10.116  68.321  1.00  0.00    -0.246 A  
HETATM   14  C   UNL     1     -10.536   9.354  67.337  1.00  0.00    -0.326 A  
HETATM   15  C   UNL     1     -10.156  10.065  66.185  1.00  0.00    -0.317 A  
HETATM   16  C   UNL     1     -10.342  11.454  66.061  1.00  0.00    -0.297 A  
BRANCH  14  17
HETATM   17  C   UNL     1     -10.166   7.911  67.552  1.00  0.00    -0.242 A  
HETATM   18  N   UNL     1     -10.593   7.027  66.620  1.00  0.00    -0.197 NA 
HETATM   19  C   UNL     1     -10.436   5.720  66.872  1.00  0.00    -0.285 A  
HETATM   20  N   UNL     1      -9.956   5.193  68.004  1.00  0.00    -0.154 NA 
HETATM   21  N   UNL     1     -10.888   4.831  65.918  1.00  0.00    -0.746 NA 
HETATM   22  H1  UNL     1     -10.769   3.837  66.110  1.00  0.00     0.000 HD 
HETATM   23  C   UNL     1      -9.521   6.080  68.903  1.00  0.00    -0.126 A  
HETATM   24  H2  UNL     1     -11.325   5.156  65.055  1.00  0.00     0.000 HD 
HETATM   25  C   UNL     1      -9.556   7.447  68.707  1.00  0.00    -0.147 A  
BRANCH  23  26
HETATM   26  O   UNL     1      -9.145   5.660  70.166  1.00  0.00    -0.135 OA 
BRANCH  26  27
HETATM   27  C   UNL     1     -10.188   5.497  71.159  1.00  0.00    -0.222 C  
HETATM   28  C   UNL     1      -9.819   4.665  72.414  1.00  0.00    -0.163 C  
HETATM   29  F   UNL     1      -8.644   4.005  72.318  1.00  0.00    -0.097 F  
HETATM   30  F   UNL     1     -10.782   3.719  72.619  1.00  0.00    -0.236 F  
HETATM   31  F   UNL     1      -9.783   5.395  73.556  1.00  0.00    -0.142 F  
BRANCH  27  32
HETATM   32  C   UNL     1     -10.827   6.874  71.520  1.00  0.00    -0.257 A  
HETATM   33  C   UNL     1     -12.241   6.935  71.489  1.00  0.00    -0.415 A  
HETATM   34  C   UNL     1     -12.930   8.141  71.645  1.00  0.00    -0.352 A  
HETATM   35  C   UNL     1     -12.222   9.320  71.819  1.00  0.00    -0.385 A  
HETATM   36  C   UNL     1     -10.834   9.293  71.953  1.00  0.00    -0.248 A  
HETATM   37 CL   UNL     1     -13.058  10.824  71.877  1.00  0.00    -0.599 Cl 
HETATM   38  C   UNL     1     -10.134   8.071  71.866  1.00  0.00    -0.203 A  
BRANCH  38  39
HETATM   39  N   UNL     1      -8.740   8.080  72.167  1.00  0.00    -0.141 NA 
HETATM   40  C   UNL     1      -7.667   8.441  71.372  1.00  0.00    -0.099 A  
HETATM   41  C   UNL     1      -6.531   8.067  72.056  1.00  0.00    -0.055 A  
HETATM   42  C   UNL     1      -7.007   7.575  73.278  1.00  0.00    -0.068 A  
HETATM   43  N   UNL     1      -8.314   7.751  73.395  1.00  0.00    -0.159 NA 
HETATM   44  C   UNL     1      -6.284   6.896  74.383  1.00  0.00    -0.075 C  
ENDBRANCH  38  39
ENDBRANCH  27  32
ENDBRANCH  26  27
ENDBRANCH  23  26
ENDBRANCH  14  17
ENDBRANCH  10  11
ENDBRANCH   6  10
ENDBRANCH   4   6
ENDBRANCH   3   4
ENDBRANCH   2   3
TORSDOF 10
ENDMDL
MODEL       47
REMARK 921   NORMALIZED FREE ENERGY PREDICTED BY IDOCK:   -6.38 KCAL/MOL
REMARK 922        TOTAL FREE ENERGY PREDICTED BY IDOCK:  -12.45 KCAL/MOL
REMARK 923 INTER-LIGAND FREE ENERGY PREDICTED BY IDOCK:   -9.84 KCAL/MOL
REMARK 924 INTRA-LIGAND FREE ENERGY PREDICTED BY IDOCK:   -2.61 KCAL/MOL
REMARK 927      BINDING AFFINITY PREDICTED BY RF-SCORE:    0.00 PKD
ROOT
HETATM    1  C   UNL     1     -12.416  16.077  74.544  1.00  0.00    -0.687 C  
HETATM    2  C   UNL     1     -12.602  14.942  73.553  1.00  0.00    -0.493 C  
ENDROOT
BRANCH   2   3
HETATM    3  O   UNL     1     -11.543  15.024  72.592  1.00  0.00    -0.356 OA 
BRANCH   3   4
HETATM    4  C   UNL     1     -11.827  15.792  71.495  1.00  0.00    -0.446 C  
HETATM    5  O   UNL     1     -11.459  16.946  71.328  1.00  0.00     0.028 OA 
BRANCH   4   6
HETATM    6  C   UNL     1     -12.648  14.953  70.506  1.00  0.00    -0.360 C  
HETATM    7  N   UNL     1     -14.051  15.432  70.515  1.00  0.00    -0.556 NA 
HETATM    8  H2  UNL     1     -14.121  16.433  70.328  1.00  0.00     0.000 HD 
HETATM    9  H1  UNL     1     -14.596  14.875  69.858  1.00  0.00     0.000 HD 
BRANCH   6  10
HETATM   10  C   UNL     1     -12.030  15.013  69.092  1.00  0.00    -0.308 C  
BRANCH  10  11
HETATM   11  C   UNL     1     -11.297  13.769  68.607  1.00  0.00    -0.321 A  
HETATM   12  C   UNL     1      -9.904  13.675  68.528  1.00  0.00    -0.196 A  
HETATM   13  C   UNL     1      -9.280  12.499  68.044  1.00  0.00    -0.204 A  
HETATM   14  C   UNL     1     -10.014  11.372  67.612  1.00  0.00    -0.196 A  
HETATM   15  C   UNL     1     -11.407  11.466  67.779  1.00  0.00    -0.354 A  
HETATM   16  C   UNL     1     -12.032  12.633  68.254  1.00  0.00    -0.271 A  
BRANCH  14  17
HETATM   17  C   UNL     1      -9.362  10.202  66.926  1.00  0.00    -0.158 A  
HETATM   18  N   UNL     1      -9.289  10.251  65.575  1.00  0.00    -0.184 NA 
HETATM   19  C   UNL     1      -8.880   9.152  64.925  1.00  0.00    -0.173 A  
HETATM   20  N   UNL     1      -8.601   7.970  65.486  1.00  0.00    -0.154 NA 
HETATM   21  N   UNL     1      -8.824   9.214  63.548  1.00  0.00    -0.418 NA 
HETATM   22  H1  UNL     1      -8.513   8.378  63.054  1.00  0.00     0.000 HD 
HETATM   23  C   UNL     1      -8.659   7.946  66.820  1.00  0.00    -0.131 A  
HETATM   24  H2  UNL     1      -9.082  10.063  63.044  1.00  0.00     0.000 HD 
HETATM   25  C   UNL     1      -8.984   9.046  67.590  1.00  0.00    -0.130 A  
BRANCH  23  26
HETATM   26  O   UNL     1      -8.539   6.746  67.498  1.00  0.00    -0.120 OA 
BRANCH  26  27
HETATM   27  C   UNL     1      -9.292   6.589  68.726  1.00  0.00    -0.130 C  
HETATM   28  C   UNL     1     -10.368   5.474  68.735  1.00  0.00    -0.201 C  
HETATM   29  F   UNL     1     -10.625   4.939  67.521  1.00  0.00    -0.188 F  
HETATM   30  F   UNL     1     -11.546   5.995  69.189  1.00  0.00    -0.456 F  
HETATM   31  F   UNL     1     -10.080   4.451  69.577  1.00  0.00    -0.280 F  
BRANCH  27  32
HETATM   32  C   UNL     1      -8.335   6.509  69.955  1.00  0.00    -0.134 A  
HETATM   33  C   UNL     1      -7.018   6.059  69.696  1.00  0.00    -0.067 A  
HETATM   34  C   UNL     1      -6.111   5.801  70.727  1.00  0.00    -0.030 A  
HETATM   35  C   UNL     1      -6.502   5.969  72.046  1.00  0.00    -0.054 A  
HETATM   36  C   UNL     1      -7.756   6.503  72.344  1.00  0.00    -0.096 A  
HETATM   37 CL   UNL     1      -5.436   5.525  73.323  1.00  0.00    -0.022 Cl 
HETATM   38  C   UNL     1      -8.655   6.832  71.308  1.00  0.00    -0.125 A  
BRANCH  38  39
HETATM   39  N   UNL     1      -9.854   7.518  71.659  1.00  0.00    -0.162 NA 
HETATM   40  C   UNL     1     -10.985   7.048  72.302  1.00  0.00    -0.245 A  
HETATM   41  C   UNL     1     -11.932   8.044  72.208  1.00  0.00    -0.412 A  
HETATM   42  C   UNL     1     -11.262   9.100  71.576  1.00  0.00    -0.360 A  
HETATM   43  N   UNL     1      -9.976   8.831  71.413  1.00  0.00    -0.255 NA 
HETATM   44  C   UNL     1     -11.782  10.396  71.070  1.00  0.00    -0.430 C  
ENDBRANCH  38  39
ENDBRANCH  27  32
ENDBRANCH  26  27
ENDBRANCH  23  26
ENDBRANCH  14  17
ENDBRANCH  10  11
ENDBRANCH   6  10
ENDBRANCH   4   6
ENDBRANCH   3   4
ENDBRANCH   2   3
TORSDOF 10
ENDMDL
MODEL       48
REMARK 921   NORMALIZED FREE ENERGY PREDICTED BY IDOCK:   -6.38 KCAL/MOL
REMARK 922        TOTAL FREE ENERGY PREDICTED BY IDOCK:  -12.45 KCAL/MOL
REMARK 923 INTER-LIGAND FREE ENERGY PREDICTED BY IDOCK:  -10.70 KCAL/MOL
REMARK 924 INTRA-LIGAND FREE ENERGY PREDICTED BY IDOCK:   -1.75 KCAL/MOL
REMARK 927      BINDING AFFINITY PREDICTED BY RF-SCORE:    0.00 PKD
ROOT
HETATM    1  C   UNL     1     -10.345   5.940  67.700  1.00  0.00    -0.265 C  
HETATM    2  C   UNL     1     -10.282   5.428  69.127  1.00  0.00    -0.232 C  
ENDROOT
BRANCH   2   3
HETATM    3  O   UNL     1     -11.404   5.970  69.835  1.00  0.00    -0.400 OA 
BRANCH   3   4
HETATM    4  C   UNL     1     -11.078   6.716  70.935  1.00  0.00    -0.286 C  
HETATM    5  O   UNL     1      -9.948   7.084  71.227  1.00  0.00    -0.189 OA 
BRANCH   4   6
HETATM    6  C   UNL     1     -12.362   7.035  71.711  1.00  0.00    -0.354 C  
HETATM    7  N   UNL     1     -12.001   7.654  73.008  1.00  0.00    -0.582 NA 
HETATM    8  H2  UNL     1     -11.401   8.472  72.895  1.00  0.00     0.000 HD 
HETATM    9  H1  UNL     1     -12.855   7.867  73.523  1.00  0.00     0.000 HD 
BRANCH   6  10
HETATM   10  C   UNL     1     -13.292   7.946  70.879  1.00  0.00     0.169 C  
BRANCH  10  11
HETATM   11  C   UNL     1     -13.064   9.449  70.988  1.00  0.00    -0.214 A  
HETATM   12  C   UNL     1     -12.160  10.152  70.187  1.00  0.00    -0.224 A  
HETATM   13  C   UNL     1     -11.974  11.547  70.353  1.00  0.00    -0.459 A  
HETATM   14  C   UNL     1     -12.671  12.297  71.325  1.00  0.00    -0.351 A  
HETATM   15  C   UNL     1     -13.631  11.577  72.060  1.00  0.00    -0.138 A  
HETATM   16  C   UNL     1     -13.816  10.191  71.903  1.00  0.00    -0.066 A  
BRANCH  14  17
HETATM   17  C   UNL     1     -12.338  13.733  71.626  1.00  0.00    -0.128 A  
HETATM   18  N   UNL     1     -13.142  14.373  72.507  1.00  0.00    -0.418 NA 
HETATM   19  C   UNL     1     -12.983  15.695  72.659  1.00  0.00    -0.460 A  
HETATM   20  N   UNL     1     -12.141  16.468  71.963  1.00  0.00    -0.280 NA 
HETATM   21  N   UNL     1     -13.818  16.336  73.551  1.00  0.00    -0.751 NA 
HETATM   22  H1  UNL     1     -13.698  17.342  73.667  1.00  0.00     0.000 HD 
HETATM   23  C   UNL     1     -11.343  15.816  71.114  1.00  0.00    -0.389 A  
HETATM   24  H2  UNL     1     -14.529  15.824  74.074  1.00  0.00     0.000 HD 
HETATM   25  C   UNL     1     -11.365  14.446  70.944  1.00  0.00     0.014 A  
BRANCH  23  26
HETATM   26  O   UNL     1     -10.541  16.523  70.235  1.00  0.00    -0.171 OA 
BRANCH  26  27
HETATM   27  C   UNL     1     -11.008  16.672  68.871  1.00  0.00    -0.294 C  
HETATM   28  C   UNL     1     -10.479  17.904  68.094  1.00  0.00    -0.372 C  
HETATM   29  F   UNL     1      -9.830  18.808  68.860  1.00  0.00    -0.370 F  
HETATM   30  F   UNL     1     -11.535  18.560  67.528  1.00  0.00    -0.164 F  
HETATM   31  F   UNL     1      -9.660  17.583  67.063  1.00  0.00    -0.244 F  
BRANCH  27  32
HETATM   32  C   UNL     1     -10.828  15.341  68.077  1.00  0.00    -0.288 A  
HETATM   33  C   UNL     1     -12.010  14.747  67.573  1.00  0.00    -0.239 A  
HETATM   34  C   UNL     1     -12.004  13.484  66.975  1.00  0.00    -0.440 A  
HETATM   35  C   UNL     1     -10.817  12.772  66.883  1.00  0.00    -0.253 A  
HETATM   36  C   UNL     1      -9.615  13.359  67.277  1.00  0.00    -0.234 A  
HETATM   37 CL   UNL     1     -10.826  11.164  66.271  1.00  0.00    -0.299 Cl 
HETATM   38  C   UNL     1      -9.600  14.662  67.817  1.00  0.00    -0.213 A  
BRANCH  38  39
HETATM   39  N   UNL     1      -8.333  15.270  68.056  1.00  0.00    -0.143 NA 
HETATM   40  C   UNL     1      -7.714  15.582  69.253  1.00  0.00    -0.223 A  
HETATM   41  C   UNL     1      -6.611  16.344  68.935  1.00  0.00    -0.165 A  
HETATM   42  C   UNL     1      -6.595  16.365  67.534  1.00  0.00    -0.156 A  
HETATM   43  N   UNL     1      -7.529  15.576  67.027  1.00  0.00    -0.205 NA 
HETATM   44  C   UNL     1      -5.735  17.134  66.599  1.00  0.00    -0.221 C  
ENDBRANCH  38  39
ENDBRANCH  27  32
ENDBRANCH  26  27
ENDBRANCH  23  26
ENDBRANCH  14  17
ENDBRANCH  10  11
ENDBRANCH   6  10
ENDBRANCH   4   6
ENDBRANCH   3   4
ENDBRANCH   2   3
TORSDOF 10
ENDMDL
MODEL       49
REMARK 921   NORMALIZED FREE ENERGY PREDICTED BY IDOCK:   -6.33 KCAL/MOL
REMARK 922        TOTAL FREE ENERGY PREDICTED BY IDOCK:  -12.36 KCAL/MOL
REMARK 923 INTER-LIGAND FREE ENERGY PREDICTED BY IDOCK:   -9.91 KCAL/MOL
REMARK 924 INTRA-LIGAND FREE ENERGY PREDICTED BY IDOCK:   -2.45 KCAL/MOL
REMARK 927      BINDING AFFINITY PREDICTED BY RF-SCORE:    0.00 PKD
ROOT
HETATM    1  C   UNL     1     -10.517  17.251  68.856  1.00  0.00    -0.327 C  
HETATM    2  C   UNL     1     -10.533  18.396  67.860  1.00  0.00    -0.391 C  
ENDROOT
BRANCH   2   3
HETATM    3  O   UNL     1      -9.724  19.451  68.394  1.00  0.00    -0.356 OA 
BRANCH   3   4
HETATM    4  C   UNL     1      -8.415  19.424  67.996  1.00  0.00    -0.320 C  
HETATM    5  O   UNL     1      -7.452  19.593  68.731  1.00  0.00    -0.339 OA 
BRANCH   4   6
HETATM    6  C   UNL     1      -8.364  19.114  66.494  1.00  0.00    -0.315 C  
HETATM    7  N   UNL     1      -8.346  20.389  65.739  1.00  0.00    -0.501 NA 
HETATM    8  H2  UNL     1      -7.589  21.005  66.035  1.00  0.00     0.000 HD 
HETATM    9  H1  UNL     1      -8.312  20.182  64.741  1.00  0.00     0.000 HD 
BRANCH   6  10
HETATM   10  C   UNL     1      -7.142  18.231  66.160  1.00  0.00    -0.304 C  
BRANCH  10  11
HETATM   11  C   UNL     1      -7.130  16.821  66.738  1.00  0.00    -0.270 A  
HETATM   12  C   UNL     1      -8.165  15.901  66.549  1.00  0.00    -0.307 A  
HETATM   13  C   UNL     1      -8.107  14.611  67.134  1.00  0.00    -0.213 A  
HETATM   14  C   UNL     1      -7.024  14.188  67.935  1.00  0.00    -0.173 A  
HETATM   15  C   UNL     1      -5.963  15.106  68.040  1.00  0.00    -0.159 A  
HETATM   16  C   UNL     1      -6.017  16.389  67.466  1.00  0.00    -0.183 A  
BRANCH  14  17
HETATM   17  C   UNL     1      -7.050  12.896  68.706  1.00  0.00    -0.096 A  
HETATM   18  N   UNL     1      -6.177  12.782  69.734  1.00  0.00    -0.127 NA 
HETATM   19  C   UNL     1      -6.050  11.585  70.323  1.00  0.00    -0.140 A  
HETATM   20  N   UNL     1      -6.660  10.456  69.943  1.00  0.00    -0.107 NA 
HETATM   21  N   UNL     1      -5.145  11.481  71.360  1.00  0.00    -0.244 NA 
HETATM   22  H1  UNL     1      -5.049  10.570  71.808  1.00  0.00     0.000 HD 
HETATM   23  C   UNL     1      -7.532  10.593  68.941  1.00  0.00    -0.108 A  
HETATM   24  H2  UNL     1      -4.595  12.284  71.667  1.00  0.00     0.000 HD 
HETATM   25  C   UNL     1      -7.803  11.797  68.322  1.00  0.00    -0.137 A  
BRANCH  23  26
HETATM   26  O   UNL     1      -8.108   9.474  68.366  1.00  0.00    -0.100 OA 
BRANCH  26  27
HETATM   27  C   UNL     1      -9.416   9.626  67.762  1.00  0.00    -0.127 C  
HETATM   28  C   UNL     1      -9.833   8.539  66.740  1.00  0.00    -0.257 C  
HETATM   29  F   UNL     1      -8.832   7.710  66.370  1.00  0.00    -0.127 F  
HETATM   30  F   UNL     1     -10.278   9.146  65.600  1.00  0.00    -0.344 F  
HETATM   31  F   UNL     1     -10.865   7.766  67.161  1.00  0.00    -0.379 F  
BRANCH  27  32
HETATM   32  C   UNL     1     -10.504   9.870  68.854  1.00  0.00    -0.229 A  
HETATM   33  C   UNL     1     -11.404  10.937  68.614  1.00  0.00    -0.360 A  
HETATM   34  C   UNL     1     -12.327  11.353  69.579  1.00  0.00    -0.211 A  
HETATM   35  C   UNL     1     -12.361  10.726  70.815  1.00  0.00    -0.383 A  
HETATM   36  C   UNL     1     -11.561   9.609  71.058  1.00  0.00    -0.436 A  
HETATM   37 CL   UNL     1     -13.400  11.320  72.051  1.00  0.00    -0.513 Cl 
HETATM   38  C   UNL     1     -10.675   9.137  70.066  1.00  0.00    -0.232 A  
BRANCH  38  39
HETATM   39  N   UNL     1     -10.000   7.905  70.308  1.00  0.00    -0.188 NA 
HETATM   40  C   UNL     1      -8.804   7.666  70.960  1.00  0.00    -0.142 A  
HETATM   41  C   UNL     1      -8.493   6.343  70.735  1.00  0.00    -0.135 A  
HETATM   42  C   UNL     1      -9.590   5.846  70.020  1.00  0.00    -0.163 A  
HETATM   43  N   UNL     1     -10.556   6.746  69.925  1.00  0.00    -0.211 NA 
HETATM   44  C   UNL     1      -9.788   4.526  69.368  1.00  0.00    -0.260 C  
ENDBRANCH  38  39
ENDBRANCH  27  32
ENDBRANCH  26  27
ENDBRANCH  23  26
ENDBRANCH  14  17
ENDBRANCH  10  11
ENDBRANCH   6  10
ENDBRANCH   4   6
ENDBRANCH   3   4
ENDBRANCH   2   3
TORSDOF 10
ENDMDL
MODEL       50
REMARK 921   NORMALIZED FREE ENERGY PREDICTED BY IDOCK:   -6.32 KCAL/MOL
REMARK 922        TOTAL FREE ENERGY PREDICTED BY IDOCK:  -12.36 KCAL/MOL
REMARK 923 INTER-LIGAND FREE ENERGY PREDICTED BY IDOCK:  -10.84 KCAL/MOL
REMARK 924 INTRA-LIGAND FREE ENERGY PREDICTED BY IDOCK:   -1.52 KCAL/MOL
REMARK 927      BINDING AFFINITY PREDICTED BY RF-SCORE:    0.00 PKD
ROOT
HETATM    1  C   UNL     1     -10.754  19.686  66.935  1.00  0.00    -0.570 C  
HETATM    2  C   UNL     1      -9.625  19.966  67.910  1.00  0.00    -0.375 C  
ENDROOT
BRANCH   2   3
HETATM    3  O   UNL     1      -8.511  20.462  67.158  1.00  0.00    -0.338 OA 
BRANCH   3   4
HETATM    4  C   UNL     1      -7.650  19.497  66.710  1.00  0.00    -0.249 C  
HETATM    5  O   UNL     1      -7.780  18.865  65.670  1.00  0.00    -0.478 OA 
BRANCH   4   6
HETATM    6  C   UNL     1      -6.490  19.370  67.706  1.00  0.00    -0.221 C  
HETATM    7  N   UNL     1      -6.207  20.703  68.288  1.00  0.00    -0.313 NA 
HETATM    8  H2  UNL     1      -7.035  21.128  68.707  1.00  0.00     0.000 HD 
HETATM    9  H1  UNL     1      -5.436  20.619  68.950  1.00  0.00     0.000 HD 
BRANCH   6  10
HETATM   10  C   UNL     1      -6.816  18.325  68.795  1.00  0.00    -0.268 C  
BRANCH  10  11
HETATM   11  C   UNL     1      -7.629  17.111  68.365  1.00  0.00    -0.231 A  
HETATM   12  C   UNL     1      -7.158  16.143  67.473  1.00  0.00    -0.191 A  
HETATM   13  C   UNL     1      -7.972  15.047  67.092  1.00  0.00    -0.238 A  
HETATM   14  C   UNL     1      -9.287  14.874  67.574  1.00  0.00    -0.193 A  
HETATM   15  C   UNL     1      -9.703  15.819  68.530  1.00  0.00    -0.206 A  
HETATM   16  C   UNL     1      -8.901  16.910  68.909  1.00  0.00    -0.216 A  
BRANCH  14  17
HETATM   17  C   UNL     1     -10.213  13.821  67.027  1.00  0.00    -0.254 A  
HETATM   18  N   UNL     1     -11.096  14.218  66.081  1.00  0.00    -0.319 NA 
HETATM   19  C   UNL     1     -12.048  13.353  65.705  1.00  0.00    -0.436 A  
HETATM   20  N   UNL     1     -12.259  12.142  66.233  1.00  0.00    -0.497 NA 
HETATM   21  N   UNL     1     -12.949  13.777  64.749  1.00  0.00    -0.666 NA 
HETATM   22  H1  UNL     1     -13.674  13.119  64.464  1.00  0.00     0.000 HD 
HETATM   23  C   UNL     1     -11.367  11.760  67.150  1.00  0.00    -0.322 A  
HETATM   24  H2  UNL     1     -12.892  14.712  64.343  1.00  0.00     0.000 HD 
HETATM   25  C   UNL     1     -10.297  12.539  67.547  1.00  0.00    -0.225 A  
BRANCH  23  26
HETATM   26  O   UNL     1     -11.568  10.596  67.871  1.00  0.00    -0.491 OA 
BRANCH  26  27
HETATM   27  C   UNL     1     -10.396   9.886  68.341  1.00  0.00    -0.198 C  
HETATM   28  C   UNL     1     -10.171   9.867  69.874  1.00  0.00    -0.257 C  
HETATM   29  F   UNL     1     -10.971  10.709  70.564  1.00  0.00    -0.347 F  
HETATM   30  F   UNL     1      -8.886  10.245  70.141  1.00  0.00    -0.180 F  
HETATM   31  F   UNL     1     -10.305   8.636  70.426  1.00  0.00    -0.188 F  
BRANCH  27  32
HETATM   32  C   UNL     1     -10.322   8.461  67.708  1.00  0.00    -0.297 A  
HETATM   33  C   UNL     1     -11.036   7.439  68.379  1.00  0.00     0.020 A  
HETATM   34  C   UNL     1     -10.931   6.098  68.001  1.00  0.00    -0.399 A  
HETATM   35  C   UNL     1     -10.096   5.741  66.954  1.00  0.00    -0.192 A  
HETATM   36  C   UNL     1      -9.452   6.724  66.203  1.00  0.00    -0.057 A  
HETATM   37 CL   UNL     1      -9.860   4.079  66.571  1.00  0.00    -0.216 Cl 
HETATM   38  C   UNL     1      -9.606   8.087  66.532  1.00  0.00    -0.226 A  
BRANCH  38  39
HETATM   39  N   UNL     1      -9.055   9.054  65.640  1.00  0.00    -0.215 NA 
HETATM   40  C   UNL     1      -7.751   9.497  65.513  1.00  0.00    -0.105 A  
HETATM   41  C   UNL     1      -7.787  10.580  64.662  1.00  0.00    -0.004 A  
HETATM   42  C   UNL     1      -9.127  10.661  64.261  1.00  0.00    -0.220 A  
HETATM   43  N   UNL     1      -9.833   9.639  64.718  1.00  0.00    -0.073 NA 
HETATM   44  C   UNL     1      -9.824  11.699  63.459  1.00  0.00    -0.391 C  
ENDBRANCH  38  39
ENDBRANCH  27  32
ENDBRANCH  26  27
ENDBRANCH  23  26
ENDBRANCH  14  17
ENDBRANCH  10  11
ENDBRANCH   6  10
ENDBRANCH   4   6
ENDBRANCH   3   4
ENDBRANCH   2   3
TORSDOF 10
ENDMDL
MODEL       51
REMARK 921   NORMALIZED FREE ENERGY PREDICTED BY IDOCK:   -6.32 KCAL/MOL
REMARK 922        TOTAL FREE ENERGY PREDICTED BY IDOCK:  -12.36 KCAL/MOL
REMARK 923 INTER-LIGAND FREE ENERGY PREDICTED BY IDOCK:   -9.93 KCAL/MOL
REMARK 924 INTRA-LIGAND FREE ENERGY PREDICTED BY IDOCK:   -2.43 KCAL/MOL
REMARK 927      BINDING AFFINITY PREDICTED BY RF-SCORE:    0.00 PKD
ROOT
HETATM    1  C   UNL     1      -7.543   1.948  67.378  1.00  0.00    -0.060 C  
HETATM    2  C   UNL     1      -8.024   1.940  65.938  1.00  0.00    -0.078 C  
ENDROOT
BRANCH   2   3
HETATM    3  O   UNL     1      -9.204   2.749  65.867  1.00  0.00    -0.141 OA 
BRANCH   3   4
HETATM    4  C   UNL     1      -9.038   3.945  65.224  1.00  0.00    -0.142 C  
HETATM    5  O   UNL     1      -8.170   4.186  64.396  1.00  0.00    -0.092 OA 
BRANCH   4   6
HETATM    6  C   UNL     1     -10.137   4.910  65.689  1.00  0.00    -0.127 C  
HETATM    7  N   UNL     1     -11.438   4.461  65.139  1.00  0.00    -1.054 NA 
HETATM    8  H2  UNL     1     -11.646   3.491  65.378  1.00  0.00     0.000 HD 
HETATM    9  H1  UNL     1     -12.168   5.102  65.449  1.00  0.00     0.000 HD 
BRANCH   6  10
HETATM   10  C   UNL     1     -10.166   5.005  67.230  1.00  0.00    -0.219 C  
BRANCH  10  11
HETATM   11  C   UNL     1     -10.407   6.384  67.832  1.00  0.00    -0.234 A  
HETATM   12  C   UNL     1     -10.648   6.601  69.192  1.00  0.00    -0.280 A  
HETATM   13  C   UNL     1     -10.889   7.905  69.689  1.00  0.00    -0.177 A  
HETATM   14  C   UNL     1     -10.909   9.045  68.855  1.00  0.00    -0.075 A  
HETATM   15  C   UNL     1     -10.584   8.805  67.508  1.00  0.00    -0.298 A  
HETATM   16  C   UNL     1     -10.348   7.511  67.008  1.00  0.00    -0.395 A  
BRANCH  14  17
HETATM   17  C   UNL     1     -11.349  10.396  69.350  1.00  0.00    -0.250 A  
HETATM   18  N   UNL     1     -11.944  10.436  70.565  1.00  0.00    -0.307 NA 
HETATM   19  C   UNL     1     -12.506  11.589  70.953  1.00  0.00    -0.366 A  
HETATM   20  N   UNL     1     -12.601  12.702  70.216  1.00  0.00    -0.053 NA 
HETATM   21  N   UNL     1     -13.120  11.611  72.189  1.00  0.00    -0.465 NA 
HETATM   22  H1  UNL     1     -13.548  12.488  72.484  1.00  0.00     0.000 HD 
HETATM   23  C   UNL     1     -11.991  12.650  69.029  1.00  0.00    -0.236 A  
HETATM   24  H2  UNL     1     -13.144  10.783  72.784  1.00  0.00     0.000 HD 
HETATM   25  C   UNL     1     -11.309  11.540  68.568  1.00  0.00    -0.337 A  
BRANCH  23  26
HETATM   26  O   UNL     1     -12.150  13.682  68.122  1.00  0.00    -0.359 OA 
BRANCH  26  27
HETATM   27  C   UNL     1     -11.291  13.690  66.955  1.00  0.00    -0.327 C  
HETATM   28  C   UNL     1     -11.982  13.958  65.594  1.00  0.00    -0.392 C  
HETATM   29  F   UNL     1     -13.332  13.925  65.639  1.00  0.00    -0.491 F  
HETATM   30  F   UNL     1     -11.599  12.997  64.702  1.00  0.00    -0.329 F  
HETATM   31  F   UNL     1     -11.624  15.136  65.028  1.00  0.00    -0.355 F  
BRANCH  27  32
HETATM   32  C   UNL     1     -10.050  14.606  67.187  1.00  0.00    -0.244 A  
HETATM   33  C   UNL     1     -10.314  15.986  67.362  1.00  0.00    -0.294 A  
HETATM   34  C   UNL     1      -9.285  16.930  67.430  1.00  0.00    -0.224 A  
HETATM   35  C   UNL     1      -7.966  16.521  67.307  1.00  0.00    -0.164 A  
HETATM   36  C   UNL     1      -7.657  15.163  67.232  1.00  0.00    -0.236 A  
HETATM   37 CL   UNL     1      -6.705  17.691  67.255  1.00  0.00    -0.177 Cl 
HETATM   38  C   UNL     1      -8.684  14.196  67.233  1.00  0.00    -0.218 A  
BRANCH  38  39
HETATM   39  N   UNL     1      -8.307  12.824  67.314  1.00  0.00    -0.185 NA 
HETATM   40  C   UNL     1      -7.694  12.135  68.345  1.00  0.00    -0.134 A  
HETATM   41  C   UNL     1      -7.358  10.897  67.844  1.00  0.00    -0.088 A  
HETATM   42  C   UNL     1      -7.879  10.896  66.543  1.00  0.00    -0.152 A  
HETATM   43  N   UNL     1      -8.592  11.986  66.306  1.00  0.00    -0.045 NA 
HETATM   44  C   UNL     1      -7.723   9.903  65.451  1.00  0.00    -0.130 C  
ENDBRANCH  38  39
ENDBRANCH  27  32
ENDBRANCH  26  27
ENDBRANCH  23  26
ENDBRANCH  14  17
ENDBRANCH  10  11
ENDBRANCH   6  10
ENDBRANCH   4   6
ENDBRANCH   3   4
ENDBRANCH   2   3
TORSDOF 10
ENDMDL
MODEL       52
REMARK 921   NORMALIZED FREE ENERGY PREDICTED BY IDOCK:   -6.32 KCAL/MOL
REMARK 922        TOTAL FREE ENERGY PREDICTED BY IDOCK:  -12.35 KCAL/MOL
REMARK 923 INTER-LIGAND FREE ENERGY PREDICTED BY IDOCK:   -9.52 KCAL/MOL
REMARK 924 INTRA-LIGAND FREE ENERGY PREDICTED BY IDOCK:   -2.83 KCAL/MOL
REMARK 927      BINDING AFFINITY PREDICTED BY RF-SCORE:    0.00 PKD
ROOT
HETATM    1  C   UNL     1     -11.906   6.495  70.898  1.00  0.00    -0.391 C  
HETATM    2  C   UNL     1     -11.923   6.568  72.414  1.00  0.00    -0.160 C  
ENDROOT
BRANCH   2   3
HETATM    3  O   UNL     1     -11.708   5.244  72.917  1.00  0.00    -0.295 OA 
BRANCH   3   4
HETATM    4  C   UNL     1     -10.713   5.144  73.852  1.00  0.00    -0.290 C  
HETATM    5  O   UNL     1     -10.248   6.079  74.489  1.00  0.00    -0.295 OA 
BRANCH   4   6
HETATM    6  C   UNL     1     -10.312   3.669  73.987  1.00  0.00    -0.178 C  
HETATM    7  N   UNL     1     -11.459   2.819  73.590  1.00  0.00    -0.190 NA 
HETATM    8  H2  UNL     1     -11.804   3.043  72.656  1.00  0.00     0.000 HD 
HETATM    9  H1  UNL     1     -11.192   1.838  73.680  1.00  0.00     0.000 HD 
BRANCH   6  10
HETATM   10  C   UNL     1      -9.053   3.365  73.146  1.00  0.00    -0.110 C  
BRANCH  10  11
HETATM   11  C   UNL     1      -8.947   4.051  71.789  1.00  0.00    -0.159 A  
HETATM   12  C   UNL     1      -8.226   5.229  71.574  1.00  0.00    -0.117 A  
HETATM   13  C   UNL     1      -8.186   5.833  70.294  1.00  0.00    -0.110 A  
HETATM   14  C   UNL     1      -8.865   5.297  69.178  1.00  0.00    -0.113 A  
HETATM   15  C   UNL     1      -9.514   4.070  69.407  1.00  0.00    -0.259 A  
HETATM   16  C   UNL     1      -9.562   3.468  70.677  1.00  0.00    -0.247 A  
BRANCH  14  17
HETATM   17  C   UNL     1      -8.977   6.035  67.872  1.00  0.00    -0.118 A  
HETATM   18  N   UNL     1      -9.042   5.281  66.749  1.00  0.00    -0.117 NA 
HETATM   19  C   UNL     1      -8.961   5.905  65.566  1.00  0.00    -0.050 A  
HETATM   20  N   UNL     1      -8.746   7.213  65.383  1.00  0.00    -0.033 NA 
HETATM   21  N   UNL     1      -9.016   5.122  64.431  1.00  0.00    -0.339 NA 
HETATM   22  H1  UNL     1      -8.954   5.596  63.530  1.00  0.00     0.000 HD 
HETATM   23  C   UNL     1      -8.704   7.943  66.500  1.00  0.00    -0.147 A  
HETATM   24  H2  UNL     1      -9.116   4.108  64.490  1.00  0.00     0.000 HD 
HETATM   25  C   UNL     1      -8.864   7.413  67.766  1.00  0.00    -0.128 A  
BRANCH  23  26
HETATM   26  O   UNL     1      -8.339   9.276  66.445  1.00  0.00    -0.116 OA 
BRANCH  26  27
HETATM   27  C   UNL     1      -9.156  10.228  67.170  1.00  0.00    -0.142 C  
HETATM   28  C   UNL     1      -8.400  11.240  68.067  1.00  0.00    -0.136 C  
HETATM   29  F   UNL     1      -7.088  10.962  68.238  1.00  0.00    -0.069 F  
HETATM   30  F   UNL     1      -8.963  11.240  69.312  1.00  0.00    -0.094 F  
HETATM   31  F   UNL     1      -8.490  12.521  67.633  1.00  0.00    -0.136 F  
BRANCH  27  32
HETATM   32  C   UNL     1     -10.178  10.920  66.216  1.00  0.00    -0.300 A  
HETATM   33  C   UNL     1     -10.010  10.673  64.832  1.00  0.00    -0.382 A  
HETATM   34  C   UNL     1     -10.762  11.347  63.867  1.00  0.00    -0.462 A  
HETATM   35  C   UNL     1     -11.690  12.300  64.259  1.00  0.00    -0.381 A  
HETATM   36  C   UNL     1     -11.957  12.505  65.612  1.00  0.00    -0.492 A  
HETATM   37 CL   UNL     1     -12.522  13.229  63.072  1.00  0.00    -0.161 Cl 
HETATM   38  C   UNL     1     -11.252  11.779  66.596  1.00  0.00    -0.323 A  
BRANCH  38  39
HETATM   39  N   UNL     1     -11.674  11.911  67.951  1.00  0.00    -0.487 NA 
HETATM   40  C   UNL     1     -11.721  13.036  68.755  1.00  0.00    -0.324 A  
HETATM   41  C   UNL     1     -11.996  12.593  70.031  1.00  0.00    -0.377 A  
HETATM   42  C   UNL     1     -12.183  11.212  69.886  1.00  0.00    -0.314 A  
HETATM   43  N   UNL     1     -12.158  10.850  68.613  1.00  0.00    -0.516 NA 
HETATM   44  C   UNL     1     -12.368  10.159  70.916  1.00  0.00    -0.461 C  
ENDBRANCH  38  39
ENDBRANCH  27  32
ENDBRANCH  26  27
ENDBRANCH  23  26
ENDBRANCH  14  17
ENDBRANCH  10  11
ENDBRANCH   6  10
ENDBRANCH   4   6
ENDBRANCH   3   4
ENDBRANCH   2   3
TORSDOF 10
ENDMDL
MODEL       53
REMARK 921   NORMALIZED FREE ENERGY PREDICTED BY IDOCK:   -6.30 KCAL/MOL
REMARK 922        TOTAL FREE ENERGY PREDICTED BY IDOCK:  -12.33 KCAL/MOL
REMARK 923 INTER-LIGAND FREE ENERGY PREDICTED BY IDOCK:  -10.73 KCAL/MOL
REMARK 924 INTRA-LIGAND FREE ENERGY PREDICTED BY IDOCK:   -1.60 KCAL/MOL
REMARK 927      BINDING AFFINITY PREDICTED BY RF-SCORE:    0.00 PKD
ROOT
HETATM    1  C   UNL     1     -10.527   4.376  73.824  1.00  0.00    -0.279 C  
HETATM    2  C   UNL     1     -11.508   5.147  72.960  1.00  0.00    -0.274 C  
ENDROOT
BRANCH   2   3
HETATM    3  O   UNL     1     -10.855   5.446  71.720  1.00  0.00    -0.231 OA 
BRANCH   3   4
HETATM    4  C   UNL     1     -11.229   6.634  71.151  1.00  0.00    -0.292 C  
HETATM    5  O   UNL     1     -12.382   6.977  70.932  1.00  0.00    -0.369 OA 
BRANCH   4   6
HETATM    6  C   UNL     1      -9.969   7.464  70.872  1.00  0.00    -0.184 C  
HETATM    7  N   UNL     1      -8.834   6.887  71.631  1.00  0.00    -0.129 NA 
HETATM    8  H2  UNL     1      -8.697   5.896  71.433  1.00  0.00     0.000 HD 
HETATM    9  H1  UNL     1      -7.996   7.440  71.445  1.00  0.00     0.000 HD 
BRANCH   6  10
HETATM   10  C   UNL     1      -9.677   7.522  69.357  1.00  0.00    -0.164 C  
BRANCH  10  11
HETATM   11  C   UNL     1     -10.231   8.718  68.593  1.00  0.00    -0.214 A  
HETATM   12  C   UNL     1     -10.236   8.808  67.198  1.00  0.00    -0.346 A  
HETATM   13  C   UNL     1     -10.743   9.958  66.544  1.00  0.00    -0.082 A  
HETATM   14  C   UNL     1     -11.258  11.067  67.250  1.00  0.00    -0.330 A  
HETATM   15  C   UNL     1     -11.314  10.914  68.647  1.00  0.00    -0.360 A  
HETATM   16  C   UNL     1     -10.807   9.777  69.301  1.00  0.00    -0.240 A  
BRANCH  14  17
HETATM   17  C   UNL     1     -11.620  12.358  66.566  1.00  0.00    -0.387 A  
HETATM   18  N   UNL     1     -11.780  12.312  65.223  1.00  0.00    -0.370 NA 
HETATM   19  C   UNL     1     -11.924  13.471  64.565  1.00  0.00    -0.410 A  
HETATM   20  N   UNL     1     -11.853  14.693  65.106  1.00  0.00    -0.365 NA 
HETATM   21  N   UNL     1     -12.072  13.409  63.195  1.00  0.00    -0.866 NA 
HETATM   22  H1  UNL     1     -12.182  14.291  62.694  1.00  0.00     0.000 HD 
HETATM   23  C   UNL     1     -11.716  14.718  66.435  1.00  0.00    -0.263 A  
HETATM   24  H2  UNL     1     -12.073  12.516  62.701  1.00  0.00     0.000 HD 
HETATM   25  C   UNL     1     -11.645  13.581  67.217  1.00  0.00    -0.398 A  
BRANCH  23  26
HETATM   26  O   UNL     1     -11.481  15.916  67.085  1.00  0.00    -0.054 OA 
BRANCH  26  27
HETATM   27  C   UNL     1     -10.201  16.559  66.869  1.00  0.00    -0.296 C  
HETATM   28  C   UNL     1     -10.163  18.097  67.055  1.00  0.00    -0.365 C  
HETATM   29  F   UNL     1     -11.379  18.673  67.172  1.00  0.00    -0.267 F  
HETATM   30  F   UNL     1      -9.567  18.663  65.964  1.00  0.00    -0.317 F  
HETATM   31  F   UNL     1      -9.421  18.496  68.116  1.00  0.00    -0.284 F  
BRANCH  27  32
HETATM   32  C   UNL     1      -9.075  15.831  67.668  1.00  0.00    -0.193 A  
HETATM   33  C   UNL     1      -7.795  15.803  67.063  1.00  0.00    -0.271 A  
HETATM   34  C   UNL     1      -6.742  15.059  67.602  1.00  0.00    -0.201 A  
HETATM   35  C   UNL     1      -6.946  14.309  68.750  1.00  0.00    -0.102 A  
HETATM   36  C   UNL     1      -8.160  14.385  69.432  1.00  0.00     0.180 A  
HETATM   37 CL   UNL     1      -5.694  13.286  69.342  1.00  0.00    -0.083 Cl 
HETATM   38  C   UNL     1      -9.208  15.188  68.935  1.00  0.00    -0.209 A  
BRANCH  38  39
HETATM   39  N   UNL     1     -10.365  15.352  69.750  1.00  0.00    -0.280 NA 
HETATM   40  C   UNL     1     -10.869  16.492  70.350  1.00  0.00    -0.075 A  
HETATM   41  C   UNL     1     -11.874  16.078  71.197  1.00  0.00    -0.465 A  
HETATM   42  C   UNL     1     -11.964  14.697  70.978  1.00  0.00    -0.339 A  
HETATM   43  N   UNL     1     -11.176  14.310  69.987  1.00  0.00    -0.160 NA 
HETATM   44  C   UNL     1     -12.761  13.666  71.690  1.00  0.00    -0.396 C  
ENDBRANCH  38  39
ENDBRANCH  27  32
ENDBRANCH  26  27
ENDBRANCH  23  26
ENDBRANCH  14  17
ENDBRANCH  10  11
ENDBRANCH   6  10
ENDBRANCH   4   6
ENDBRANCH   3   4
ENDBRANCH   2   3
TORSDOF 10
ENDMDL
MODEL       54
REMARK 921   NORMALIZED FREE ENERGY PREDICTED BY IDOCK:   -6.28 KCAL/MOL
REMARK 922        TOTAL FREE ENERGY PREDICTED BY IDOCK:  -12.29 KCAL/MOL
REMARK 923 INTER-LIGAND FREE ENERGY PREDICTED BY IDOCK:  -10.88 KCAL/MOL
REMARK 924 INTRA-LIGAND FREE ENERGY PREDICTED BY IDOCK:   -1.41 KCAL/MOL
REMARK 927      BINDING AFFINITY PREDICTED BY RF-SCORE:    0.00 PKD
ROOT
HETATM    1  C   UNL     1      -9.200   1.833  69.013  1.00  0.00    -0.193 C  
HETATM    2  C   UNL     1      -9.356   3.091  68.178  1.00  0.00    -0.198 C  
ENDROOT
BRANCH   2   3
HETATM    3  O   UNL     1      -9.645   4.174  69.071  1.00  0.00    -0.170 OA 
BRANCH   3   4
HETATM    4  C   UNL     1     -10.356   5.200  68.512  1.00  0.00    -0.070 C  
HETATM    5  O   UNL     1     -11.183   5.886  69.099  1.00  0.00    -0.340 OA 
BRANCH   4   6
HETATM    6  C   UNL     1      -9.918   5.364  67.051  1.00  0.00    -0.179 C  
HETATM    7  N   UNL     1     -11.109   5.660  66.220  1.00  0.00    -0.772 NA 
HETATM    8  H2  UNL     1     -11.631   6.467  66.562  1.00  0.00     0.000 HD 
HETATM    9  H1  UNL     1     -10.818   5.769  65.249  1.00  0.00     0.000 HD 
BRANCH   6  10
HETATM   10  C   UNL     1      -8.841   6.464  66.922  1.00  0.00    -0.119 C  
BRANCH  10  11
HETATM   11  C   UNL     1      -9.321   7.859  66.544  1.00  0.00    -0.255 A  
HETATM   12  C   UNL     1      -8.982   8.494  65.345  1.00  0.00    -0.150 A  
HETATM   13  C   UNL     1      -9.439   9.804  65.061  1.00  0.00    -0.337 A  
HETATM   14  C   UNL     1     -10.245  10.539  65.957  1.00  0.00    -0.310 A  
HETATM   15  C   UNL     1     -10.636   9.845  67.117  1.00  0.00    -0.295 A  
HETATM   16  C   UNL     1     -10.180   8.546  67.407  1.00  0.00    -0.329 A  
BRANCH  14  17
HETATM   17  C   UNL     1     -10.573  11.992  65.740  1.00  0.00    -0.263 A  
HETATM   18  N   UNL     1     -11.400  12.282  64.708  1.00  0.00    -0.314 NA 
HETATM   19  C   UNL     1     -11.567  13.570  64.378  1.00  0.00    -0.396 A  
HETATM   20  N   UNL     1     -10.931  14.609  64.931  1.00  0.00    -0.396 NA 
HETATM   21  N   UNL     1     -12.402  13.849  63.316  1.00  0.00    -1.148 NA 
HETATM   22  H1  UNL     1     -12.529  14.829  63.064  1.00  0.00     0.000 HD 
HETATM   23  C   UNL     1     -10.135  14.305  65.959  1.00  0.00    -0.318 A  
HETATM   24  H2  UNL     1     -12.875  13.105  62.802  1.00  0.00     0.000 HD 
HETATM   25  C   UNL     1      -9.959  13.021  66.437  1.00  0.00    -0.277 A  
BRANCH  23  26
HETATM   26  O   UNL     1      -9.314  15.273  66.510  1.00  0.00    -0.241 OA 
BRANCH  26  27
HETATM   27  C   UNL     1      -9.945  16.350  67.246  1.00  0.00    -0.258 C  
HETATM   28  C   UNL     1     -10.550  15.981  68.624  1.00  0.00    -0.266 C  
HETATM   29  F   UNL     1     -10.615  14.652  68.865  1.00  0.00    -0.223 F  
HETATM   30  F   UNL     1     -11.830  16.452  68.689  1.00  0.00    -0.330 F  
HETATM   31  F   UNL     1      -9.904  16.551  69.670  1.00  0.00    -0.229 F  
BRANCH  27  32
HETATM   32  C   UNL     1      -9.005  17.594  67.319  1.00  0.00    -0.242 A  
HETATM   33  C   UNL     1      -9.608  18.851  67.070  1.00  0.00    -0.348 A  
HETATM   34  C   UNL     1      -8.853  20.021  66.959  1.00  0.00    -0.433 A  
HETATM   35  C   UNL     1      -7.473  19.963  67.075  1.00  0.00    -0.249 A  
HETATM   36  C   UNL     1      -6.847  18.765  67.417  1.00  0.00    -0.208 A  
HETATM   37 CL   UNL     1      -6.528  21.377  66.806  1.00  0.00    -0.352 Cl 
HETATM   38  C   UNL     1      -7.606  17.591  67.601  1.00  0.00    -0.195 A  
BRANCH  38  39
HETATM   39  N   UNL     1      -6.937  16.436  68.101  1.00  0.00    -0.129 NA 
HETATM   40  C   UNL     1      -6.301  15.416  67.416  1.00  0.00    -0.035 A  
HETATM   41  C   UNL     1      -6.009  14.443  68.346  1.00  0.00    -0.104 A  
HETATM   42  C   UNL     1      -6.422  14.993  69.566  1.00  0.00    -0.146 A  
HETATM   43  N   UNL     1      -6.813  16.249  69.424  1.00  0.00    -0.211 NA 
HETATM   44  C   UNL     1      -6.500  14.377  70.915  1.00  0.00     0.143 C  
ENDBRANCH  38  39
ENDBRANCH  27  32
ENDBRANCH  26  27
ENDBRANCH  23  26
ENDBRANCH  14  17
ENDBRANCH  10  11
ENDBRANCH   6  10
ENDBRANCH   4   6
ENDBRANCH   3   4
ENDBRANCH   2   3
TORSDOF 10
ENDMDL
MODEL       55
REMARK 921   NORMALIZED FREE ENERGY PREDICTED BY IDOCK:   -6.28 KCAL/MOL
REMARK 922        TOTAL FREE ENERGY PREDICTED BY IDOCK:  -12.29 KCAL/MOL
REMARK 923 INTER-LIGAND FREE ENERGY PREDICTED BY IDOCK:   -9.49 KCAL/MOL
REMARK 924 INTRA-LIGAND FREE ENERGY PREDICTED BY IDOCK:   -2.79 KCAL/MOL
REMARK 927      BINDING AFFINITY PREDICTED BY RF-SCORE:    0.00 PKD
ROOT
HETATM    1  C   UNL     1     -10.864   6.813  68.489  1.00  0.00    -0.280 C  
HETATM    2  C   UNL     1      -9.805   5.742  68.682  1.00  0.00    -0.138 C  
ENDROOT
BRANCH   2   3
HETATM    3  O   UNL     1     -10.264   4.855  69.710  1.00  0.00    -0.252 OA 
BRANCH   3   4
HETATM    4  C   UNL     1      -9.534   4.897  70.867  1.00  0.00    -0.165 C  
HETATM    5  O   UNL     1      -8.312   4.899  70.929  1.00  0.00    -0.102 OA 
BRANCH   4   6
HETATM    6  C   UNL     1     -10.501   4.976  72.056  1.00  0.00    -0.203 C  
HETATM    7  N   UNL     1     -10.300   3.789  72.920  1.00  0.00    -0.161 NA 
HETATM    8  H2  UNL     1      -9.329   3.682  73.215  1.00  0.00     0.000 HD 
HETATM    9  H1  UNL     1     -10.943   3.841  73.710  1.00  0.00     0.000 HD 
BRANCH   6  10
HETATM   10  C   UNL     1     -10.303   6.294  72.835  1.00  0.00    -0.226 C  
BRANCH  10  11
HETATM   11  C   UNL     1     -10.584   7.589  72.083  1.00  0.00    -0.262 A  
HETATM   12  C   UNL     1      -9.601   8.316  71.405  1.00  0.00    -0.231 A  
HETATM   13  C   UNL     1      -9.918   9.528  70.744  1.00  0.00    -0.334 A  
HETATM   14  C   UNL     1     -11.222  10.071  70.737  1.00  0.00    -0.428 A  
HETATM   15  C   UNL     1     -12.203   9.277  71.359  1.00  0.00    -0.426 A  
HETATM   16  C   UNL     1     -11.893   8.076  72.020  1.00  0.00    -0.376 A  
BRANCH  14  17
HETATM   17  C   UNL     1     -11.519  11.445  70.199  1.00  0.00    -0.214 A  
HETATM   18  N   UNL     1     -12.108  12.317  71.050  1.00  0.00    -0.106 NA 
HETATM   19  C   UNL     1     -12.547  13.482  70.553  1.00  0.00    -0.241 A  
HETATM   20  N   UNL     1     -12.524  13.843  69.265  1.00  0.00    -0.148 NA 
HETATM   21  N   UNL     1     -13.157  14.356  71.430  1.00  0.00    -0.330 NA 
HETATM   22  H1  UNL     1     -13.491  15.242  71.052  1.00  0.00     0.000 HD 
HETATM   23  C   UNL     1     -11.921  12.978  68.444  1.00  0.00    -0.271 A  
HETATM   24  H2  UNL     1     -13.269  14.125  72.417  1.00  0.00     0.000 HD 
HETATM   25  C   UNL     1     -11.358  11.789  68.866  1.00  0.00    -0.326 A  
BRANCH  23  26
HETATM   26  O   UNL     1     -11.970  13.172  67.075  1.00  0.00    -0.379 OA 
BRANCH  26  27
HETATM   27  C   UNL     1     -10.745  12.981  66.325  1.00  0.00    -0.276 C  
HETATM   28  C   UNL     1     -10.900  12.760  64.799  1.00  0.00    -0.308 C  
HETATM   29  F   UNL     1     -12.171  12.546  64.394  1.00  0.00    -0.414 F  
HETATM   30  F   UNL     1     -10.184  11.656  64.434  1.00  0.00    -0.266 F  
HETATM   31  F   UNL     1     -10.401  13.775  64.052  1.00  0.00    -0.337 F  
BRANCH  27  32
HETATM   32  C   UNL     1      -9.707  14.095  66.667  1.00  0.00    -0.297 A  
HETATM   33  C   UNL     1     -10.163  15.431  66.556  1.00  0.00    -0.287 A  
HETATM   34  C   UNL     1      -9.295  16.518  66.689  1.00  0.00    -0.279 A  
HETATM   35  C   UNL     1      -7.946  16.298  66.918  1.00  0.00    -0.243 A  
HETATM   36  C   UNL     1      -7.472  15.004  67.132  1.00  0.00    -0.145 A  
HETATM   37 CL   UNL     1      -6.852  17.626  66.949  1.00  0.00    -0.196 Cl 
HETATM   38  C   UNL     1      -8.352  13.903  67.070  1.00  0.00    -0.092 A  
BRANCH  38  39
HETATM   39  N   UNL     1      -7.848  12.625  67.450  1.00  0.00    -0.170 NA 
HETATM   40  C   UNL     1      -7.949  11.407  66.803  1.00  0.00    -0.160 A  
HETATM   41  C   UNL     1      -7.484  10.456  67.684  1.00  0.00    -0.089 A  
HETATM   42  C   UNL     1      -7.046  11.193  68.792  1.00  0.00    -0.093 A  
HETATM   43  N   UNL     1      -7.111  12.496  68.564  1.00  0.00    -0.101 NA 
HETATM   44  C   UNL     1      -6.572  10.732  70.121  1.00  0.00    -0.144 C  
ENDBRANCH  38  39
ENDBRANCH  27  32
ENDBRANCH  26  27
ENDBRANCH  23  26
ENDBRANCH  14  17
ENDBRANCH  10  11
ENDBRANCH   6  10
ENDBRANCH   4   6
ENDBRANCH   3   4
ENDBRANCH   2   3
TORSDOF 10
ENDMDL
MODEL       56
REMARK 921   NORMALIZED FREE ENERGY PREDICTED BY IDOCK:   -6.27 KCAL/MOL
REMARK 922        TOTAL FREE ENERGY PREDICTED BY IDOCK:  -12.27 KCAL/MOL
REMARK 923 INTER-LIGAND FREE ENERGY PREDICTED BY IDOCK:  -10.18 KCAL/MOL
REMARK 924 INTRA-LIGAND FREE ENERGY PREDICTED BY IDOCK:   -2.09 KCAL/MOL
REMARK 927      BINDING AFFINITY PREDICTED BY RF-SCORE:    0.00 PKD
ROOT
HETATM    1  C   UNL     1     -10.774  15.605  65.117  1.00  0.00    -0.463 C  
HETATM    2  C   UNL     1      -9.505  16.159  65.739  1.00  0.00    -0.219 C  
ENDROOT
BRANCH   2   3
HETATM    3  O   UNL     1      -9.474  15.745  67.110  1.00  0.00    -0.209 OA 
BRANCH   3   4
HETATM    4  C   UNL     1      -9.263  16.757  68.007  1.00  0.00    -0.228 C  
HETATM    5  O   UNL     1      -8.365  17.585  67.936  1.00  0.00    -0.220 OA 
BRANCH   4   6
HETATM    6  C   UNL     1     -10.353  16.695  69.084  1.00  0.00    -0.326 C  
HETATM    7  N   UNL     1     -10.697  18.074  69.503  1.00  0.00    -0.061 NA 
HETATM    8  H2  UNL     1     -10.962  18.665  68.714  1.00  0.00     0.000 HD 
HETATM    9  H1  UNL     1     -11.422  18.033  70.219  1.00  0.00     0.000 HD 
BRANCH   6  10
HETATM   10  C   UNL     1     -11.590  15.927  68.568  1.00  0.00    -0.351 C  
BRANCH  10  11
HETATM   11  C   UNL     1     -11.852  14.554  69.175  1.00  0.00    -0.354 A  
HETATM   12  C   UNL     1     -12.412  14.365  70.442  1.00  0.00    -0.420 A  
HETATM   13  C   UNL     1     -12.609  13.063  70.963  1.00  0.00    -0.386 A  
HETATM   14  C   UNL     1     -12.251  11.897  70.251  1.00  0.00    -0.353 A  
HETATM   15  C   UNL     1     -11.766  12.117  68.950  1.00  0.00    -0.381 A  
HETATM   16  C   UNL     1     -11.563  13.408  68.429  1.00  0.00    -0.368 A  
BRANCH  14  17
HETATM   17  C   UNL     1     -12.286  10.529  70.877  1.00  0.00    -0.388 A  
HETATM   18  N   UNL     1     -13.310  10.272  71.725  1.00  0.00    -0.396 NA 
HETATM   19  C   UNL     1     -13.271   9.135  72.434  1.00  0.00    -0.444 A  
HETATM   20  N   UNL     1     -12.269   8.249  72.438  1.00  0.00    -0.368 NA 
HETATM   21  N   UNL     1     -14.315   8.894  73.303  1.00  0.00    -1.177 NA 
HETATM   22  H1  UNL     1     -14.286   8.029  73.842  1.00  0.00     0.000 HD 
HETATM   23  C   UNL     1     -11.278   8.508  71.582  1.00  0.00    -0.292 A  
HETATM   24  H2  UNL     1     -15.087   9.555  73.402  1.00  0.00     0.000 HD 
HETATM   25  C   UNL     1     -11.260   9.606  70.743  1.00  0.00    -0.403 A  
BRANCH  23  26
HETATM   26  O   UNL     1     -10.123   7.747  71.606  1.00  0.00    -0.181 OA 
BRANCH  26  27
HETATM   27  C   UNL     1      -8.863   8.442  71.777  1.00  0.00    -0.195 C  
HETATM   28  C   UNL     1      -7.885   7.846  72.821  1.00  0.00    -0.118 C  
HETATM   29  F   UNL     1      -8.424   6.886  73.604  1.00  0.00    -0.127 F  
HETATM   30  F   UNL     1      -7.466   8.841  73.658  1.00  0.00    -0.137 F  
HETATM   31  F   UNL     1      -6.754   7.336  72.275  1.00  0.00    -0.057 F  
BRANCH  27  32
HETATM   32  C   UNL     1      -8.182   8.700  70.397  1.00  0.00    -0.122 A  
HETATM   33  C   UNL     1      -7.437   9.898  70.280  1.00  0.00    -0.173 A  
HETATM   34  C   UNL     1      -6.905  10.318  69.058  1.00  0.00    -0.058 A  
HETATM   35  C   UNL     1      -7.118   9.560  67.917  1.00  0.00    -0.081 A  
HETATM   36  C   UNL     1      -7.760   8.325  68.005  1.00  0.00    -0.107 A  
HETATM   37 CL   UNL     1      -6.580  10.138  66.388  1.00  0.00    -0.079 Cl 
HETATM   38  C   UNL     1      -8.241   7.858  69.247  1.00  0.00    -0.128 A  
BRANCH  38  39
HETATM   39  N   UNL     1      -8.747   6.526  69.307  1.00  0.00    -0.130 NA 
HETATM   40  C   UNL     1      -9.884   5.986  68.734  1.00  0.00    -0.139 A  
HETATM   41  C   UNL     1     -10.030   4.725  69.269  1.00  0.00    -0.254 A  
HETATM   42  C   UNL     1      -8.899   4.558  70.079  1.00  0.00    -0.082 A  
HETATM   43  N   UNL     1      -8.059   5.574  69.954  1.00  0.00    -0.095 NA 
HETATM   44  C   UNL     1      -8.554   3.468  71.026  1.00  0.00    -0.111 C  
ENDBRANCH  38  39
ENDBRANCH  27  32
ENDBRANCH  26  27
ENDBRANCH  23  26
ENDBRANCH  14  17
ENDBRANCH  10  11
ENDBRANCH   6  10
ENDBRANCH   4   6
ENDBRANCH   3   4
ENDBRANCH   2   3
TORSDOF 10
ENDMDL
MODEL       57
REMARK 921   NORMALIZED FREE ENERGY PREDICTED BY IDOCK:   -6.25 KCAL/MOL
REMARK 922        TOTAL FREE ENERGY PREDICTED BY IDOCK:  -12.24 KCAL/MOL
REMARK 923 INTER-LIGAND FREE ENERGY PREDICTED BY IDOCK:   -9.54 KCAL/MOL
REMARK 924 INTRA-LIGAND FREE ENERGY PREDICTED BY IDOCK:   -2.70 KCAL/MOL
REMARK 927      BINDING AFFINITY PREDICTED BY RF-SCORE:    0.00 PKD
ROOT
HETATM    1  C   UNL     1     -10.537   7.412  67.634  1.00  0.00    -0.309 C  
HETATM    2  C   UNL     1     -10.644   5.919  67.887  1.00  0.00    -0.251 C  
ENDROOT
BRANCH   2   3
HETATM    3  O   UNL     1     -10.891   5.730  69.285  1.00  0.00    -0.311 OA 
BRANCH   3   4
HETATM    4  C   UNL     1     -10.161   4.727  69.864  1.00  0.00    -0.229 C  
HETATM    5  O   UNL     1      -9.710   3.754  69.274  1.00  0.00    -0.176 OA 
BRANCH   4   6
HETATM    6  C   UNL     1      -9.977   5.048  71.353  1.00  0.00    -0.193 C  
HETATM    7  N   UNL     1     -10.119   3.799  72.137  1.00  0.00    -0.169 NA 
HETATM    8  H2  UNL     1      -9.487   3.065  71.816  1.00  0.00     0.000 HD 
HETATM    9  H1  UNL     1      -9.997   4.013  73.126  1.00  0.00     0.000 HD 
BRANCH   6  10
HETATM   10  C   UNL     1      -8.614   5.731  71.601  1.00  0.00    -0.132 C  
BRANCH  10  11
HETATM   11  C   UNL     1      -8.382   7.076  70.925  1.00  0.00    -0.129 A  
HETATM   12  C   UNL     1      -9.123   8.225  71.218  1.00  0.00    -0.202 A  
HETATM   13  C   UNL     1      -8.877   9.443  70.537  1.00  0.00    -0.287 A  
HETATM   14  C   UNL     1      -7.892   9.566  69.533  1.00  0.00    -0.103 A  
HETATM   15  C   UNL     1      -7.110   8.417  69.318  1.00  0.00    -0.062 A  
HETATM   16  C   UNL     1      -7.353   7.204  69.988  1.00  0.00    -0.080 A  
BRANCH  14  17
HETATM   17  C   UNL     1      -7.759  10.801  68.683  1.00  0.00    -0.114 A  
HETATM   18  N   UNL     1      -6.657  10.887  67.902  1.00  0.00    -0.062 NA 
HETATM   19  C   UNL     1      -6.420  12.047  67.273  1.00  0.00    -0.149 A  
HETATM   20  N   UNL     1      -7.139  13.168  67.400  1.00  0.00    -0.143 NA 
HETATM   21  N   UNL     1      -5.286  12.123  66.490  1.00  0.00    -0.450 NA 
HETATM   22  H1  UNL     1      -5.106  13.006  66.012  1.00  0.00     0.000 HD 
HETATM   23  C   UNL     1      -8.232  13.058  68.159  1.00  0.00    -0.157 A  
HETATM   24  H2  UNL     1      -4.653  11.329  66.393  1.00  0.00     0.000 HD 
HETATM   25  C   UNL     1      -8.616  11.886  68.781  1.00  0.00     0.046 A  
BRANCH  23  26
HETATM   26  O   UNL     1      -8.967  14.184  68.484  1.00  0.00    -0.189 OA 
BRANCH  26  27
HETATM   27  C   UNL     1     -10.410  14.059  68.520  1.00  0.00    -0.247 C  
HETATM   28  C   UNL     1     -11.162  15.025  69.470  1.00  0.00    -0.276 C  
HETATM   29  F   UNL     1     -10.360  15.708  70.316  1.00  0.00    -0.291 F  
HETATM   30  F   UNL     1     -12.024  14.304  70.247  1.00  0.00    -0.305 F  
HETATM   31  F   UNL     1     -11.934  15.930  68.822  1.00  0.00    -0.382 F  
BRANCH  27  32
HETATM   32  C   UNL     1     -11.001  14.059  67.076  1.00  0.00    -0.302 A  
HETATM   33  C   UNL     1     -11.931  13.033  66.779  1.00  0.00    -0.434 A  
HETATM   34  C   UNL     1     -12.418  12.834  65.484  1.00  0.00    -0.419 A  
HETATM   35  C   UNL     1     -11.976  13.643  64.449  1.00  0.00    -0.437 A  
HETATM   36  C   UNL     1     -11.137  14.725  64.714  1.00  0.00    -0.393 A  
HETATM   37 CL   UNL     1     -12.469  13.317  62.833  1.00  0.00     0.053 Cl 
HETATM   38  C   UNL     1     -10.694  14.979  66.029  1.00  0.00    -0.326 A  
BRANCH  38  39
HETATM   39  N   UNL     1      -9.971  16.184  66.267  1.00  0.00    -0.296 NA 
HETATM   40  C   UNL     1      -8.618  16.442  66.140  1.00  0.00    -0.308 A  
HETATM   41  C   UNL     1      -8.403  17.686  66.693  1.00  0.00    -0.288 A  
HETATM   42  C   UNL     1      -9.683  18.135  67.044  1.00  0.00    -0.307 A  
HETATM   43  N   UNL     1     -10.622  17.301  66.625  1.00  0.00    -0.236 NA 
HETATM   44  C   UNL     1     -10.099  19.341  67.804  1.00  0.00    -0.488 C  
ENDBRANCH  38  39
ENDBRANCH  27  32
ENDBRANCH  26  27
ENDBRANCH  23  26
ENDBRANCH  14  17
ENDBRANCH  10  11
ENDBRANCH   6  10
ENDBRANCH   4   6
ENDBRANCH   3   4
ENDBRANCH   2   3
TORSDOF 10
ENDMDL
MODEL       58
REMARK 921   NORMALIZED FREE ENERGY PREDICTED BY IDOCK:   -6.24 KCAL/MOL
REMARK 922        TOTAL FREE ENERGY PREDICTED BY IDOCK:  -12.23 KCAL/MOL
REMARK 923 INTER-LIGAND FREE ENERGY PREDICTED BY IDOCK:   -9.82 KCAL/MOL
REMARK 924 INTRA-LIGAND FREE ENERGY PREDICTED BY IDOCK:   -2.41 KCAL/MOL
REMARK 927      BINDING AFFINITY PREDICTED BY RF-SCORE:    0.00 PKD
ROOT
HETATM    1  C   UNL     1     -10.620   3.862  62.404  1.00  0.00    -0.204 C  
HETATM    2  C   UNL     1     -10.050   3.149  63.617  1.00  0.00    -0.174 C  
ENDROOT
BRANCH   2   3
HETATM    3  O   UNL     1     -10.440   3.888  64.781  1.00  0.00    -0.213 OA 
BRANCH   3   4
HETATM    4  C   UNL     1      -9.435   4.614  65.360  1.00  0.00    -0.171 C  
HETATM    5  O   UNL     1      -8.399   4.952  64.803  1.00  0.00    -0.123 OA 
BRANCH   4   6
HETATM    6  C   UNL     1      -9.841   4.956  66.800  1.00  0.00    -0.200 C  
HETATM    7  N   UNL     1      -8.626   5.300  67.574  1.00  0.00    -0.105 NA 
HETATM    8  H2  UNL     1      -8.083   6.045  67.136  1.00  0.00     0.000 HD 
HETATM    9  H1  UNL     1      -8.896   5.528  68.531  1.00  0.00     0.000 HD 
BRANCH   6  10
HETATM   10  C   UNL     1     -10.878   6.100  66.818  1.00  0.00    -0.360 C  
BRANCH  10  11
HETATM   11  C   UNL     1     -10.336   7.522  66.888  1.00  0.00    -0.379 A  
HETATM   12  C   UNL     1      -9.592   8.115  65.864  1.00  0.00    -0.011 A  
HETATM   13  C   UNL     1      -9.093   9.434  65.998  1.00  0.00    -0.228 A  
HETATM   14  C   UNL     1      -9.305  10.213  67.157  1.00  0.00    -0.176 A  
HETATM   15  C   UNL     1     -10.124   9.620  68.135  1.00  0.00    -0.205 A  
HETATM   16  C   UNL     1     -10.618   8.309  68.009  1.00  0.00    -0.188 A  
BRANCH  14  17
HETATM   17  C   UNL     1      -8.620  11.535  67.375  1.00  0.00    -0.145 A  
HETATM   18  N   UNL     1      -7.310  11.605  67.041  1.00  0.00    -0.142 NA 
HETATM   19  C   UNL     1      -6.629  12.706  67.388  1.00  0.00    -0.144 A  
HETATM   20  N   UNL     1      -7.107  13.729  68.106  1.00  0.00    -0.102 NA 
HETATM   21  N   UNL     1      -5.291  12.756  67.053  1.00  0.00    -0.344 NA 
HETATM   22  H1  UNL     1      -4.773  13.593  67.317  1.00  0.00     0.000 HD 
HETATM   23  C   UNL     1      -8.405  13.652  68.408  1.00  0.00    -0.147 A  
HETATM   24  H2  UNL     1      -4.838  11.986  66.560  1.00  0.00     0.000 HD 
HETATM   25  C   UNL     1      -9.219  12.603  68.024  1.00  0.00    -0.208 A  
BRANCH  23  26
HETATM   26  O   UNL     1      -8.972  14.573  69.271  1.00  0.00    -0.037 OA 
BRANCH  26  27
HETATM   27  C   UNL     1     -10.312  15.036  68.975  1.00  0.00    -0.243 C  
HETATM   28  C   UNL     1     -11.209  15.375  70.192  1.00  0.00    -0.302 C  
HETATM   29  F   UNL     1     -10.704  14.979  71.382  1.00  0.00    -0.280 F  
HETATM   30  F   UNL     1     -12.412  14.744  70.050  1.00  0.00    -0.346 F  
HETATM   31  F   UNL     1     -11.505  16.694  70.296  1.00  0.00    -0.288 F  
BRANCH  27  32
HETATM   32  C   UNL     1     -10.279  16.183  67.917  1.00  0.00    -0.261 A  
HETATM   33  C   UNL     1      -9.677  17.396  68.327  1.00  0.00    -0.299 A  
HETATM   34  C   UNL     1      -9.715  18.544  67.530  1.00  0.00    -0.318 A  
HETATM   35  C   UNL     1     -10.373  18.513  66.311  1.00  0.00    -0.427 A  
HETATM   36  C   UNL     1     -10.895  17.315  65.824  1.00  0.00    -0.023 A  
HETATM   37 CL   UNL     1     -10.540  19.957  65.388  1.00  0.00    -0.385 Cl 
HETATM   38  C   UNL     1     -10.801  16.133  66.590  1.00  0.00    -0.149 A  
BRANCH  38  39
HETATM   39  N   UNL     1     -11.208  14.911  65.980  1.00  0.00    -0.338 NA 
HETATM   40  C   UNL     1     -12.279  14.088  66.279  1.00  0.00    -0.462 A  
HETATM   41  C   UNL     1     -12.104  12.936  65.545  1.00  0.00    -0.507 A  
HETATM   42  C   UNL     1     -10.960  13.185  64.774  1.00  0.00    -0.336 A  
HETATM   43  N   UNL     1     -10.541  14.432  64.919  1.00  0.00    -0.429 NA 
HETATM   44  C   UNL     1     -10.187  12.278  63.889  1.00  0.00    -0.421 C  
ENDBRANCH  38  39
ENDBRANCH  27  32
ENDBRANCH  26  27
ENDBRANCH  23  26
ENDBRANCH  14  17
ENDBRANCH  10  11
ENDBRANCH   6  10
ENDBRANCH   4   6
ENDBRANCH   3   4
ENDBRANCH   2   3
TORSDOF 10
ENDMDL
MODEL       59
REMARK 921   NORMALIZED FREE ENERGY PREDICTED BY IDOCK:   -6.23 KCAL/MOL
REMARK 922        TOTAL FREE ENERGY PREDICTED BY IDOCK:  -12.22 KCAL/MOL
REMARK 923 INTER-LIGAND FREE ENERGY PREDICTED BY IDOCK:  -10.75 KCAL/MOL
REMARK 924 INTRA-LIGAND FREE ENERGY PREDICTED BY IDOCK:   -1.47 KCAL/MOL
REMARK 927      BINDING AFFINITY PREDICTED BY RF-SCORE:    0.00 PKD
ROOT
HETATM    1  C   UNL     1      -9.826   3.748  72.232  1.00  0.00    -0.231 C  
HETATM    2  C   UNL     1      -9.887   4.006  70.737  1.00  0.00    -0.163 C  
ENDROOT
BRANCH   2   3
HETATM    3  O   UNL     1      -9.373   2.845  70.074  1.00  0.00    -0.137 OA 
BRANCH   3   4
HETATM    4  C   UNL     1      -9.040   3.039  68.760  1.00  0.00    -0.152 C  
HETATM    5  O   UNL     1      -9.595   2.509  67.807  1.00  0.00    -0.168 OA 
BRANCH   4   6
HETATM    6  C   UNL     1      -7.888   4.050  68.688  1.00  0.00    -0.068 C  
HETATM    7  N   UNL     1      -6.635   3.385  69.116  1.00  0.00    -0.033 NA 
HETATM    8  H2  UNL     1      -6.442   2.538  68.582  1.00  0.00     0.000 HD 
HETATM    9  H1  UNL     1      -5.870   4.057  69.069  1.00  0.00     0.000 HD 
BRANCH   6  10
HETATM   10  C   UNL     1      -7.768   4.643  67.267  1.00  0.00    -0.090 C  
BRANCH  10  11
HETATM   11  C   UNL     1      -8.435   5.990  67.023  1.00  0.00    -0.108 A  
HETATM   12  C   UNL     1      -9.717   6.311  67.480  1.00  0.00    -0.129 A  
HETATM   13  C   UNL     1     -10.294   7.574  67.199  1.00  0.00    -0.384 A  
HETATM   14  C   UNL     1      -9.626   8.565  66.447  1.00  0.00    -0.314 A  
HETATM   15  C   UNL     1      -8.309   8.243  66.070  1.00  0.00    -0.130 A  
HETATM   16  C   UNL     1      -7.733   6.989  66.342  1.00  0.00    -0.104 A  
BRANCH  14  17
HETATM   17  C   UNL     1     -10.308   9.826  65.991  1.00  0.00    -0.114 A  
HETATM   18  N   UNL     1     -10.096  10.204  64.708  1.00  0.00    -0.284 NA 
HETATM   19  C   UNL     1     -10.540  11.410  64.325  1.00  0.00    -0.355 A  
HETATM   20  N   UNL     1     -11.118  12.320  65.117  1.00  0.00    -0.308 NA 
HETATM   21  N   UNL     1     -10.305  11.786  63.018  1.00  0.00    -0.655 NA 
HETATM   22  H1  UNL     1     -10.642  12.703  62.727  1.00  0.00     0.000 HD 
HETATM   23  C   UNL     1     -11.337  11.921  66.373  1.00  0.00    -0.339 A  
HETATM   24  H2  UNL     1      -9.813  11.171  62.369  1.00  0.00     0.000 HD 
HETATM   25  C   UNL     1     -10.998  10.669  66.848  1.00  0.00    -0.228 A  
BRANCH  23  26
HETATM   26  O   UNL     1     -11.789  12.825  67.318  1.00  0.00    -0.368 OA 
BRANCH  26  27
HETATM   27  C   UNL     1     -10.999  12.991  68.521  1.00  0.00    -0.263 C  
HETATM   28  C   UNL     1      -9.656  13.749  68.363  1.00  0.00    -0.206 C  
HETATM   29  F   UNL     1      -9.284  13.960  67.082  1.00  0.00    -0.201 F  
HETATM   30  F   UNL     1      -8.660  13.016  68.943  1.00  0.00    -0.054 F  
HETATM   31  F   UNL     1      -9.634  14.948  68.995  1.00  0.00    -0.199 F  
BRANCH  27  32
HETATM   32  C   UNL     1     -11.873  13.557  69.683  1.00  0.00    -0.398 A  
HETATM   33  C   UNL     1     -12.256  14.916  69.575  1.00  0.00    -0.268 A  
HETATM   34  C   UNL     1     -12.910  15.582  70.615  1.00  0.00    -0.466 A  
HETATM   35  C   UNL     1     -13.184  14.912  71.797  1.00  0.00    -0.349 A  
HETATM   36  C   UNL     1     -12.913  13.548  71.910  1.00  0.00    -0.431 A  
HETATM   37 CL   UNL     1     -13.868  15.762  73.128  1.00  0.00    -0.507 Cl 
HETATM   38  C   UNL     1     -12.316  12.849  70.840  1.00  0.00    -0.275 A  
BRANCH  38  39
HETATM   39  N   UNL     1     -12.207  11.432  70.949  1.00  0.00    -0.368 NA 
HETATM   40  C   UNL     1     -11.267  10.574  70.407  1.00  0.00    -0.298 A  
HETATM   41  C   UNL     1     -11.730   9.295  70.630  1.00  0.00    -0.276 A  
HETATM   42  C   UNL     1     -12.899   9.475  71.381  1.00  0.00    -0.358 A  
HETATM   43  N   UNL     1     -13.074  10.746  71.709  1.00  0.00    -0.478 NA 
HETATM   44  C   UNL     1     -13.922   8.489  71.809  1.00  0.00    -0.491 C  
ENDBRANCH  38  39
ENDBRANCH  27  32
ENDBRANCH  26  27
ENDBRANCH  23  26
ENDBRANCH  14  17
ENDBRANCH  10  11
ENDBRANCH   6  10
ENDBRANCH   4   6
ENDBRANCH   3   4
ENDBRANCH   2   3
TORSDOF 10
ENDMDL
MODEL       60
REMARK 921   NORMALIZED FREE ENERGY PREDICTED BY IDOCK:   -6.23 KCAL/MOL
REMARK 922        TOTAL FREE ENERGY PREDICTED BY IDOCK:  -12.21 KCAL/MOL
REMARK 923 INTER-LIGAND FREE ENERGY PREDICTED BY IDOCK:   -9.54 KCAL/MOL
REMARK 924 INTRA-LIGAND FREE ENERGY PREDICTED BY IDOCK:   -2.66 KCAL/MOL
REMARK 927      BINDING AFFINITY PREDICTED BY RF-SCORE:    0.00 PKD
ROOT
HETATM    1  C   UNL     1     -10.995  15.386  64.957  1.00  0.00    -0.450 C  
HETATM    2  C   UNL     1     -12.123  14.598  64.316  1.00  0.00    -0.415 C  
ENDROOT
BRANCH   2   3
HETATM    3  O   UNL     1     -12.145  13.298  64.917  1.00  0.00    -0.358 OA 
BRANCH   3   4
HETATM    4  C   UNL     1     -12.176  12.258  64.028  1.00  0.00    -0.475 C  
HETATM    5  O   UNL     1     -13.076  12.043  63.226  1.00  0.00    -0.701 OA 
BRANCH   4   6
HETATM    6  C   UNL     1     -10.888  11.439  64.184  1.00  0.00    -0.365 C  
HETATM    7  N   UNL     1     -10.036  11.649  62.989  1.00  0.00    -0.624 NA 
HETATM    8  H2  UNL     1      -9.849  12.636  62.813  1.00  0.00     0.000 HD 
HETATM    9  H1  UNL     1      -9.180  11.104  63.093  1.00  0.00     0.000 HD 
BRANCH   6  10
HETATM   10  C   UNL     1     -10.153  11.818  65.488  1.00  0.00    -0.285 C  
BRANCH  10  11
HETATM   11  C   UNL     1     -10.455  10.974  66.720  1.00  0.00    -0.300 A  
HETATM   12  C   UNL     1     -10.178   9.606  66.806  1.00  0.00    -0.308 A  
HETATM   13  C   UNL     1     -10.505   8.870  67.971  1.00  0.00    -0.263 A  
HETATM   14  C   UNL     1     -11.127   9.459  69.093  1.00  0.00    -0.039 A  
HETATM   15  C   UNL     1     -11.319  10.850  69.008  1.00  0.00    -0.348 A  
HETATM   16  C   UNL     1     -11.001  11.586  67.853  1.00  0.00    -0.287 A  
BRANCH  14  17
HETATM   17  C   UNL     1     -11.642   8.644  70.249  1.00  0.00     0.003 A  
HETATM   18  N   UNL     1     -12.544   9.243  71.062  1.00  0.00    -0.238 NA 
HETATM   19  C   UNL     1     -12.885   8.614  72.195  1.00  0.00    -0.391 A  
HETATM   20  N   UNL     1     -12.360   7.467  72.643  1.00  0.00     0.014 NA 
HETATM   21  N   UNL     1     -13.795   9.242  73.020  1.00  0.00    -1.013 NA 
HETATM   22  H1  UNL     1     -14.054   8.764  73.883  1.00  0.00     0.000 HD 
HETATM   23  C   UNL     1     -11.488   6.882  71.819  1.00  0.00    -0.275 A  
HETATM   24  H2  UNL     1     -14.194  10.150  72.777  1.00  0.00     0.000 HD 
HETATM   25  C   UNL     1     -11.132   7.401  70.589  1.00  0.00    -0.285 A  
BRANCH  23  26
HETATM   26  O   UNL     1     -10.770   5.777  72.239  1.00  0.00    -0.215 OA 
BRANCH  26  27
HETATM   27  C   UNL     1      -9.331   5.806  72.073  1.00  0.00    -0.150 C  
HETATM   28  C   UNL     1      -8.490   5.286  73.267  1.00  0.00    -0.117 C  
HETATM   29  F   UNL     1      -9.198   5.083  74.400  1.00  0.00    -0.113 F  
HETATM   30  F   UNL     1      -7.528   6.207  73.568  1.00  0.00    -0.087 F  
HETATM   31  F   UNL     1      -7.819   4.140  72.998  1.00  0.00    -0.077 F  
BRANCH  27  32
HETATM   32  C   UNL     1      -8.917   5.152  70.719  1.00  0.00    -0.162 A  
HETATM   33  C   UNL     1      -9.699   4.053  70.289  1.00  0.00    -0.263 A  
HETATM   34  C   UNL     1      -9.345   3.288  69.174  1.00  0.00    -0.233 A  
HETATM   35  C   UNL     1      -8.189   3.591  68.470  1.00  0.00    -0.073 A  
HETATM   36  C   UNL     1      -7.443   4.723  68.799  1.00  0.00    -0.065 A  
HETATM   37 CL   UNL     1      -7.677   2.574  67.180  1.00  0.00    -0.069 Cl 
HETATM   38  C   UNL     1      -7.830   5.542  69.880  1.00  0.00    -0.082 A  
BRANCH  38  39
HETATM   39  N   UNL     1      -7.126   6.767  70.073  1.00  0.00    -0.069 NA 
HETATM   40  C   UNL     1      -5.938   7.007  70.739  1.00  0.00    -0.028 A  
HETATM   41  C   UNL     1      -5.805   8.376  70.819  1.00  0.00    -0.032 A  
HETATM   42  C   UNL     1      -6.903   8.874  70.106  1.00  0.00    -0.042 A  
HETATM   43  N   UNL     1      -7.584   7.901  69.522  1.00  0.00    -0.096 NA 
HETATM   44  C   UNL     1      -7.390  10.268  69.951  1.00  0.00    -0.166 C  
ENDBRANCH  38  39
ENDBRANCH  27  32
ENDBRANCH  26  27
ENDBRANCH  23  26
ENDBRANCH  14  17
ENDBRANCH  10  11
ENDBRANCH   6  10
ENDBRANCH   4   6
ENDBRANCH   3   4
ENDBRANCH   2   3
TORSDOF 10
ENDMDL
MODEL       61
REMARK 921   NORMALIZED FREE ENERGY PREDICTED BY IDOCK:   -6.21 KCAL/MOL
REMARK 922        TOTAL FREE ENERGY PREDICTED BY IDOCK:  -12.18 KCAL/MOL
REMARK 923 INTER-LIGAND FREE ENERGY PREDICTED BY IDOCK:   -9.86 KCAL/MOL
REMARK 924 INTRA-LIGAND FREE ENERGY PREDICTED BY IDOCK:   -2.31 KCAL/MOL
REMARK 927      BINDING AFFINITY PREDICTED BY RF-SCORE:    0.00 PKD
ROOT
HETATM    1  C   UNL     1      -6.653   3.182  72.005  1.00  0.00    -0.015 C  
HETATM    2  C   UNL     1      -6.804   4.224  73.099  1.00  0.00    -0.057 C  
ENDROOT
BRANCH   2   3
HETATM    3  O   UNL     1      -8.062   3.999  73.745  1.00  0.00    -0.086 OA 
BRANCH   3   4
HETATM    4  C   UNL     1      -8.835   5.118  73.893  1.00  0.00    -0.117 C  
HETATM    5  O   UNL     1      -8.455   6.180  74.370  1.00  0.00    -0.118 OA 
BRANCH   4   6
HETATM    6  C   UNL     1     -10.234   4.828  73.333  1.00  0.00    -0.172 C  
HETATM    7  N   UNL     1     -11.072   6.042  73.476  1.00  0.00    -0.445 NA 
HETATM    8  H2  UNL     1     -10.644   6.862  73.046  1.00  0.00     0.000 HD 
HETATM    9  H1  UNL     1     -12.002   5.848  73.103  1.00  0.00     0.000 HD 
BRANCH   6  10
HETATM   10  C   UNL     1     -10.149   4.357  71.865  1.00  0.00    -0.245 C  
BRANCH  10  11
HETATM   11  C   UNL     1      -9.992   5.437  70.802  1.00  0.00    -0.269 A  
HETATM   12  C   UNL     1      -8.799   6.131  70.577  1.00  0.00    -0.146 A  
HETATM   13  C   UNL     1      -8.721   7.143  69.589  1.00  0.00    -0.141 A  
HETATM   14  C   UNL     1      -9.826   7.513  68.792  1.00  0.00    -0.166 A  
HETATM   15  C   UNL     1     -10.988   6.744  68.986  1.00  0.00    -0.281 A  
HETATM   16  C   UNL     1     -11.071   5.741  69.968  1.00  0.00    -0.329 A  
BRANCH  14  17
HETATM   17  C   UNL     1      -9.795   8.710  67.879  1.00  0.00    -0.173 A  
HETATM   18  N   UNL     1      -8.594   9.044  67.353  1.00  0.00    -0.115 NA 
HETATM   19  C   UNL     1      -8.499  10.202  66.685  1.00  0.00    -0.126 A  
HETATM   20  N   UNL     1      -9.473  11.109  66.547  1.00  0.00    -0.188 NA 
HETATM   21  N   UNL     1      -7.265  10.535  66.165  1.00  0.00    -0.130 NA 
HETATM   22  H1  UNL     1      -7.193  11.417  65.658  1.00  0.00     0.000 HD 
HETATM   23  C   UNL     1     -10.656  10.753  67.056  1.00  0.00    -0.260 A  
HETATM   24  H2  UNL     1      -6.457   9.924  66.283  1.00  0.00     0.000 HD 
HETATM   25  C   UNL     1     -10.884   9.545  67.686  1.00  0.00    -0.253 A  
BRANCH  23  26
HETATM   26  O   UNL     1     -11.693  11.668  67.106  1.00  0.00    -0.566 OA 
BRANCH  26  27
HETATM   27  C   UNL     1     -11.358  13.071  66.973  1.00  0.00    -0.301 C  
HETATM   28  C   UNL     1     -12.138  13.865  65.895  1.00  0.00    -0.433 C  
HETATM   29  F   UNL     1     -12.870  13.097  65.059  1.00  0.00    -0.491 F  
HETATM   30  F   UNL     1     -11.250  14.551  65.117  1.00  0.00    -0.309 F  
HETATM   31  F   UNL     1     -12.966  14.808  66.410  1.00  0.00    -0.022 F  
BRANCH  27  32
HETATM   32  C   UNL     1     -11.373  13.777  68.365  1.00  0.00    -0.326 A  
HETATM   33  C   UNL     1     -12.088  13.119  69.394  1.00  0.00    -0.285 A  
HETATM   34  C   UNL     1     -12.302  13.715  70.640  1.00  0.00    -0.440 A  
HETATM   35  C   UNL     1     -11.823  14.993  70.883  1.00  0.00    -0.324 A  
HETATM   36  C   UNL     1     -11.030  15.638  69.933  1.00  0.00    -0.323 A  
HETATM   37 CL   UNL     1     -12.198  15.784  72.364  1.00  0.00    -0.514 Cl 
HETATM   38  C   UNL     1     -10.748  15.016  68.699  1.00  0.00    -0.244 A  
BRANCH  38  39
HETATM   39  N   UNL     1      -9.808  15.648  67.834  1.00  0.00    -0.216 NA 
HETATM   40  C   UNL     1      -8.539  15.243  67.460  1.00  0.00    -0.177 A  
HETATM   41  C   UNL     1      -7.972  16.303  66.788  1.00  0.00    -0.306 A  
HETATM   42  C   UNL     1      -8.991  17.262  66.729  1.00  0.00    -0.250 A  
HETATM   43  N   UNL     1     -10.132  16.788  67.205  1.00  0.00    -0.275 NA 
HETATM   44  C   UNL     1      -8.955  18.669  66.255  1.00  0.00    -0.228 C  
ENDBRANCH  38  39
ENDBRANCH  27  32
ENDBRANCH  26  27
ENDBRANCH  23  26
ENDBRANCH  14  17
ENDBRANCH  10  11
ENDBRANCH   6  10
ENDBRANCH   4   6
ENDBRANCH   3   4
ENDBRANCH   2   3
TORSDOF 10
ENDMDL
MODEL       62
REMARK 921   NORMALIZED FREE ENERGY PREDICTED BY IDOCK:   -6.20 KCAL/MOL
REMARK 922        TOTAL FREE ENERGY PREDICTED BY IDOCK:  -12.16 KCAL/MOL
REMARK 923 INTER-LIGAND FREE ENERGY PREDICTED BY IDOCK:   -9.26 KCAL/MOL
REMARK 924 INTRA-LIGAND FREE ENERGY PREDICTED BY IDOCK:   -2.90 KCAL/MOL
REMARK 927      BINDING AFFINITY PREDICTED BY RF-SCORE:    0.00 PKD
ROOT
HETATM    1  C   UNL     1      -6.677  18.756  65.544  1.00  0.00    -0.285 C  
HETATM    2  C   UNL     1      -7.215  17.447  66.093  1.00  0.00    -0.292 C  
ENDROOT
BRANCH   2   3
HETATM    3  O   UNL     1      -8.390  17.743  66.857  1.00  0.00    -0.222 OA 
BRANCH   3   4
HETATM    4  C   UNL     1      -9.468  16.947  66.579  1.00  0.00    -0.276 C  
HETATM    5  O   UNL     1      -9.921  16.739  65.462  1.00  0.00    -0.567 OA 
BRANCH   4   6
HETATM    6  C   UNL     1      -9.981  16.338  67.891  1.00  0.00    -0.241 C  
HETATM    7  N   UNL     1     -10.575  17.412  68.721  1.00  0.00    -0.324 NA 
HETATM    8  H2  UNL     1     -11.299  17.932  68.225  1.00  0.00     0.000 HD 
HETATM    9  H1  UNL     1     -10.916  17.008  69.593  1.00  0.00     0.000 HD 
BRANCH   6  10
HETATM   10  C   UNL     1     -10.990  15.204  67.610  1.00  0.00    -0.308 C  
BRANCH  10  11
HETATM   11  C   UNL     1     -10.416  13.858  67.187  1.00  0.00    -0.269 A  
HETATM   12  C   UNL     1     -10.892  13.125  66.096  1.00  0.00    -0.293 A  
HETATM   13  C   UNL     1     -10.332  11.866  65.766  1.00  0.00    -0.285 A  
HETATM   14  C   UNL     1      -9.284  11.281  66.510  1.00  0.00    -0.200 A  
HETATM   15  C   UNL     1      -8.774  12.078  67.551  1.00  0.00    -0.166 A  
HETATM   16  C   UNL     1      -9.328  13.326  67.886  1.00  0.00    -0.214 A  
BRANCH  14  17
HETATM   17  C   UNL     1      -8.820   9.869  66.276  1.00  0.00    -0.143 A  
HETATM   18  N   UNL     1      -8.779   9.447  64.990  1.00  0.00    -0.175 NA 
HETATM   19  C   UNL     1      -8.545   8.147  64.761  1.00  0.00     0.027 A  
HETATM   20  N   UNL     1      -8.418   7.197  65.695  1.00  0.00    -0.146 NA 
HETATM   21  N   UNL     1      -8.519   7.730  63.446  1.00  0.00    -0.376 NA 
HETATM   22  H1  UNL     1      -8.341   6.741  63.271  1.00  0.00     0.000 HD 
HETATM   23  C   UNL     1      -8.441   7.636  66.956  1.00  0.00    -0.125 A  
HETATM   24  H2  UNL     1      -8.671   8.385  62.678  1.00  0.00     0.000 HD 
HETATM   25  C   UNL     1      -8.589   8.965  67.301  1.00  0.00    -0.119 A  
BRANCH  23  26
HETATM   26  O   UNL     1      -8.470   6.732  68.003  1.00  0.00    -0.119 OA 
BRANCH  26  27
HETATM   27  C   UNL     1      -9.431   6.961  69.063  1.00  0.00    -0.137 C  
HETATM   28  C   UNL     1     -10.629   5.980  69.130  1.00  0.00    -0.295 C  
HETATM   29  F   UNL     1     -10.747   5.173  68.052  1.00  0.00    -0.189 F  
HETATM   30  F   UNL     1     -11.788   6.697  69.208  1.00  0.00    -0.289 F  
HETATM   31  F   UNL     1     -10.620   5.189  70.230  1.00  0.00    -0.337 F  
BRANCH  27  32
HETATM   32  C   UNL     1      -8.711   7.121  70.438  1.00  0.00    -0.150 A  
HETATM   33  C   UNL     1      -7.448   6.494  70.561  1.00  0.00    -0.090 A  
HETATM   34  C   UNL     1      -6.770   6.436  71.781  1.00  0.00    -0.063 A  
HETATM   35  C   UNL     1      -7.345   6.988  72.916  1.00  0.00    -0.073 A  
HETATM   36  C   UNL     1      -8.540   7.700  72.820  1.00  0.00    -0.177 A  
HETATM   37 CL   UNL     1      -6.578   6.802  74.445  1.00  0.00    -0.083 Cl 
HETATM   38  C   UNL     1      -9.199   7.825  71.579  1.00  0.00    -0.137 A  
BRANCH  38  39
HETATM   39  N   UNL     1     -10.328   8.693  71.509  1.00  0.00    -0.244 NA 
HETATM   40  C   UNL     1     -11.568   8.580  72.112  1.00  0.00    -0.377 A  
HETATM   41  C   UNL     1     -12.364   9.557  71.556  1.00  0.00    -0.465 A  
HETATM   42  C   UNL     1     -11.504  10.260  70.701  1.00  0.00    -0.349 A  
HETATM   43  N   UNL     1     -10.255   9.839  70.817  1.00  0.00    -0.250 NA 
HETATM   44  C   UNL     1     -11.800  11.333  69.719  1.00  0.00    -0.437 C  
ENDBRANCH  38  39
ENDBRANCH  27  32
ENDBRANCH  26  27
ENDBRANCH  23  26
ENDBRANCH  14  17
ENDBRANCH  10  11
ENDBRANCH   6  10
ENDBRANCH   4   6
ENDBRANCH   3   4
ENDBRANCH   2   3
TORSDOF 10
ENDMDL
MODEL       63
REMARK 921   NORMALIZED FREE ENERGY PREDICTED BY IDOCK:   -6.16 KCAL/MOL
REMARK 922        TOTAL FREE ENERGY PREDICTED BY IDOCK:  -12.11 KCAL/MOL
REMARK 923 INTER-LIGAND FREE ENERGY PREDICTED BY IDOCK:  -10.11 KCAL/MOL
REMARK 924 INTRA-LIGAND FREE ENERGY PREDICTED BY IDOCK:   -2.00 KCAL/MOL
REMARK 927      BINDING AFFINITY PREDICTED BY RF-SCORE:    0.00 PKD
ROOT
HETATM    1  C   UNL     1     -12.581  15.409  73.951  1.00  0.00    -0.750 C  
HETATM    2  C   UNL     1     -13.655  15.710  72.922  1.00  0.00    -0.572 C  
ENDROOT
BRANCH   2   3
HETATM    3  O   UNL     1     -13.839  14.533  72.126  1.00  0.00    -0.396 OA 
BRANCH   3   4
HETATM    4  C   UNL     1     -13.098  14.501  70.976  1.00  0.00    -0.366 C  
HETATM    5  O   UNL     1     -12.710  15.484  70.360  1.00  0.00    -0.425 OA 
BRANCH   4   6
HETATM    6  C   UNL     1     -12.812  13.037  70.615  1.00  0.00    -0.008 C  
HETATM    7  N   UNL     1     -11.413  12.922  70.139  1.00  0.00    -0.519 NA 
HETATM    8  H2  UNL     1     -10.742  13.295  70.810  1.00  0.00     0.000 HD 
HETATM    9  H1  UNL     1     -11.224  11.949  69.899  1.00  0.00     0.000 HD 
BRANCH   6  10
HETATM   10  C   UNL     1     -13.085  12.113  71.822  1.00  0.00    -0.457 C  
BRANCH  10  11
HETATM   11  C   UNL     1     -12.715  10.643  71.663  1.00  0.00    -0.531 A  
HETATM   12  C   UNL     1     -13.527   9.591  72.098  1.00  0.00    -0.535 A  
HETATM   13  C   UNL     1     -13.117   8.244  71.945  1.00  0.00    -0.367 A  
HETATM   14  C   UNL     1     -11.881   7.888  71.362  1.00  0.00    -0.328 A  
HETATM   15  C   UNL     1     -11.123   8.963  70.862  1.00  0.00    -0.328 A  
HETATM   16  C   UNL     1     -11.524  10.302  71.016  1.00  0.00    -0.386 A  
BRANCH  14  17
HETATM   17  C   UNL     1     -11.365   6.474  71.371  1.00  0.00    -0.294 A  
HETATM   18  N   UNL     1     -11.402   5.819  72.555  1.00  0.00    -0.297 NA 
HETATM   19  C   UNL     1     -10.788   4.631  72.637  1.00  0.00    -0.148 A  
HETATM   20  N   UNL     1     -10.070   4.052  71.668  1.00  0.00    -0.154 NA 
HETATM   21  N   UNL     1     -10.824   3.981  73.854  1.00  0.00    -0.241 NA 
HETATM   22  H1  UNL     1     -10.356   3.077  73.917  1.00  0.00     0.000 HD 
HETATM   23  C   UNL     1     -10.061   4.702  70.502  1.00  0.00    -0.192 A  
HETATM   24  H2  UNL     1     -11.299   4.389  74.660  1.00  0.00     0.000 HD 
HETATM   25  C   UNL     1     -10.733   5.890  70.284  1.00  0.00    -0.383 A  
BRANCH  23  26
HETATM   26  O   UNL     1      -9.233   4.279  69.478  1.00  0.00    -0.111 OA 
BRANCH  26  27
HETATM   27  C   UNL     1      -8.735   5.282  68.558  1.00  0.00    -0.097 C  
HETATM   28  C   UNL     1      -7.316   5.834  68.844  1.00  0.00    -0.083 C  
HETATM   29  F   UNL     1      -6.813   5.478  70.047  1.00  0.00    -0.049 F  
HETATM   30  F   UNL     1      -7.358   7.199  68.828  1.00  0.00    -0.084 F  
HETATM   31  F   UNL     1      -6.401   5.492  67.905  1.00  0.00    -0.035 F  
BRANCH  27  32
HETATM   32  C   UNL     1      -8.907   4.810  67.080  1.00  0.00    -0.107 A  
HETATM   33  C   UNL     1      -9.111   3.423  66.884  1.00  0.00    -0.188 A  
HETATM   34  C   UNL     1      -9.130   2.854  65.608  1.00  0.00    -0.140 A  
HETATM   35  C   UNL     1      -8.928   3.655  64.494  1.00  0.00    -0.122 A  
HETATM   36  C   UNL     1      -8.822   5.039  64.635  1.00  0.00    -0.114 A  
HETATM   37 CL   UNL     1      -8.817   2.942  62.932  1.00  0.00    -0.088 Cl 
HETATM   38  C   UNL     1      -8.871   5.631  65.914  1.00  0.00    -0.152 A  
BRANCH  38  39
HETATM   39  N   UNL     1      -8.916   7.054  65.987  1.00  0.00    -0.141 NA 
HETATM   40  C   UNL     1      -7.941   7.986  65.678  1.00  0.00    -0.114 A  
HETATM   41  C   UNL     1      -8.408   9.203  66.123  1.00  0.00    -0.123 A  
HETATM   42  C   UNL     1      -9.696   8.927  66.601  1.00  0.00    -0.237 A  
HETATM   43  N   UNL     1     -10.047   7.675  66.353  1.00  0.00    -0.114 NA 
HETATM   44  C   UNL     1     -10.652   9.797  67.332  1.00  0.00    -0.330 C  
ENDBRANCH  38  39
ENDBRANCH  27  32
ENDBRANCH  26  27
ENDBRANCH  23  26
ENDBRANCH  14  17
ENDBRANCH  10  11
ENDBRANCH   6  10
ENDBRANCH   4   6
ENDBRANCH   3   4
ENDBRANCH   2   3
TORSDOF 10
ENDMDL
MODEL       64
REMARK 921   NORMALIZED FREE ENERGY PREDICTED BY IDOCK:   -6.16 KCAL/MOL
REMARK 922        TOTAL FREE ENERGY PREDICTED BY IDOCK:  -12.11 KCAL/MOL
REMARK 923 INTER-LIGAND FREE ENERGY PREDICTED BY IDOCK:   -9.79 KCAL/MOL
REMARK 924 INTRA-LIGAND FREE ENERGY PREDICTED BY IDOCK:   -2.32 KCAL/MOL
REMARK 927      BINDING AFFINITY PREDICTED BY RF-SCORE:    0.00 PKD
ROOT
HETATM    1  C   UNL     1      -7.827   5.587  63.275  1.00  0.00    -0.095 C  
HETATM    2  C   UNL     1      -8.570   4.328  62.862  1.00  0.00    -0.101 C  
ENDROOT
BRANCH   2   3
HETATM    3  O   UNL     1      -8.129   3.263  63.713  1.00  0.00    -0.083 OA 
BRANCH   3   4
HETATM    4  C   UNL     1      -9.137   2.512  64.255  1.00  0.00    -0.121 C  
HETATM    5  O   UNL     1     -10.273   2.428  63.806  1.00  0.00    -0.147 OA 
BRANCH   4   6
HETATM    6  C   UNL     1      -8.594   1.774  65.485  1.00  0.00    -0.109 C  
HETATM    7  N   UNL     1      -7.114   1.734  65.410  1.00  0.00    -0.050 NA 
HETATM    8  H2  UNL     1      -6.705   2.663  65.302  1.00  0.00     0.000 HD 
HETATM    9  H1  UNL     1      -6.754   1.244  66.228  1.00  0.00     0.000 HD 
BRANCH   6  10
HETATM   10  C   UNL     1      -9.085   2.445  66.787  1.00  0.00    -0.118 C  
BRANCH  10  11
HETATM   11  C   UNL     1      -9.237   3.961  66.766  1.00  0.00    -0.186 A  
HETATM   12  C   UNL     1     -10.467   4.612  66.637  1.00  0.00    -0.130 A  
HETATM   13  C   UNL     1     -10.541   6.027  66.600  1.00  0.00    -0.312 A  
HETATM   14  C   UNL     1      -9.397   6.850  66.682  1.00  0.00    -0.198 A  
HETATM   15  C   UNL     1      -8.184   6.169  66.892  1.00  0.00    -0.106 A  
HETATM   16  C   UNL     1      -8.104   4.765  66.925  1.00  0.00    -0.107 A  
BRANCH  14  17
HETATM   17  C   UNL     1      -9.457   8.337  66.454  1.00  0.00    -0.221 A  
HETATM   18  N   UNL     1      -8.333   8.927  65.986  1.00  0.00    -0.119 NA 
HETATM   19  C   UNL     1      -8.295  10.266  65.943  1.00  0.00    -0.145 A  
HETATM   20  N   UNL     1      -9.248  11.091  66.391  1.00  0.00    -0.170 NA 
HETATM   21  N   UNL     1      -7.137  10.854  65.476  1.00  0.00    -0.365 NA 
HETATM   22  H1  UNL     1      -7.108  11.872  65.444  1.00  0.00     0.000 HD 
HETATM   23  C   UNL     1     -10.358  10.491  66.830  1.00  0.00    -0.239 A  
HETATM   24  H2  UNL     1      -6.341  10.291  65.174  1.00  0.00     0.000 HD 
HETATM   25  C   UNL     1     -10.534   9.120  66.836  1.00  0.00    -0.287 A  
BRANCH  23  26
HETATM   26  O   UNL     1     -11.346  11.231  67.455  1.00  0.00    -0.352 OA 
BRANCH  26  27
HETATM   27  C   UNL     1     -11.201  12.672  67.465  1.00  0.00    -0.288 C  
HETATM   28  C   UNL     1     -11.954  13.447  66.354  1.00  0.00    -0.406 C  
HETATM   29  F   UNL     1     -12.467  12.664  65.379  1.00  0.00    -0.497 F  
HETATM   30  F   UNL     1     -11.087  14.310  65.746  1.00  0.00    -0.296 F  
HETATM   31  F   UNL     1     -12.962  14.223  66.822  1.00  0.00    -0.203 F  
BRANCH  27  32
HETATM   32  C   UNL     1     -11.480  13.246  68.889  1.00  0.00    -0.342 A  
HETATM   33  C   UNL     1     -12.016  12.340  69.835  1.00  0.00    -0.377 A  
HETATM   34  C   UNL     1     -12.447  12.762  71.096  1.00  0.00    -0.335 A  
HETATM   35  C   UNL     1     -12.370  14.104  71.437  1.00  0.00    -0.344 A  
HETATM   36  C   UNL     1     -11.759  15.013  70.574  1.00  0.00    -0.344 A  
HETATM   37 CL   UNL     1     -13.022  14.649  72.934  1.00  0.00    -0.549 Cl 
HETATM   38  C   UNL     1     -11.257  14.586  69.327  1.00  0.00    -0.281 A  
BRANCH  38  39
HETATM   39  N   UNL     1     -10.505  15.520  68.556  1.00  0.00    -0.233 NA 
HETATM   40  C   UNL     1      -9.167  15.500  68.204  1.00  0.00    -0.189 A  
HETATM   41  C   UNL     1      -8.892  16.729  67.645  1.00  0.00    -0.207 A  
HETATM   42  C   UNL     1     -10.130  17.385  67.622  1.00  0.00    -0.327 A  
HETATM   43  N   UNL     1     -11.110  16.584  68.010  1.00  0.00    -0.319 NA 
HETATM   44  C   UNL     1     -10.463  18.788  67.267  1.00  0.00    -0.489 C  
ENDBRANCH  38  39
ENDBRANCH  27  32
ENDBRANCH  26  27
ENDBRANCH  23  26
ENDBRANCH  14  17
ENDBRANCH  10  11
ENDBRANCH   6  10
ENDBRANCH   4   6
ENDBRANCH   3   4
ENDBRANCH   2   3
TORSDOF 10
ENDMDL
MODEL       65
REMARK 921   NORMALIZED FREE ENERGY PREDICTED BY IDOCK:   -6.16 KCAL/MOL
REMARK 922        TOTAL FREE ENERGY PREDICTED BY IDOCK:  -12.10 KCAL/MOL
REMARK 923 INTER-LIGAND FREE ENERGY PREDICTED BY IDOCK:  -10.79 KCAL/MOL
REMARK 924 INTRA-LIGAND FREE ENERGY PREDICTED BY IDOCK:   -1.31 KCAL/MOL
REMARK 927      BINDING AFFINITY PREDICTED BY RF-SCORE:    0.00 PKD
ROOT
HETATM    1  C   UNL     1     -11.046   5.801  72.842  1.00  0.00    -0.321 C  
HETATM    2  C   UNL     1     -11.297   6.921  71.849  1.00  0.00    -0.263 C  
ENDROOT
BRANCH   2   3
HETATM    3  O   UNL     1     -10.237   6.896  70.886  1.00  0.00    -0.197 OA 
BRANCH   3   4
HETATM    4  C   UNL     1     -10.648   6.968  69.582  1.00  0.00    -0.234 C  
HETATM    5  O   UNL     1     -11.511   6.264  69.076  1.00  0.00    -0.363 OA 
BRANCH   4   6
HETATM    6  C   UNL     1      -9.875   8.095  68.884  1.00  0.00    -0.176 C  
HETATM    7  N   UNL     1      -8.447   7.711  68.786  1.00  0.00    -0.129 NA 
HETATM    8  H2  UNL     1      -8.318   6.809  68.328  1.00  0.00     0.000 HD 
HETATM    9  H1  UNL     1      -7.934   8.460  68.322  1.00  0.00     0.000 HD 
BRANCH   6  10
HETATM   10  C   UNL     1     -10.485   8.399  67.498  1.00  0.00    -0.328 C  
BRANCH  10  11
HETATM   11  C   UNL     1     -10.760   9.862  67.172  1.00  0.00    -0.276 A  
HETATM   12  C   UNL     1     -10.446  10.450  65.943  1.00  0.00    -0.196 A  
HETATM   13  C   UNL     1     -10.704  11.823  65.707  1.00  0.00    -0.328 A  
HETATM   14  C   UNL     1     -11.276  12.668  66.684  1.00  0.00    -0.346 A  
HETATM   15  C   UNL     1     -11.654  12.030  67.879  1.00  0.00    -0.405 A  
HETATM   16  C   UNL     1     -11.396  10.668  68.120  1.00  0.00    -0.354 A  
BRANCH  14  17
HETATM   17  C   UNL     1     -11.375  14.158  66.501  1.00  0.00    -0.341 A  
HETATM   18  N   UNL     1     -11.395  14.616  65.227  1.00  0.00    -0.341 NA 
HETATM   19  C   UNL     1     -11.301  15.938  65.031  1.00  0.00    -0.193 A  
HETATM   20  N   UNL     1     -11.115  16.860  65.983  1.00  0.00     0.185 NA 
HETATM   21  N   UNL     1     -11.311  16.388  63.726  1.00  0.00    -1.362 NA 
HETATM   22  H1  UNL     1     -11.239  17.394  63.577  1.00  0.00     0.000 HD 
HETATM   23  C   UNL     1     -11.118  16.392  67.234  1.00  0.00    -0.019 A  
HETATM   24  H2  UNL     1     -11.386  15.740  62.942  1.00  0.00     0.000 HD 
HETATM   25  C   UNL     1     -11.294  15.059  67.551  1.00  0.00    -0.340 A  
BRANCH  23  26
HETATM   26  O   UNL     1     -10.785  17.226  68.286  1.00  0.00    -0.373 OA 
BRANCH  26  27
HETATM   27  C   UNL     1      -9.580  18.021  68.159  1.00  0.00    -0.301 C  
HETATM   28  C   UNL     1      -9.650  19.469  68.708  1.00  0.00    -0.412 C  
HETATM   29  F   UNL     1     -10.896  19.882  69.030  1.00  0.00    -0.188 F  
HETATM   30  F   UNL     1      -9.188  20.330  67.754  1.00  0.00    -0.408 F  
HETATM   31  F   UNL     1      -8.862  19.676  69.791  1.00  0.00    -0.110 F  
BRANCH  27  32
HETATM   32  C   UNL     1      -8.341  17.237  68.694  1.00  0.00    -0.255 A  
HETATM   33  C   UNL     1      -8.598  15.957  69.240  1.00  0.00    -0.247 A  
HETATM   34  C   UNL     1      -7.602  15.218  69.884  1.00  0.00    -0.003 A  
HETATM   35  C   UNL     1      -6.328  15.748  70.016  1.00  0.00    -0.101 A  
HETATM   36  C   UNL     1      -6.006  16.961  69.408  1.00  0.00    -0.206 A  
HETATM   37 CL   UNL     1      -5.135  14.902  70.924  1.00  0.00    -0.124 Cl 
HETATM   38  C   UNL     1      -6.986  17.683  68.695  1.00  0.00    -0.237 A  
BRANCH  38  39
HETATM   39  N   UNL     1      -6.566  18.833  67.964  1.00  0.00    -0.217 NA 
HETATM   40  C   UNL     1      -6.107  20.054  68.425  1.00  0.00    -0.258 A  
HETATM   41  C   UNL     1      -6.039  20.885  67.329  1.00  0.00    -0.337 A  
HETATM   42  C   UNL     1      -6.389  20.064  66.248  1.00  0.00    -0.185 A  
HETATM   43  N   UNL     1      -6.530  18.803  66.624  1.00  0.00    -0.186 NA 
HETATM   44  C   UNL     1      -6.633  20.409  64.825  1.00  0.00    -0.314 C  
ENDBRANCH  38  39
ENDBRANCH  27  32
ENDBRANCH  26  27
ENDBRANCH  23  26
ENDBRANCH  14  17
ENDBRANCH  10  11
ENDBRANCH   6  10
ENDBRANCH   4   6
ENDBRANCH   3   4
ENDBRANCH   2   3
TORSDOF 10
ENDMDL
MODEL       66
REMARK 921   NORMALIZED FREE ENERGY PREDICTED BY IDOCK:   -6.16 KCAL/MOL
REMARK 922        TOTAL FREE ENERGY PREDICTED BY IDOCK:  -12.10 KCAL/MOL
REMARK 923 INTER-LIGAND FREE ENERGY PREDICTED BY IDOCK:   -9.86 KCAL/MOL
REMARK 924 INTRA-LIGAND FREE ENERGY PREDICTED BY IDOCK:   -2.24 KCAL/MOL
REMARK 927      BINDING AFFINITY PREDICTED BY RF-SCORE:    0.00 PKD
ROOT
HETATM    1  C   UNL     1      -6.421  19.565  65.177  1.00  0.00    -0.313 C  
HETATM    2  C   UNL     1      -7.173  18.444  65.872  1.00  0.00    -0.232 C  
ENDROOT
BRANCH   2   3
HETATM    3  O   UNL     1      -7.827  19.001  67.018  1.00  0.00    -0.236 OA 
BRANCH   3   4
HETATM    4  C   UNL     1      -9.191  19.063  66.923  1.00  0.00    -0.303 C  
HETATM    5  O   UNL     1      -9.817  19.262  65.891  1.00  0.00    -0.435 OA 
BRANCH   4   6
HETATM    6  C   UNL     1      -9.793  18.809  68.311  1.00  0.00    -0.373 C  
HETATM    7  N   UNL     1     -10.347  20.079  68.837  1.00  0.00    -0.541 NA 
HETATM    8  H2  UNL     1     -11.016  20.506  68.196  1.00  0.00     0.000 HD 
HETATM    9  H1  UNL     1     -10.747  19.910  69.759  1.00  0.00     0.000 HD 
BRANCH   6  10
HETATM   10  C   UNL     1     -10.863  17.698  68.248  1.00  0.00    -0.195 C  
BRANCH  10  11
HETATM   11  C   UNL     1     -10.436  16.361  67.656  1.00  0.00    -0.302 A  
HETATM   12  C   UNL     1     -10.731  15.967  66.347  1.00  0.00    -0.256 A  
HETATM   13  C   UNL     1     -10.328  14.699  65.861  1.00  0.00    -0.334 A  
HETATM   14  C   UNL     1      -9.623  13.769  66.656  1.00  0.00    -0.295 A  
HETATM   15  C   UNL     1      -9.271  14.225  67.939  1.00  0.00    -0.194 A  
HETATM   16  C   UNL     1      -9.673  15.481  68.429  1.00  0.00    -0.203 A  
BRANCH  14  17
HETATM   17  C   UNL     1      -9.361  12.358  66.203  1.00  0.00    -0.155 A  
HETATM   18  N   UNL     1      -9.910  11.985  65.024  1.00  0.00    -0.226 NA 
HETATM   19  C   UNL     1      -9.848  10.691  64.681  1.00  0.00    -0.321 A  
HETATM   20  N   UNL     1      -9.351   9.704  65.435  1.00  0.00    -0.241 NA 
HETATM   21  N   UNL     1     -10.424  10.323  63.482  1.00  0.00    -0.285 NA 
HETATM   22  H1  UNL     1     -10.377   9.339  63.221  1.00  0.00     0.000 HD 
HETATM   23  C   UNL     1      -8.796  10.094  66.585  1.00  0.00    -0.132 A  
HETATM   24  H2  UNL     1     -10.879  11.010  62.879  1.00  0.00     0.000 HD 
HETATM   25  C   UNL     1      -8.728  11.412  66.994  1.00  0.00    -0.160 A  
BRANCH  23  26
HETATM   26  O   UNL     1      -8.386   9.151  67.512  1.00  0.00    -0.115 OA 
BRANCH  26  27
HETATM   27  C   UNL     1      -9.389   8.603  68.402  1.00  0.00    -0.138 C  
HETATM   28  C   UNL     1     -10.001   7.239  67.991  1.00  0.00    -0.157 C  
HETATM   29  F   UNL     1      -9.687   6.843  66.738  1.00  0.00    -0.178 F  
HETATM   30  F   UNL     1     -11.363   7.328  68.042  1.00  0.00    -0.085 F  
HETATM   31  F   UNL     1      -9.676   6.225  68.831  1.00  0.00    -0.128 F  
BRANCH  27  32
HETATM   32  C   UNL     1      -8.884   8.613  69.878  1.00  0.00    -0.144 A  
HETATM   33  C   UNL     1      -7.488   8.469  70.064  1.00  0.00    -0.060 A  
HETATM   34  C   UNL     1      -6.926   8.313  71.334  1.00  0.00    -0.065 A  
HETATM   35  C   UNL     1      -7.747   8.279  72.451  1.00  0.00    -0.123 A  
HETATM   36  C   UNL     1      -9.116   8.515  72.323  1.00  0.00    -0.318 A  
HETATM   37 CL   UNL     1      -7.076   7.954  74.002  1.00  0.00    -0.148 Cl 
HETATM   38  C   UNL     1      -9.685   8.743  71.052  1.00  0.00    -0.230 A  
BRANCH  38  39
HETATM   39  N   UNL     1     -11.055   9.133  70.996  1.00  0.00    -0.278 NA 
HETATM   40  C   UNL     1     -11.611  10.369  70.718  1.00  0.00    -0.358 A  
HETATM   41  C   UNL     1     -12.955  10.265  71.001  1.00  0.00    -0.488 A  
HETATM   42  C   UNL     1     -13.133   8.921  71.355  1.00  0.00    -0.269 A  
HETATM   43  N   UNL     1     -12.023   8.223  71.180  1.00  0.00    -0.283 NA 
HETATM   44  C   UNL     1     -14.327   8.225  71.897  1.00  0.00    -0.564 C  
ENDBRANCH  38  39
ENDBRANCH  27  32
ENDBRANCH  26  27
ENDBRANCH  23  26
ENDBRANCH  14  17
ENDBRANCH  10  11
ENDBRANCH   6  10
ENDBRANCH   4   6
ENDBRANCH   3   4
ENDBRANCH   2   3
TORSDOF 10
ENDMDL
MODEL       67
REMARK 921   NORMALIZED FREE ENERGY PREDICTED BY IDOCK:   -6.15 KCAL/MOL
REMARK 922        TOTAL FREE ENERGY PREDICTED BY IDOCK:  -12.08 KCAL/MOL
REMARK 923 INTER-LIGAND FREE ENERGY PREDICTED BY IDOCK:  -10.25 KCAL/MOL
REMARK 924 INTRA-LIGAND FREE ENERGY PREDICTED BY IDOCK:   -1.83 KCAL/MOL
REMARK 927      BINDING AFFINITY PREDICTED BY RF-SCORE:    0.00 PKD
ROOT
HETATM    1  C   UNL     1      -7.374   2.246  67.168  1.00  0.00    -0.056 C  
HETATM    2  C   UNL     1      -7.817   2.550  65.748  1.00  0.00    -0.081 C  
ENDROOT
BRANCH   2   3
HETATM    3  O   UNL     1      -9.083   3.216  65.819  1.00  0.00    -0.142 OA 
BRANCH   3   4
HETATM    4  C   UNL     1      -9.098   4.473  65.278  1.00  0.00    -0.149 C  
HETATM    5  O   UNL     1      -8.266   4.913  64.495  1.00  0.00    -0.109 OA 
BRANCH   4   6
HETATM    6  C   UNL     1     -10.341   5.214  65.788  1.00  0.00    -0.049 C  
HETATM    7  N   UNL     1     -11.549   4.593  65.197  1.00  0.00    -1.055 NA 
HETATM    8  H2  UNL     1     -11.596   3.589  65.373  1.00  0.00     0.000 HD 
HETATM    9  H1  UNL     1     -12.375   5.085  65.537  1.00  0.00     0.000 HD 
BRANCH   6  10
HETATM   10  C   UNL     1     -10.387   5.206  67.332  1.00  0.00    -0.209 C  
BRANCH  10  11
HETATM   11  C   UNL     1     -10.599   6.548  68.022  1.00  0.00    -0.310 A  
HETATM   12  C   UNL     1     -10.897   6.677  69.382  1.00  0.00    -0.340 A  
HETATM   13  C   UNL     1     -11.108   7.952  69.963  1.00  0.00    -0.165 A  
HETATM   14  C   UNL     1     -11.039   9.148  69.215  1.00  0.00     0.001 A  
HETATM   15  C   UNL     1     -10.659   8.992  67.870  1.00  0.00    -0.256 A  
HETATM   16  C   UNL     1     -10.453   7.728  67.287  1.00  0.00    -0.392 A  
BRANCH  14  17
HETATM   17  C   UNL     1     -11.446  10.480  69.787  1.00  0.00    -0.294 A  
HETATM   18  N   UNL     1     -12.151  10.457  70.942  1.00  0.00    -0.341 NA 
HETATM   19  C   UNL     1     -12.681  11.607  71.380  1.00  0.00    -0.339 A  
HETATM   20  N   UNL     1     -12.641  12.782  70.740  1.00  0.00    -0.276 NA 
HETATM   21  N   UNL     1     -13.407  11.565  72.553  1.00  0.00    -0.384 NA 
HETATM   22  H1  UNL     1     -13.811  12.440  72.886  1.00  0.00     0.000 HD 
HETATM   23  C   UNL     1     -11.924  12.789  69.613  1.00  0.00    -0.288 A  
HETATM   24  H2  UNL     1     -13.536  10.693  73.066  1.00  0.00     0.000 HD 
HETATM   25  C   UNL     1     -11.266  11.680  69.118  1.00  0.00    -0.325 A  
BRANCH  23  26
HETATM   26  O   UNL     1     -11.936  13.902  68.792  1.00  0.00    -0.341 OA 
BRANCH  26  27
HETATM   27  C   UNL     1     -10.822  14.079  67.883  1.00  0.00    -0.244 C  
HETATM   28  C   UNL     1     -11.141  13.960  66.371  1.00  0.00    -0.309 C  
HETATM   29  F   UNL     1     -12.375  13.480  66.099  1.00  0.00    -0.417 F  
HETATM   30  F   UNL     1     -10.252  13.099  65.794  1.00  0.00    -0.268 F  
HETATM   31  F   UNL     1     -11.001  15.126  65.694  1.00  0.00    -0.314 F  
BRANCH  27  32
HETATM   32  C   UNL     1     -10.029  15.378  68.227  1.00  0.00    -0.214 A  
HETATM   33  C   UNL     1     -10.780  16.577  68.274  1.00  0.00    -0.345 A  
HETATM   34  C   UNL     1     -10.168  17.825  68.424  1.00  0.00    -0.384 A  
HETATM   35  C   UNL     1      -8.786  17.908  68.512  1.00  0.00    -0.289 A  
HETATM   36  C   UNL     1      -8.016  16.746  68.568  1.00  0.00    -0.235 A  
HETATM   37 CL   UNL     1      -8.019  19.448  68.561  1.00  0.00    -0.386 Cl 
HETATM   38  C   UNL     1      -8.630  15.479  68.488  1.00  0.00    -0.176 A  
BRANCH  38  39
HETATM   39  N   UNL     1      -7.815  14.330  68.708  1.00  0.00    -0.138 NA 
HETATM   40  C   UNL     1      -7.902  13.066  68.153  1.00  0.00    -0.145 A  
HETATM   41  C   UNL     1      -7.022  12.270  68.853  1.00  0.00    -0.098 A  
HETATM   42  C   UNL     1      -6.392  13.149  69.744  1.00  0.00    -0.065 A  
HETATM   43  N   UNL     1      -6.753  14.403  69.524  1.00  0.00    -0.137 NA 
HETATM   44  C   UNL     1      -5.448  12.870  70.855  1.00  0.00    -0.185 C  
ENDBRANCH  38  39
ENDBRANCH  27  32
ENDBRANCH  26  27
ENDBRANCH  23  26
ENDBRANCH  14  17
ENDBRANCH  10  11
ENDBRANCH   6  10
ENDBRANCH   4   6
ENDBRANCH   3   4
ENDBRANCH   2   3
TORSDOF 10
ENDMDL
MODEL       68
REMARK 921   NORMALIZED FREE ENERGY PREDICTED BY IDOCK:   -6.14 KCAL/MOL
REMARK 922        TOTAL FREE ENERGY PREDICTED BY IDOCK:  -12.07 KCAL/MOL
REMARK 923 INTER-LIGAND FREE ENERGY PREDICTED BY IDOCK:  -10.35 KCAL/MOL
REMARK 924 INTRA-LIGAND FREE ENERGY PREDICTED BY IDOCK:   -1.72 KCAL/MOL
REMARK 927      BINDING AFFINITY PREDICTED BY RF-SCORE:    0.00 PKD
ROOT
HETATM    1  C   UNL     1     -10.428   3.657  64.408  1.00  0.00    -0.186 C  
HETATM    2  C   UNL     1      -9.326   3.466  65.435  1.00  0.00    -0.153 C  
ENDROOT
BRANCH   2   3
HETATM    3  O   UNL     1      -9.791   4.002  66.679  1.00  0.00    -0.215 OA 
BRANCH   3   4
HETATM    4  C   UNL     1      -8.814   4.552  67.464  1.00  0.00    -0.107 C  
HETATM    5  O   UNL     1      -7.689   4.849  67.084  1.00  0.00    -0.090 OA 
BRANCH   4   6
HETATM    6  C   UNL     1      -9.376   4.761  68.876  1.00  0.00    -0.135 C  
HETATM    7  N   UNL     1      -8.367   5.469  69.698  1.00  0.00    -0.101 NA 
HETATM    8  H2  UNL     1      -8.060   6.343  69.269  1.00  0.00     0.000 HD 
HETATM    9  H1  UNL     1      -8.741   5.608  70.636  1.00  0.00     0.000 HD 
BRANCH   6  10
HETATM   10  C   UNL     1     -10.716   5.528  68.824  1.00  0.00    -0.195 C  
BRANCH  10  11
HETATM   11  C   UNL     1     -10.654   6.997  68.425  1.00  0.00    -0.240 A  
HETATM   12  C   UNL     1     -10.647   8.048  69.347  1.00  0.00    -0.210 A  
HETATM   13  C   UNL     1     -10.613   9.396  68.914  1.00  0.00    -0.231 A  
HETATM   14  C   UNL     1     -10.594   9.755  67.548  1.00  0.00    -0.335 A  
HETATM   15  C   UNL     1     -10.521   8.677  66.647  1.00  0.00    -0.239 A  
HETATM   16  C   UNL     1     -10.559   7.337  67.072  1.00  0.00    -0.415 A  
BRANCH  14  17
HETATM   17  C   UNL     1     -10.749  11.180  67.088  1.00  0.00    -0.259 A  
HETATM   18  N   UNL     1     -11.863  11.473  66.377  1.00  0.00    -0.306 NA 
HETATM   19  C   UNL     1     -11.943  12.681  65.802  1.00  0.00    -0.446 A  
HETATM   20  N   UNL     1     -10.985  13.614  65.803  1.00  0.00    -0.278 NA 
HETATM   21  N   UNL     1     -13.079  12.960  65.070  1.00  0.00    -0.773 NA 
HETATM   22  H1  UNL     1     -13.141  13.879  64.632  1.00  0.00     0.000 HD 
HETATM   23  C   UNL     1      -9.902  13.315  66.525  1.00  0.00    -0.281 A  
HETATM   24  H2  UNL     1     -13.828  12.275  64.970  1.00  0.00     0.000 HD 
HETATM   25  C   UNL     1      -9.754  12.135  67.228  1.00  0.00    -0.193 A  
BRANCH  23  26
HETATM   26  O   UNL     1      -8.788  14.134  66.478  1.00  0.00    -0.173 OA 
BRANCH  26  27
HETATM   27  C   UNL     1      -8.454  14.885  67.671  1.00  0.00    -0.167 C  
HETATM   28  C   UNL     1      -6.972  14.837  68.121  1.00  0.00    -0.125 C  
HETATM   29  F   UNL     1      -6.223  13.917  67.474  1.00  0.00    -0.160 F  
HETATM   30  F   UNL     1      -6.920  14.519  69.449  1.00  0.00    -0.122 F  
HETATM   31  F   UNL     1      -6.334  16.028  68.013  1.00  0.00    -0.103 F  
BRANCH  27  32
HETATM   32  C   UNL     1      -9.006  16.342  67.581  1.00  0.00    -0.194 A  
HETATM   33  C   UNL     1      -8.475  17.150  66.546  1.00  0.00    -0.309 A  
HETATM   34  C   UNL     1      -8.774  18.512  66.449  1.00  0.00    -0.274 A  
HETATM   35  C   UNL     1      -9.596  19.105  67.394  1.00  0.00    -0.311 A  
HETATM   36  C   UNL     1     -10.218  18.328  68.372  1.00  0.00    -0.402 A  
HETATM   37 CL   UNL     1      -9.860  20.806  67.358  1.00  0.00    -0.557 Cl 
HETATM   38  C   UNL     1      -9.979  16.939  68.437  1.00  0.00    -0.275 A  
BRANCH  38  39
HETATM   39  N   UNL     1     -10.758  16.172  69.351  1.00  0.00    -0.282 NA 
HETATM   40  C   UNL     1     -11.131  16.458  70.652  1.00  0.00    -0.159 A  
HETATM   41  C   UNL     1     -11.690  15.307  71.161  1.00  0.00    -0.409 A  
HETATM   42  C   UNL     1     -11.693  14.415  70.081  1.00  0.00    -0.297 A  
HETATM   43  N   UNL     1     -11.293  15.004  68.965  1.00  0.00    -0.273 NA 
HETATM   44  C   UNL     1     -12.039  12.972  70.032  1.00  0.00    -0.367 C  
ENDBRANCH  38  39
ENDBRANCH  27  32
ENDBRANCH  26  27
ENDBRANCH  23  26
ENDBRANCH  14  17
ENDBRANCH  10  11
ENDBRANCH   6  10
ENDBRANCH   4   6
ENDBRANCH   3   4
ENDBRANCH   2   3
TORSDOF 10
ENDMDL
MODEL       69
REMARK 921   NORMALIZED FREE ENERGY PREDICTED BY IDOCK:   -6.13 KCAL/MOL
REMARK 922        TOTAL FREE ENERGY PREDICTED BY IDOCK:  -12.05 KCAL/MOL
REMARK 923 INTER-LIGAND FREE ENERGY PREDICTED BY IDOCK:  -10.62 KCAL/MOL
REMARK 924 INTRA-LIGAND FREE ENERGY PREDICTED BY IDOCK:   -1.43 KCAL/MOL
REMARK 927      BINDING AFFINITY PREDICTED BY RF-SCORE:    0.00 PKD
ROOT
HETATM    1  C   UNL     1      -8.395   3.263  67.381  1.00  0.00    -0.093 C  
HETATM    2  C   UNL     1      -9.595   3.416  68.298  1.00  0.00    -0.083 C  
ENDROOT
BRANCH   2   3
HETATM    3  O   UNL     1      -9.456   4.659  68.995  1.00  0.00    -0.130 OA 
BRANCH   3   4
HETATM    4  C   UNL     1     -10.374   5.613  68.648  1.00  0.00    -0.208 C  
HETATM    5  O   UNL     1     -11.213   6.090  69.401  1.00  0.00    -0.395 OA 
BRANCH   4   6
HETATM    6  C   UNL     1     -10.149   6.003  67.181  1.00  0.00    -0.173 C  
HETATM    7  N   UNL     1     -11.440   6.427  66.591  1.00  0.00    -0.683 NA 
HETATM    8  H2  UNL     1     -11.887   7.172  67.127  1.00  0.00     0.000 HD 
HETATM    9  H1  UNL     1     -11.290   6.686  65.616  1.00  0.00     0.000 HD 
BRANCH   6  10
HETATM   10  C   UNL     1      -9.075   7.107  67.067  1.00  0.00    -0.149 C  
BRANCH  10  11
HETATM   11  C   UNL     1      -9.569   8.528  66.827  1.00  0.00    -0.273 A  
HETATM   12  C   UNL     1      -9.974   9.388  67.852  1.00  0.00    -0.220 A  
HETATM   13  C   UNL     1     -10.448  10.691  67.563  1.00  0.00    -0.272 A  
HETATM   14  C   UNL     1     -10.546  11.190  66.246  1.00  0.00    -0.309 A  
HETATM   15  C   UNL     1     -10.056  10.332  65.244  1.00  0.00    -0.359 A  
HETATM   16  C   UNL     1      -9.589   9.036  65.524  1.00  0.00    -0.166 A  
BRANCH  14  17
HETATM   17  C   UNL     1     -11.222  12.496  65.928  1.00  0.00    -0.320 A  
HETATM   18  N   UNL     1     -11.710  12.640  64.674  1.00  0.00    -0.339 NA 
HETATM   19  C   UNL     1     -12.155  13.850  64.305  1.00  0.00    -0.440 A  
HETATM   20  N   UNL     1     -12.096  14.964  65.044  1.00  0.00    -0.271 NA 
HETATM   21  N   UNL     1     -12.637  13.984  63.019  1.00  0.00    -0.872 NA 
HETATM   22  H1  UNL     1     -12.975  14.904  62.739  1.00  0.00     0.000 HD 
HETATM   23  C   UNL     1     -11.631  14.798  66.284  1.00  0.00    -0.298 A  
HETATM   24  H2  UNL     1     -12.656  13.193  62.374  1.00  0.00     0.000 HD 
HETATM   25  C   UNL     1     -11.228  13.579  66.794  1.00  0.00    -0.327 A  
BRANCH  23  26
HETATM   26  O   UNL     1     -11.384  15.899  67.085  1.00  0.00    -0.145 OA 
BRANCH  26  27
HETATM   27  C   UNL     1     -10.134  16.606  66.891  1.00  0.00    -0.280 C  
HETATM   28  C   UNL     1     -10.166  18.137  67.127  1.00  0.00    -0.367 C  
HETATM   29  F   UNL     1     -11.407  18.654  67.261  1.00  0.00    -0.306 F  
HETATM   30  F   UNL     1      -9.596  18.764  66.055  1.00  0.00    -0.325 F  
HETATM   31  F   UNL     1      -9.442  18.535  68.201  1.00  0.00    -0.284 F  
BRANCH  27  32
HETATM   32  C   UNL     1      -8.976  15.904  67.668  1.00  0.00    -0.193 A  
HETATM   33  C   UNL     1      -7.695  15.962  67.068  1.00  0.00    -0.268 A  
HETATM   34  C   UNL     1      -6.608  15.250  67.584  1.00  0.00    -0.196 A  
HETATM   35  C   UNL     1      -6.779  14.447  68.701  1.00  0.00    -0.090 A  
HETATM   36  C   UNL     1      -7.997  14.438  69.380  1.00  0.00     0.147 A  
HETATM   37 CL   UNL     1      -5.480  13.466  69.260  1.00  0.00    -0.075 Cl 
HETATM   38  C   UNL     1      -9.082  15.208  68.908  1.00  0.00    -0.206 A  
BRANCH  38  39
HETATM   39  N   UNL     1     -10.248  15.284  69.724  1.00  0.00    -0.249 NA 
HETATM   40  C   UNL     1     -10.724  16.334  70.489  1.00  0.00    -0.008 A  
HETATM   41  C   UNL     1     -11.758  15.829  71.247  1.00  0.00    -0.496 A  
HETATM   42  C   UNL     1     -11.891  14.504  70.813  1.00  0.00    -0.304 A  
HETATM   43  N   UNL     1     -11.098  14.248  69.784  1.00  0.00    -0.182 NA 
HETATM   44  C   UNL     1     -12.736  13.404  71.343  1.00  0.00    -0.411 C  
ENDBRANCH  38  39
ENDBRANCH  27  32
ENDBRANCH  26  27
ENDBRANCH  23  26
ENDBRANCH  14  17
ENDBRANCH  10  11
ENDBRANCH   6  10
ENDBRANCH   4   6
ENDBRANCH   3   4
ENDBRANCH   2   3
TORSDOF 10
ENDMDL
MODEL       70
REMARK 921   NORMALIZED FREE ENERGY PREDICTED BY IDOCK:   -6.09 KCAL/MOL
REMARK 922        TOTAL FREE ENERGY PREDICTED BY IDOCK:  -11.98 KCAL/MOL
REMARK 923 INTER-LIGAND FREE ENERGY PREDICTED BY IDOCK:  -10.09 KCAL/MOL
REMARK 924 INTRA-LIGAND FREE ENERGY PREDICTED BY IDOCK:   -1.89 KCAL/MOL
REMARK 927      BINDING AFFINITY PREDICTED BY RF-SCORE:    0.00 PKD
ROOT
HETATM    1  C   UNL     1     -10.354  17.135  65.910  1.00  0.00    -0.294 C  
HETATM    2  C   UNL     1     -10.089  15.641  65.855  1.00  0.00    -0.353 C  
ENDROOT
BRANCH   2   3
HETATM    3  O   UNL     1     -10.909  15.090  64.817  1.00  0.00    -0.394 OA 
BRANCH   3   4
HETATM    4  C   UNL     1     -11.745  14.086  65.223  1.00  0.00    -0.346 C  
HETATM    5  O   UNL     1     -12.400  14.090  66.257  1.00  0.00    -0.456 OA 
BRANCH   4   6
HETATM    6  C   UNL     1     -11.747  12.985  64.155  1.00  0.00    -0.412 C  
HETATM    7  N   UNL     1     -12.430  13.491  62.941  1.00  0.00    -0.865 NA 
HETATM    8  H2  UNL     1     -12.023  14.362  62.600  1.00  0.00     0.000 HD 
HETATM    9  H1  UNL     1     -12.432  12.759  62.231  1.00  0.00     0.000 HD 
BRANCH   6  10
HETATM   10  C   UNL     1     -10.308  12.515  63.850  1.00  0.00    -0.436 C  
BRANCH  10  11
HETATM   11  C   UNL     1      -9.723  11.445  64.764  1.00  0.00    -0.280 A  
HETATM   12  C   UNL     1      -9.391  10.158  64.331  1.00  0.00    -0.348 A  
HETATM   13  C   UNL     1      -8.873   9.198  65.234  1.00  0.00    -0.240 A  
HETATM   14  C   UNL     1      -8.672   9.474  66.605  1.00  0.00    -0.146 A  
HETATM   15  C   UNL     1      -8.939  10.800  66.992  1.00  0.00    -0.148 A  
HETATM   16  C   UNL     1      -9.458  11.756  66.101  1.00  0.00    -0.240 A  
BRANCH  14  17
HETATM   17  C   UNL     1      -8.303   8.404  67.596  1.00  0.00    -0.130 A  
HETATM   18  N   UNL     1      -8.639   7.133  67.274  1.00  0.00    -0.121 NA 
HETATM   19  C   UNL     1      -8.488   6.185  68.209  1.00  0.00    -0.113 A  
HETATM   20  N   UNL     1      -8.097   6.386  69.473  1.00  0.00    -0.116 NA 
HETATM   21  N   UNL     1      -8.847   4.896  67.870  1.00  0.00    -0.103 NA 
HETATM   22  H1  UNL     1      -8.732   4.175  68.582  1.00  0.00     0.000 HD 
HETATM   23  C   UNL     1      -7.751   7.643  69.766  1.00  0.00    -0.098 A  
HETATM   24  H2  UNL     1      -9.213   4.674  66.944  1.00  0.00     0.000 HD 
HETATM   25  C   UNL     1      -7.787   8.678  68.853  1.00  0.00    -0.104 A  
BRANCH  23  26
HETATM   26  O   UNL     1      -7.477   7.999  71.074  1.00  0.00    -0.066 OA 
BRANCH  26  27
HETATM   27  C   UNL     1      -8.279   7.393  72.118  1.00  0.00    -0.098 C  
HETATM   28  C   UNL     1      -7.807   7.632  73.575  1.00  0.00    -0.132 C  
HETATM   29  F   UNL     1      -6.578   8.184  73.678  1.00  0.00    -0.095 F  
HETATM   30  F   UNL     1      -7.752   6.433  74.227  1.00  0.00    -0.095 F  
HETATM   31  F   UNL     1      -8.657   8.397  74.301  1.00  0.00    -0.303 F  
BRANCH  27  32
HETATM   32  C   UNL     1      -9.791   7.725  71.917  1.00  0.00    -0.217 A  
HETATM   33  C   UNL     1     -10.100   9.069  71.596  1.00  0.00    -0.405 A  
HETATM   34  C   UNL     1     -11.419   9.527  71.537  1.00  0.00    -0.466 A  
HETATM   35  C   UNL     1     -12.463   8.658  71.814  1.00  0.00    -0.346 A  
HETATM   36  C   UNL     1     -12.209   7.304  72.038  1.00  0.00    -0.312 A  
HETATM   37 CL   UNL     1     -14.079   9.247  71.874  1.00  0.00    -0.324 Cl 
HETATM   38  C   UNL     1     -10.885   6.817  72.031  1.00  0.00    -0.227 A  
BRANCH  38  39
HETATM   39  N   UNL     1     -10.695   5.406  72.108  1.00  0.00    -0.227 NA 
HETATM   40  C   UNL     1     -10.961   4.534  73.148  1.00  0.00    -0.264 A  
HETATM   41  C   UNL     1     -10.402   3.324  72.797  1.00  0.00    -0.237 A  
HETATM   42  C   UNL     1      -9.902   3.535  71.505  1.00  0.00    -0.149 A  
HETATM   43  N   UNL     1     -10.239   4.729  71.043  1.00  0.00    -0.200 NA 
HETATM   44  C   UNL     1      -9.069   2.655  70.647  1.00  0.00    -0.187 C  
ENDBRANCH  38  39
ENDBRANCH  27  32
ENDBRANCH  26  27
ENDBRANCH  23  26
ENDBRANCH  14  17
ENDBRANCH  10  11
ENDBRANCH   6  10
ENDBRANCH   4   6
ENDBRANCH   3   4
ENDBRANCH   2   3
TORSDOF 10
ENDMDL
MODEL       71
REMARK 921   NORMALIZED FREE ENERGY PREDICTED BY IDOCK:   -6.08 KCAL/MOL
REMARK 922        TOTAL FREE ENERGY PREDICTED BY IDOCK:  -11.98 KCAL/MOL
REMARK 923 INTER-LIGAND FREE ENERGY PREDICTED BY IDOCK:  -10.22 KCAL/MOL
REMARK 924 INTRA-LIGAND FREE ENERGY PREDICTED BY IDOCK:   -1.76 KCAL/MOL
REMARK 927      BINDING AFFINITY PREDICTED BY RF-SCORE:    0.00 PKD
ROOT
HETATM    1  C   UNL     1      -6.006  19.931  64.516  1.00  0.00    -0.303 C  
HETATM    2  C   UNL     1      -6.587  19.154  65.683  1.00  0.00    -0.262 C  
ENDROOT
BRANCH   2   3
HETATM    3  O   UNL     1      -7.901  19.665  65.936  1.00  0.00    -0.336 OA 
BRANCH   3   4
HETATM    4  C   UNL     1      -8.176  19.906  67.255  1.00  0.00    -0.313 C  
HETATM    5  O   UNL     1      -7.373  19.797  68.173  1.00  0.00    -0.289 OA 
BRANCH   4   6
HETATM    6  C   UNL     1      -9.635  20.363  67.379  1.00  0.00    -0.444 C  
HETATM    7  N   UNL     1     -10.151  20.699  66.031  1.00  0.00    -0.428 NA 
HETATM    8  H2  UNL     1     -10.040  19.931  65.369  1.00  0.00     0.000 HD 
HETATM    9  H1  UNL     1     -11.121  21.003  66.114  1.00  0.00     0.000 HD 
BRANCH   6  10
HETATM   10  C   UNL     1     -10.492  19.279  68.068  1.00  0.00    -0.488 C  
BRANCH  10  11
HETATM   11  C   UNL     1     -10.453  17.881  67.463  1.00  0.00    -0.398 A  
HETATM   12  C   UNL     1     -10.659  17.622  66.105  1.00  0.00    -0.220 A  
HETATM   13  C   UNL     1     -10.636  16.297  65.605  1.00  0.00    -0.360 A  
HETATM   14  C   UNL     1     -10.416  15.176  66.435  1.00  0.00    -0.300 A  
HETATM   15  C   UNL     1     -10.133  15.474  67.780  1.00  0.00    -0.232 A  
HETATM   16  C   UNL     1     -10.159  16.787  68.282  1.00  0.00    -0.274 A  
BRANCH  14  17
HETATM   17  C   UNL     1     -10.578  13.764  65.939  1.00  0.00    -0.289 A  
HETATM   18  N   UNL     1     -11.050  13.610  64.680  1.00  0.00    -0.364 NA 
HETATM   19  C   UNL     1     -11.375  12.375  64.275  1.00  0.00    -0.360 A  
HETATM   20  N   UNL     1     -11.345  11.270  65.029  1.00  0.00    -0.026 NA 
HETATM   21  N   UNL     1     -11.866  12.236  62.993  1.00  0.00    -0.672 NA 
HETATM   22  H1  UNL     1     -12.114  11.296  62.685  1.00  0.00     0.000 HD 
HETATM   23  C   UNL     1     -10.858  11.438  66.262  1.00  0.00    -0.263 A  
HETATM   24  H2  UNL     1     -11.978  13.042  62.378  1.00  0.00     0.000 HD 
HETATM   25  C   UNL     1     -10.414  12.651  66.750  1.00  0.00    -0.254 A  
BRANCH  23  26
HETATM   26  O   UNL     1     -10.918  10.403  67.178  1.00  0.00    -0.267 OA 
BRANCH  26  27
HETATM   27  C   UNL     1      -9.681   9.728  67.514  1.00  0.00    -0.157 C  
HETATM   28  C   UNL     1      -9.238   9.800  68.997  1.00  0.00    -0.165 C  
HETATM   29  F   UNL     1      -9.944  10.675  69.746  1.00  0.00    -0.235 F  
HETATM   30  F   UNL     1      -7.934  10.201  69.054  1.00  0.00    -0.085 F  
HETATM   31  F   UNL     1      -9.273   8.602  69.631  1.00  0.00    -0.149 F  
BRANCH  27  32
HETATM   32  C   UNL     1      -9.677   8.270  66.957  1.00  0.00    -0.274 A  
HETATM   33  C   UNL     1     -10.776   7.457  67.325  1.00  0.00    -0.379 A  
HETATM   34  C   UNL     1     -10.819   6.094  67.018  1.00  0.00    -0.435 A  
HETATM   35  C   UNL     1      -9.756   5.505  66.351  1.00  0.00    -0.163 A  
HETATM   36  C   UNL     1      -8.700   6.287  65.884  1.00  0.00    -0.154 A  
HETATM   37 CL   UNL     1      -9.742   3.804  66.088  1.00  0.00    -0.174 Cl 
HETATM   38  C   UNL     1      -8.680   7.677  66.127  1.00  0.00    -0.156 A  
BRANCH  38  39
HETATM   39  N   UNL     1      -7.662   8.449  65.495  1.00  0.00    -0.093 NA 
HETATM   40  C   UNL     1      -6.461   8.912  66.001  1.00  0.00    -0.061 A  
HETATM   41  C   UNL     1      -5.949   9.781  65.062  1.00  0.00    -0.089 A  
HETATM   42  C   UNL     1      -6.856   9.713  63.996  1.00  0.00    -0.113 A  
HETATM   43  N   UNL     1      -7.777   8.785  64.201  1.00  0.00    -0.123 NA 
HETATM   44  C   UNL     1      -6.931  10.519  62.752  1.00  0.00    -0.077 C  
ENDBRANCH  38  39
ENDBRANCH  27  32
ENDBRANCH  26  27
ENDBRANCH  23  26
ENDBRANCH  14  17
ENDBRANCH  10  11
ENDBRANCH   6  10
ENDBRANCH   4   6
ENDBRANCH   3   4
ENDBRANCH   2   3
TORSDOF 10
ENDMDL
MODEL       72
REMARK 921   NORMALIZED FREE ENERGY PREDICTED BY IDOCK:   -6.07 KCAL/MOL
REMARK 922        TOTAL FREE ENERGY PREDICTED BY IDOCK:  -11.96 KCAL/MOL
REMARK 923 INTER-LIGAND FREE ENERGY PREDICTED BY IDOCK:  -10.28 KCAL/MOL
REMARK 924 INTRA-LIGAND FREE ENERGY PREDICTED BY IDOCK:   -1.68 KCAL/MOL
REMARK 927      BINDING AFFINITY PREDICTED BY RF-SCORE:    0.00 PKD
ROOT
HETATM    1  C   UNL     1      -9.467   6.903  68.402  1.00  0.00    -0.128 C  
HETATM    2  C   UNL     1      -9.490   5.676  69.296  1.00  0.00    -0.130 C  
ENDROOT
BRANCH   2   3
HETATM    3  O   UNL     1     -10.532   5.858  70.261  1.00  0.00    -0.219 OA 
BRANCH   3   4
HETATM    4  C   UNL     1     -10.143   6.495  71.409  1.00  0.00    -0.191 C  
HETATM    5  O   UNL     1      -9.032   6.967  71.610  1.00  0.00    -0.136 OA 
BRANCH   4   6
HETATM    6  C   UNL     1     -11.336   6.545  72.372  1.00  0.00    -0.279 C  
HETATM    7  N   UNL     1     -10.950   7.315  73.578  1.00  0.00    -0.555 NA 
HETATM    8  H2  UNL     1     -10.596   8.244  73.349  1.00  0.00     0.000 HD 
HETATM    9  H1  UNL     1     -11.743   7.348  74.218  1.00  0.00     0.000 HD 
BRANCH   6  10
HETATM   10  C   UNL     1     -12.576   7.149  71.678  1.00  0.00    -0.410 C  
BRANCH  10  11
HETATM   11  C   UNL     1     -12.537   8.641  71.370  1.00  0.00    -0.325 A  
HETATM   12  C   UNL     1     -11.703   9.208  70.402  1.00  0.00    -0.124 A  
HETATM   13  C   UNL     1     -11.693  10.607  70.178  1.00  0.00    -0.417 A  
HETATM   14  C   UNL     1     -12.504  11.499  70.913  1.00  0.00    -0.464 A  
HETATM   15  C   UNL     1     -13.389  10.892  71.823  1.00  0.00    -0.413 A  
HETATM   16  C   UNL     1     -13.400   9.504  72.052  1.00  0.00    -0.535 A  
BRANCH  14  17
HETATM   17  C   UNL     1     -12.357  12.993  70.807  1.00  0.00    -0.310 A  
HETATM   18  N   UNL     1     -13.334  13.742  71.370  1.00  0.00    -0.304 NA 
HETATM   19  C   UNL     1     -13.327  15.063  71.139  1.00  0.00    -0.445 A  
HETATM   20  N   UNL     1     -12.477  15.713  70.337  1.00  0.00    -0.410 NA 
HETATM   21  N   UNL     1     -14.336  15.812  71.709  1.00  0.00    -0.404 NA 
HETATM   22  H1  UNL     1     -14.331  16.816  71.534  1.00  0.00     0.000 HD 
HETATM   23  C   UNL     1     -11.509  14.961  69.807  1.00  0.00    -0.295 A  
HETATM   24  H2  UNL     1     -15.059  15.378  72.284  1.00  0.00     0.000 HD 
HETATM   25  C   UNL     1     -11.373  13.608  70.049  1.00  0.00    -0.054 A  
BRANCH  23  26
HETATM   26  O   UNL     1     -10.666  15.491  68.846  1.00  0.00    -0.224 OA 
BRANCH  26  27
HETATM   27  C   UNL     1      -9.335  14.929  68.736  1.00  0.00    -0.203 C  
HETATM   28  C   UNL     1      -9.094  13.956  67.554  1.00  0.00    -0.201 C  
HETATM   29  F   UNL     1     -10.219  13.576  66.908  1.00  0.00    -0.244 F  
HETATM   30  F   UNL     1      -8.513  12.815  68.028  1.00  0.00    -0.142 F  
HETATM   31  F   UNL     1      -8.235  14.437  66.623  1.00  0.00    -0.173 F  
BRANCH  27  32
HETATM   32  C   UNL     1      -8.254  16.051  68.817  1.00  0.00    -0.211 A  
HETATM   33  C   UNL     1      -7.082  15.740  69.548  1.00  0.00    -0.190 A  
HETATM   34  C   UNL     1      -6.106  16.703  69.821  1.00  0.00    -0.221 A  
HETATM   35  C   UNL     1      -6.286  18.007  69.387  1.00  0.00    -0.243 A  
HETATM   36  C   UNL     1      -7.376  18.335  68.581  1.00  0.00    -0.303 A  
HETATM   37 CL   UNL     1      -5.156  19.226  69.834  1.00  0.00    -0.192 Cl 
HETATM   38  C   UNL     1      -8.331  17.354  68.240  1.00  0.00    -0.248 A  
BRANCH  38  39
HETATM   39  N   UNL     1      -9.335  17.703  67.290  1.00  0.00    -0.246 NA 
HETATM   40  C   UNL     1     -10.226  18.761  67.294  1.00  0.00    -0.390 A  
HETATM   41  C   UNL     1     -11.117  18.526  66.270  1.00  0.00     0.407 A  
HETATM   42  C   UNL     1     -10.638  17.363  65.653  1.00  0.00    -0.153 A  
HETATM   43  N   UNL     1      -9.478  16.984  66.167  1.00  0.00    -0.431 NA 
HETATM   44  C   UNL     1     -11.241  16.532  64.581  1.00  0.00    -0.123 C  
ENDBRANCH  38  39
ENDBRANCH  27  32
ENDBRANCH  26  27
ENDBRANCH  23  26
ENDBRANCH  14  17
ENDBRANCH  10  11
ENDBRANCH   6  10
ENDBRANCH   4   6
ENDBRANCH   3   4
ENDBRANCH   2   3
TORSDOF 10
ENDMDL
MODEL       73
REMARK 921   NORMALIZED FREE ENERGY PREDICTED BY IDOCK:   -6.06 KCAL/MOL
REMARK 922        TOTAL FREE ENERGY PREDICTED BY IDOCK:  -11.94 KCAL/MOL
REMARK 923 INTER-LIGAND FREE ENERGY PREDICTED BY IDOCK:   -9.94 KCAL/MOL
REMARK 924 INTRA-LIGAND FREE ENERGY PREDICTED BY IDOCK:   -2.00 KCAL/MOL
REMARK 927      BINDING AFFINITY PREDICTED BY RF-SCORE:    0.00 PKD
ROOT
HETATM    1  C   UNL     1      -6.595  17.927  67.731  1.00  0.00    -0.193 C  
HETATM    2  C   UNL     1      -7.162  19.281  68.118  1.00  0.00    -0.269 C  
ENDROOT
BRANCH   2   3
HETATM    3  O   UNL     1      -8.505  19.078  68.573  1.00  0.00    -0.330 OA 
BRANCH   3   4
HETATM    4  C   UNL     1      -9.472  19.544  67.725  1.00  0.00    -0.334 C  
HETATM    5  O   UNL     1      -9.583  20.704  67.352  1.00  0.00    -0.442 OA 
BRANCH   4   6
HETATM    6  C   UNL     1     -10.361  18.368  67.298  1.00  0.00    -0.392 C  
HETATM    7  N   UNL     1      -9.742  17.693  66.133  1.00  0.00    -0.485 NA 
HETATM    8  H2  UNL     1      -8.780  17.407  66.315  1.00  0.00     0.000 HD 
HETATM    9  H1  UNL     1     -10.333  16.912  65.850  1.00  0.00     0.000 HD 
BRANCH   6  10
HETATM   10  C   UNL     1     -10.581  17.393  68.476  1.00  0.00    -0.340 C  
BRANCH  10  11
HETATM   11  C   UNL     1      -9.865  16.051  68.404  1.00  0.00    -0.213 A  
HETATM   12  C   UNL     1      -8.704  15.755  69.124  1.00  0.00    -0.253 A  
HETATM   13  C   UNL     1      -8.069  14.496  68.996  1.00  0.00    -0.085 A  
HETATM   14  C   UNL     1      -8.556  13.482  68.142  1.00  0.00    -0.173 A  
HETATM   15  C   UNL     1      -9.768  13.779  67.493  1.00  0.00    -0.230 A  
HETATM   16  C   UNL     1     -10.400  15.030  67.613  1.00  0.00    -0.243 A  
BRANCH  14  17
HETATM   17  C   UNL     1      -7.781  12.222  67.865  1.00  0.00    -0.133 A  
HETATM   18  N   UNL     1      -6.833  12.290  66.901  1.00  0.00    -0.023 NA 
HETATM   19  C   UNL     1      -6.253  11.148  66.507  1.00  0.00    -0.139 A  
HETATM   20  N   UNL     1      -6.575   9.919  66.928  1.00  0.00    -0.066 NA 
HETATM   21  N   UNL     1      -5.297  11.231  65.515  1.00  0.00    -0.488 NA 
HETATM   22  H1  UNL     1      -4.856  10.362  65.214  1.00  0.00     0.000 HD 
HETATM   23  C   UNL     1      -7.498   9.874  67.892  1.00  0.00    -0.089 A  
HETATM   24  H2  UNL     1      -5.042  12.127  65.098  1.00  0.00     0.000 HD 
HETATM   25  C   UNL     1      -8.096  10.997  68.431  1.00  0.00    -0.134 A  
BRANCH  23  26
HETATM   26  O   UNL     1      -8.018   8.658  68.298  1.00  0.00    -0.107 OA 
BRANCH  26  27
HETATM   27  C   UNL     1      -9.419   8.615  68.668  1.00  0.00    -0.142 C  
HETATM   28  C   UNL     1     -10.434   8.471  67.506  1.00  0.00    -0.258 C  
HETATM   29  F   UNL     1      -9.898   8.633  66.276  1.00  0.00    -0.289 F  
HETATM   30  F   UNL     1     -11.401   9.427  67.639  1.00  0.00    -0.206 F  
HETATM   31  F   UNL     1     -11.095   7.288  67.508  1.00  0.00    -0.299 F  
BRANCH  27  32
HETATM   32  C   UNL     1      -9.658   7.574  69.805  1.00  0.00    -0.163 A  
HETATM   33  C   UNL     1      -8.796   6.451  69.818  1.00  0.00    -0.142 A  
HETATM   34  C   UNL     1      -8.999   5.377  70.689  1.00  0.00    -0.163 A  
HETATM   35  C   UNL     1     -10.080   5.389  71.558  1.00  0.00    -0.195 A  
HETATM   36  C   UNL     1     -10.895   6.517  71.647  1.00  0.00    -0.281 A  
HETATM   37 CL   UNL     1     -10.411   4.013  72.536  1.00  0.00    -0.223 Cl 
HETATM   38  C   UNL     1     -10.658   7.636  70.821  1.00  0.00    -0.221 A  
BRANCH  38  39
HETATM   39  N   UNL     1     -11.420   8.816  71.064  1.00  0.00    -0.277 NA 
HETATM   40  C   UNL     1     -12.634   8.966  71.709  1.00  0.00    -0.361 A  
HETATM   41  C   UNL     1     -13.037  10.265  71.487  1.00  0.00    -0.534 A  
HETATM   42  C   UNL     1     -11.974  10.842  70.780  1.00  0.00    -0.346 A  
HETATM   43  N   UNL     1     -10.946  10.013  70.688  1.00  0.00    -0.318 NA 
HETATM   44  C   UNL     1     -11.867  12.174  70.134  1.00  0.00    -0.368 C  
ENDBRANCH  38  39
ENDBRANCH  27  32
ENDBRANCH  26  27
ENDBRANCH  23  26
ENDBRANCH  14  17
ENDBRANCH  10  11
ENDBRANCH   6  10
ENDBRANCH   4   6
ENDBRANCH   3   4
ENDBRANCH   2   3
TORSDOF 10
ENDMDL
MODEL       74
REMARK 921   NORMALIZED FREE ENERGY PREDICTED BY IDOCK:   -6.05 KCAL/MOL
REMARK 922        TOTAL FREE ENERGY PREDICTED BY IDOCK:  -11.92 KCAL/MOL
REMARK 923 INTER-LIGAND FREE ENERGY PREDICTED BY IDOCK:  -11.71 KCAL/MOL
REMARK 924 INTRA-LIGAND FREE ENERGY PREDICTED BY IDOCK:   -0.22 KCAL/MOL
REMARK 927      BINDING AFFINITY PREDICTED BY RF-SCORE:    0.00 PKD
ROOT
HETATM    1  C   UNL     1      -6.920   2.501  66.966  1.00  0.00    -0.048 C  
HETATM    2  C   UNL     1      -7.822   1.890  65.908  1.00  0.00    -0.072 C  
ENDROOT
BRANCH   2   3
HETATM    3  O   UNL     1      -9.064   2.603  65.928  1.00  0.00    -0.145 OA 
BRANCH   3   4
HETATM    4  C   UNL     1      -9.140   3.642  65.042  1.00  0.00    -0.142 C  
HETATM    5  O   UNL     1      -8.534   3.709  63.981  1.00  0.00    -0.090 OA 
BRANCH   4   6
HETATM    6  C   UNL     1     -10.130   4.681  65.584  1.00  0.00    -0.218 C  
HETATM    7  N   UNL     1     -11.459   4.447  64.972  1.00  0.00    -1.079 NA 
HETATM    8  H2  UNL     1     -11.786   3.490  65.107  1.00  0.00     0.000 HD 
HETATM    9  H1  UNL     1     -12.117   5.137  65.333  1.00  0.00     0.000 HD 
BRANCH   6  10
HETATM   10  C   UNL     1     -10.191   4.626  67.127  1.00  0.00    -0.147 C  
BRANCH  10  11
HETATM   11  C   UNL     1     -10.431   5.942  67.855  1.00  0.00    -0.297 A  
HETATM   12  C   UNL     1     -10.734   6.026  69.217  1.00  0.00    -0.401 A  
HETATM   13  C   UNL     1     -10.972   7.280  69.834  1.00  0.00    -0.262 A  
HETATM   14  C   UNL     1     -10.925   8.498  69.122  1.00  0.00     0.054 A  
HETATM   15  C   UNL     1     -10.539   8.388  67.773  1.00  0.00    -0.238 A  
HETATM   16  C   UNL     1     -10.307   7.146  67.155  1.00  0.00    -0.359 A  
BRANCH  14  17
HETATM   17  C   UNL     1     -11.360   9.804  69.731  1.00  0.00    -0.158 A  
HETATM   18  N   UNL     1     -12.050   9.734  70.893  1.00  0.00    -0.310 NA 
HETATM   19  C   UNL     1     -12.604  10.859  71.365  1.00  0.00    -0.403 A  
HETATM   20  N   UNL     1     -12.602  12.049  70.754  1.00  0.00    -0.272 NA 
HETATM   21  N   UNL     1     -13.315  10.770  72.544  1.00  0.00    -0.384 NA 
HETATM   22  H1  UNL     1     -13.737  11.625  72.904  1.00  0.00     0.000 HD 
HETATM   23  C   UNL     1     -11.900  12.103  69.619  1.00  0.00    -0.322 A  
HETATM   24  H2  UNL     1     -13.415   9.882  73.038  1.00  0.00     0.000 HD 
HETATM   25  C   UNL     1     -11.219  11.025  69.090  1.00  0.00    -0.318 A  
BRANCH  23  26
HETATM   26  O   UNL     1     -11.951  13.236  68.826  1.00  0.00    -0.325 OA 
BRANCH  26  27
HETATM   27  C   UNL     1     -10.755  13.596  68.091  1.00  0.00    -0.248 C  
HETATM   28  C   UNL     1     -10.651  13.059  66.641  1.00  0.00    -0.266 C  
HETATM   29  F   UNL     1     -11.583  12.133  66.322  1.00  0.00    -0.369 F  
HETATM   30  F   UNL     1      -9.435  12.461  66.473  1.00  0.00    -0.217 F  
HETATM   31  F   UNL     1     -10.706  14.031  65.698  1.00  0.00    -0.279 F  
BRANCH  27  32
HETATM   32  C   UNL     1     -10.492  15.131  68.181  1.00  0.00    -0.245 A  
HETATM   33  C   UNL     1      -9.791  15.711  67.097  1.00  0.00    -0.229 A  
HETATM   34  C   UNL     1      -9.363  17.042  67.124  1.00  0.00    -0.241 A  
HETATM   35  C   UNL     1      -9.609  17.821  68.244  1.00  0.00    -0.312 A  
HETATM   36  C   UNL     1     -10.380  17.320  69.292  1.00  0.00    -0.237 A  
HETATM   37 CL   UNL     1      -8.969  19.416  68.338  1.00  0.00    -0.390 Cl 
HETATM   38  C   UNL     1     -10.877  16.001  69.244  1.00  0.00    -0.300 A  
BRANCH  38  39
HETATM   39  N   UNL     1     -11.787  15.595  70.264  1.00  0.00    -0.341 NA 
HETATM   40  C   UNL     1     -13.161  15.442  70.213  1.00  0.00    -0.071 A  
HETATM   41  C   UNL     1     -13.581  15.243  71.510  1.00  0.00    -0.593 A  
HETATM   42  C   UNL     1     -12.396  15.203  72.256  1.00  0.00    -0.363 A  
HETATM   43  N   UNL     1     -11.329  15.241  71.474  1.00  0.00    -0.388 NA 
HETATM   44  C   UNL     1     -12.193  15.154  73.726  1.00  0.00    -0.678 C  
ENDBRANCH  38  39
ENDBRANCH  27  32
ENDBRANCH  26  27
ENDBRANCH  23  26
ENDBRANCH  14  17
ENDBRANCH  10  11
ENDBRANCH   6  10
ENDBRANCH   4   6
ENDBRANCH   3   4
ENDBRANCH   2   3
TORSDOF 10
ENDMDL
MODEL       75
REMARK 921   NORMALIZED FREE ENERGY PREDICTED BY IDOCK:   -6.02 KCAL/MOL
REMARK 922        TOTAL FREE ENERGY PREDICTED BY IDOCK:  -11.88 KCAL/MOL
REMARK 923 INTER-LIGAND FREE ENERGY PREDICTED BY IDOCK:   -9.60 KCAL/MOL
REMARK 924 INTRA-LIGAND FREE ENERGY PREDICTED BY IDOCK:   -2.28 KCAL/MOL
REMARK 927      BINDING AFFINITY PREDICTED BY RF-SCORE:    0.00 PKD
ROOT
HETATM    1  C   UNL     1     -12.811  13.109  64.644  1.00  0.00    -0.235 C  
HETATM    2  C   UNL     1     -11.489  13.851  64.557  1.00  0.00    -0.381 C  
ENDROOT
BRANCH   2   3
HETATM    3  O   UNL     1     -11.538  14.938  65.489  1.00  0.00    -0.336 OA 
BRANCH   3   4
HETATM    4  C   UNL     1     -10.855  16.057  65.097  1.00  0.00    -0.395 C  
HETATM    5  O   UNL     1     -11.192  16.807  64.191  1.00  0.00    -1.155 OA 
BRANCH   4   6
HETATM    6  C   UNL     1      -9.626  16.227  66.001  1.00  0.00    -0.337 C  
HETATM    7  N   UNL     1      -9.329  17.672  66.145  1.00  0.00    -0.488 NA 
HETATM    8  H2  UNL     1     -10.134  18.203  66.479  1.00  0.00     0.000 HD 
HETATM    9  H1  UNL     1      -8.513  17.784  66.745  1.00  0.00     0.000 HD 
BRANCH   6  10
HETATM   10  C   UNL     1      -9.856  15.549  67.369  1.00  0.00    -0.224 C  
BRANCH  10  11
HETATM   11  C   UNL     1      -9.177  14.203  67.595  1.00  0.00    -0.193 A  
HETATM   12  C   UNL     1      -7.791  14.022  67.559  1.00  0.00    -0.197 A  
HETATM   13  C   UNL     1      -7.220  12.741  67.753  1.00  0.00    -0.132 A  
HETATM   14  C   UNL     1      -8.001  11.587  67.981  1.00  0.00    -0.130 A  
HETATM   15  C   UNL     1      -9.385  11.814  68.091  1.00  0.00    -0.190 A  
HETATM   16  C   UNL     1      -9.958  13.083  67.895  1.00  0.00    -0.230 A  
BRANCH  14  17
HETATM   17  C   UNL     1      -7.409  10.204  67.998  1.00  0.00    -0.086 A  
HETATM   18  N   UNL     1      -6.489   9.923  67.045  1.00  0.00    -0.068 NA 
HETATM   19  C   UNL     1      -6.077   8.654  66.921  1.00  0.00    -0.058 A  
HETATM   20  N   UNL     1      -6.546   7.607  67.611  1.00  0.00    -0.060 NA 
HETATM   21  N   UNL     1      -5.150   8.381  65.937  1.00  0.00    -0.027 NA 
HETATM   22  H1  UNL     1      -4.836   7.415  65.842  1.00  0.00     0.000 HD 
HETATM   23  C   UNL     1      -7.437   7.906  68.560  1.00  0.00    -0.096 A  
HETATM   24  H2  UNL     1      -4.791   9.116  65.327  1.00  0.00     0.000 HD 
HETATM   25  C   UNL     1      -7.865   9.192  68.829  1.00  0.00    -0.096 A  
BRANCH  23  26
HETATM   26  O   UNL     1      -8.100   6.895  69.232  1.00  0.00    -0.117 OA 
BRANCH  26  27
HETATM   27  C   UNL     1      -9.480   7.130  69.609  1.00  0.00    -0.152 C  
HETATM   28  C   UNL     1     -10.537   6.964  68.488  1.00  0.00    -0.212 C  
HETATM   29  F   UNL     1     -10.017   6.843  67.246  1.00  0.00    -0.160 F  
HETATM   30  F   UNL     1     -11.343   8.067  68.468  1.00  0.00     0.137 F  
HETATM   31  F   UNL     1     -11.371   5.913  68.682  1.00  0.00    -0.374 F  
BRANCH  27  32
HETATM   32  C   UNL     1      -9.844   6.332  70.899  1.00  0.00    -0.207 A  
HETATM   33  C   UNL     1      -8.969   5.276  71.251  1.00  0.00    -0.158 A  
HETATM   34  C   UNL     1      -9.262   4.394  72.294  1.00  0.00    -0.156 A  
HETATM   35  C   UNL     1     -10.446   4.533  73.002  1.00  0.00    -0.194 A  
HETATM   36  C   UNL     1     -11.288   5.617  72.755  1.00  0.00    -0.350 A  
HETATM   37 CL   UNL     1     -10.874   3.371  74.198  1.00  0.00    -0.253 Cl 
HETATM   38  C   UNL     1     -10.968   6.554  71.750  1.00  0.00    -0.247 A  
BRANCH  38  39
HETATM   39  N   UNL     1     -11.778   7.722  71.646  1.00  0.00    -0.270 NA 
HETATM   40  C   UNL     1     -13.153   7.853  71.718  1.00  0.00    -0.325 A  
HETATM   41  C   UNL     1     -13.443   9.148  71.345  1.00  0.00    -0.358 A  
HETATM   42  C   UNL     1     -12.189   9.743  71.153  1.00  0.00    -0.362 A  
HETATM   43  N   UNL     1     -11.207   8.928  71.505  1.00  0.00    -0.299 NA 
HETATM   44  C   UNL     1     -11.838  11.080  70.612  1.00  0.00    -0.434 C  
ENDBRANCH  38  39
ENDBRANCH  27  32
ENDBRANCH  26  27
ENDBRANCH  23  26
ENDBRANCH  14  17
ENDBRANCH  10  11
ENDBRANCH   6  10
ENDBRANCH   4   6
ENDBRANCH   3   4
ENDBRANCH   2   3
TORSDOF 10
ENDMDL
MODEL       76
REMARK 921   NORMALIZED FREE ENERGY PREDICTED BY IDOCK:   -6.00 KCAL/MOL
REMARK 922        TOTAL FREE ENERGY PREDICTED BY IDOCK:  -11.85 KCAL/MOL
REMARK 923 INTER-LIGAND FREE ENERGY PREDICTED BY IDOCK:  -10.65 KCAL/MOL
REMARK 924 INTRA-LIGAND FREE ENERGY PREDICTED BY IDOCK:   -1.21 KCAL/MOL
REMARK 927      BINDING AFFINITY PREDICTED BY RF-SCORE:    0.00 PKD
ROOT
HETATM    1  C   UNL     1      -5.738  19.239  64.390  1.00  0.00    -0.320 C  
HETATM    2  C   UNL     1      -6.193  18.804  65.771  1.00  0.00    -0.226 C  
ENDROOT
BRANCH   2   3
HETATM    3  O   UNL     1      -7.559  19.205  65.928  1.00  0.00    -0.355 OA 
BRANCH   3   4
HETATM    4  C   UNL     1      -7.848  19.788  67.132  1.00  0.00    -0.273 C  
HETATM    5  O   UNL     1      -7.098  19.818  68.098  1.00  0.00    -0.275 OA 
BRANCH   4   6
HETATM    6  C   UNL     1      -9.243  20.421  67.050  1.00  0.00    -0.352 C  
HETATM    7  N   UNL     1      -9.670  20.466  65.631  1.00  0.00    -0.533 NA 
HETATM    8  H2  UNL     1      -9.632  19.549  65.185  1.00  0.00     0.000 HD 
HETATM    9  H1  UNL     1     -10.598  20.886  65.577  1.00  0.00     0.000 HD 
BRANCH   6  10
HETATM   10  C   UNL     1     -10.248  19.645  67.928  1.00  0.00    -0.574 C  
BRANCH  10  11
HETATM   11  C   UNL     1     -10.307  18.134  67.739  1.00  0.00    -0.413 A  
HETATM   12  C   UNL     1     -10.509  17.518  66.500  1.00  0.00    -0.270 A  
HETATM   13  C   UNL     1     -10.578  16.107  66.392  1.00  0.00    -0.269 A  
HETATM   14  C   UNL     1     -10.458  15.252  67.509  1.00  0.00    -0.265 A  
HETATM   15  C   UNL     1     -10.176  15.897  68.728  1.00  0.00    -0.220 A  
HETATM   16  C   UNL     1     -10.111  17.297  68.842  1.00  0.00    -0.331 A  
BRANCH  14  17
HETATM   17  C   UNL     1     -10.719  13.773  67.423  1.00  0.00    -0.275 A  
HETATM   18  N   UNL     1     -10.451  13.175  66.238  1.00  0.00    -0.280 NA 
HETATM   19  C   UNL     1     -10.839  11.903  66.072  1.00  0.00    -0.299 A  
HETATM   20  N   UNL     1     -11.539  11.177  66.950  1.00  0.00    -0.382 NA 
HETATM   21  N   UNL     1     -10.570  11.312  64.854  1.00  0.00    -0.307 NA 
HETATM   22  H1  UNL     1     -10.865  10.344  64.727  1.00  0.00     0.000 HD 
HETATM   23  C   UNL     1     -11.777  11.776  68.120  1.00  0.00    -0.307 A  
HETATM   24  H2  UNL     1     -10.094  11.823  64.110  1.00  0.00     0.000 HD 
HETATM   25  C   UNL     1     -11.346  13.052  68.427  1.00  0.00    -0.326 A  
BRANCH  23  26
HETATM   26  O   UNL     1     -12.617  11.182  69.045  1.00  0.00    -0.370 OA 
BRANCH  26  27
HETATM   27  C   UNL     1     -12.147  11.079  70.412  1.00  0.00    -0.373 C  
HETATM   28  C   UNL     1     -12.895  11.938  71.463  1.00  0.00    -0.316 C  
HETATM   29  F   UNL     1     -13.744  12.848  70.936  1.00  0.00     0.141 F  
HETATM   30  F   UNL     1     -11.981  12.637  72.199  1.00  0.00     0.582 F  
HETATM   31  F   UNL     1     -13.594  11.204  72.363  1.00  0.00    -0.483 F  
BRANCH  27  32
HETATM   32  C   UNL     1     -12.018   9.585  70.841  1.00  0.00    -0.372 A  
HETATM   33  C   UNL     1     -13.230   8.902  71.105  1.00  0.00    -0.133 A  
HETATM   34  C   UNL     1     -13.247   7.610  71.638  1.00  0.00    -0.395 A  
HETATM   35  C   UNL     1     -12.052   6.974  71.939  1.00  0.00    -0.323 A  
HETATM   36  C   UNL     1     -10.836   7.570  71.605  1.00  0.00    -0.249 A  
HETATM   37 CL   UNL     1     -12.068   5.440  72.719  1.00  0.00    -0.138 Cl 
HETATM   38  C   UNL     1     -10.809   8.845  71.002  1.00  0.00    -0.259 A  
BRANCH  38  39
HETATM   39  N   UNL     1      -9.553   9.336  70.540  1.00  0.00    -0.243 NA 
HETATM   40  C   UNL     1      -9.234   9.965  69.349  1.00  0.00    -0.214 A  
HETATM   41  C   UNL     1      -7.859  10.042  69.304  1.00  0.00    -0.125 A  
HETATM   42  C   UNL     1      -7.441   9.520  70.535  1.00  0.00    -0.148 A  
HETATM   43  N   UNL     1      -8.470   9.265  71.328  1.00  0.00    -0.315 NA 
HETATM   44  C   UNL     1      -6.076   9.207  71.027  1.00  0.00    -0.063 C  
ENDBRANCH  38  39
ENDBRANCH  27  32
ENDBRANCH  26  27
ENDBRANCH  23  26
ENDBRANCH  14  17
ENDBRANCH  10  11
ENDBRANCH   6  10
ENDBRANCH   4   6
ENDBRANCH   3   4
ENDBRANCH   2   3
TORSDOF 10
ENDMDL
MODEL       77
REMARK 921   NORMALIZED FREE ENERGY PREDICTED BY IDOCK:   -6.00 KCAL/MOL
REMARK 922        TOTAL FREE ENERGY PREDICTED BY IDOCK:  -11.85 KCAL/MOL
REMARK 923 INTER-LIGAND FREE ENERGY PREDICTED BY IDOCK:   -9.77 KCAL/MOL
REMARK 924 INTRA-LIGAND FREE ENERGY PREDICTED BY IDOCK:   -2.09 KCAL/MOL
REMARK 927      BINDING AFFINITY PREDICTED BY RF-SCORE:    0.00 PKD
ROOT
HETATM    1  C   UNL     1     -11.673  11.855  65.551  1.00  0.00    -0.224 C  
HETATM    2  C   UNL     1     -12.404  13.112  65.116  1.00  0.00    -0.473 C  
ENDROOT
BRANCH   2   3
HETATM    3  O   UNL     1     -12.144  14.127  66.093  1.00  0.00    -0.405 OA 
BRANCH   3   4
HETATM    4  C   UNL     1     -10.965  14.799  65.918  1.00  0.00    -0.335 C  
HETATM    5  O   UNL     1     -10.353  14.885  64.862  1.00  0.00    -0.400 OA 
BRANCH   4   6
HETATM    6  C   UNL     1     -10.566  15.448  67.250  1.00  0.00    -0.294 C  
HETATM    7  N   UNL     1     -11.793  15.802  68.001  1.00  0.00    -0.275 NA 
HETATM    8  H2  UNL     1     -12.415  15.003  68.129  1.00  0.00     0.000 HD 
HETATM    9  H1  UNL     1     -11.527  16.233  68.887  1.00  0.00     0.000 HD 
BRANCH   6  10
HETATM   10  C   UNL     1      -9.647  14.509  68.062  1.00  0.00    -0.217 C  
BRANCH  10  11
HETATM   11  C   UNL     1     -10.289  13.266  68.665  1.00  0.00    -0.206 A  
HETATM   12  C   UNL     1     -11.482  13.290  69.394  1.00  0.00    -0.323 A  
HETATM   13  C   UNL     1     -12.018  12.103  69.952  1.00  0.00    -0.380 A  
HETATM   14  C   UNL     1     -11.386  10.847  69.816  1.00  0.00    -0.374 A  
HETATM   15  C   UNL     1     -10.233  10.842  69.011  1.00  0.00    -0.219 A  
HETATM   16  C   UNL     1      -9.694  12.018  68.459  1.00  0.00    -0.165 A  
BRANCH  14  17
HETATM   17  C   UNL     1     -11.852   9.627  70.563  1.00  0.00    -0.215 A  
HETATM   18  N   UNL     1     -12.844   9.808  71.466  1.00  0.00    -0.374 NA 
HETATM   19  C   UNL     1     -13.157   8.783  72.272  1.00  0.00    -0.409 A  
HETATM   20  N   UNL     1     -12.526   7.604  72.321  1.00  0.00    -0.206 NA 
HETATM   21  N   UNL     1     -14.161   8.987  73.196  1.00  0.00    -1.190 NA 
HETATM   22  H1  UNL     1     -14.399   8.208  73.810  1.00  0.00     0.000 HD 
HETATM   23  C   UNL     1     -11.564   7.438  71.410  1.00  0.00    -0.275 A  
HETATM   24  H2  UNL     1     -14.647   9.882  73.263  1.00  0.00     0.000 HD 
HETATM   25  C   UNL     1     -11.222   8.396  70.475  1.00  0.00    -0.252 A  
BRANCH  23  26
HETATM   26  O   UNL     1     -10.746   6.323  71.461  1.00  0.00    -0.229 OA 
BRANCH  26  27
HETATM   27  C   UNL     1     -10.158   5.979  72.740  1.00  0.00    -0.183 C  
HETATM   28  C   UNL     1     -10.032   4.467  73.055  1.00  0.00    -0.149 C  
HETATM   29  F   UNL     1     -10.695   3.662  72.195  1.00  0.00    -0.151 F  
HETATM   30  F   UNL     1     -10.553   4.225  74.294  1.00  0.00    -0.235 F  
HETATM   31  F   UNL     1      -8.750   4.030  73.112  1.00  0.00    -0.093 F  
BRANCH  27  32
HETATM   32  C   UNL     1      -8.819   6.750  72.958  1.00  0.00    -0.141 A  
HETATM   33  C   UNL     1      -8.574   7.221  74.270  1.00  0.00    -0.240 A  
HETATM   34  C   UNL     1      -7.488   8.050  74.564  1.00  0.00    -0.240 A  
HETATM   35  C   UNL     1      -6.629   8.445  73.550  1.00  0.00    -0.105 A  
HETATM   36  C   UNL     1      -6.776   7.926  72.264  1.00  0.00    -0.065 A  
HETATM   37 CL   UNL     1      -5.370   9.571  73.880  1.00  0.00    -0.094 Cl 
HETATM   38  C   UNL     1      -7.828   7.032  71.972  1.00  0.00    -0.093 A  
BRANCH  38  39
HETATM   39  N   UNL     1      -7.837   6.413  70.688  1.00  0.00    -0.105 NA 
HETATM   40  C   UNL     1      -8.010   6.976  69.436  1.00  0.00    -0.118 A  
HETATM   41  C   UNL     1      -8.150   5.929  68.552  1.00  0.00    -0.106 A  
HETATM   42  C   UNL     1      -7.962   4.784  69.338  1.00  0.00    -0.070 A  
HETATM   43  N   UNL     1      -7.605   5.097  70.573  1.00  0.00    -0.069 NA 
HETATM   44  C   UNL     1      -8.127   3.349  68.992  1.00  0.00    -0.071 C  
ENDBRANCH  38  39
ENDBRANCH  27  32
ENDBRANCH  26  27
ENDBRANCH  23  26
ENDBRANCH  14  17
ENDBRANCH  10  11
ENDBRANCH   6  10
ENDBRANCH   4   6
ENDBRANCH   3   4
ENDBRANCH   2   3
TORSDOF 10
ENDMDL
MODEL       78
REMARK 921   NORMALIZED FREE ENERGY PREDICTED BY IDOCK:   -5.98 KCAL/MOL
REMARK 922        TOTAL FREE ENERGY PREDICTED BY IDOCK:  -11.81 KCAL/MOL
REMARK 923 INTER-LIGAND FREE ENERGY PREDICTED BY IDOCK:   -9.75 KCAL/MOL
REMARK 924 INTRA-LIGAND FREE ENERGY PREDICTED BY IDOCK:   -2.07 KCAL/MOL
REMARK 927      BINDING AFFINITY PREDICTED BY RF-SCORE:    0.00 PKD
ROOT
HETATM    1  C   UNL     1      -5.699  18.285  69.875  1.00  0.00    -0.246 C  
HETATM    2  C   UNL     1      -6.172  19.698  70.163  1.00  0.00    -0.271 C  
ENDROOT
BRANCH   2   3
HETATM    3  O   UNL     1      -6.518  20.306  68.913  1.00  0.00    -0.311 OA 
BRANCH   3   4
HETATM    4  C   UNL     1      -7.719  19.901  68.396  1.00  0.00    -0.249 C  
HETATM    5  O   UNL     1      -8.733  19.691  69.048  1.00  0.00    -0.297 OA 
BRANCH   4   6
HETATM    6  C   UNL     1      -7.586  19.792  66.871  1.00  0.00    -0.260 C  
HETATM    7  N   UNL     1      -6.841  20.970  66.366  1.00  0.00    -0.508 NA 
HETATM    8  H2  UNL     1      -5.939  21.086  66.827  1.00  0.00     0.000 HD 
HETATM    9  H1  UNL     1      -6.753  20.896  65.353  1.00  0.00     0.000 HD 
BRANCH   6  10
HETATM   10  C   UNL     1      -6.900  18.466  66.475  1.00  0.00    -0.239 C  
BRANCH  10  11
HETATM   11  C   UNL     1      -7.742  17.199  66.568  1.00  0.00    -0.321 A  
HETATM   12  C   UNL     1      -7.295  16.018  67.168  1.00  0.00    -0.257 A  
HETATM   13  C   UNL     1      -8.116  14.864  67.201  1.00  0.00    -0.239 A  
HETATM   14  C   UNL     1      -9.409  14.834  66.634  1.00  0.00    -0.291 A  
HETATM   15  C   UNL     1      -9.861  16.059  66.110  1.00  0.00    -0.351 A  
HETATM   16  C   UNL     1      -9.048  17.206  66.070  1.00  0.00    -0.140 A  
BRANCH  14  17
HETATM   17  C   UNL     1     -10.201  13.561  66.503  1.00  0.00    -0.283 A  
HETATM   18  N   UNL     1     -11.119  13.514  65.509  1.00  0.00    -0.292 NA 
HETATM   19  C   UNL     1     -11.961  12.472  65.478  1.00  0.00    -0.442 A  
HETATM   20  N   UNL     1     -12.032  11.494  66.388  1.00  0.00    -0.201 NA 
HETATM   21  N   UNL     1     -12.899  12.445  64.466  1.00  0.00    -0.764 NA 
HETATM   22  H1  UNL     1     -13.540  11.652  64.442  1.00  0.00     0.000 HD 
HETATM   23  C   UNL     1     -11.106  11.547  67.350  1.00  0.00    -0.282 A  
HETATM   24  H2  UNL     1     -12.950  13.188  63.769  1.00  0.00     0.000 HD 
HETATM   25  C   UNL     1     -10.137  12.528  67.425  1.00  0.00    -0.211 A  
BRANCH  23  26
HETATM   26  O   UNL     1     -11.173  10.679  68.425  1.00  0.00    -0.254 OA 
BRANCH  26  27
HETATM   27  C   UNL     1     -10.001   9.880  68.719  1.00  0.00    -0.173 C  
HETATM   28  C   UNL     1      -9.765   9.527  70.210  1.00  0.00    -0.263 C  
HETATM   29  F   UNL     1     -10.557  10.201  71.073  1.00  0.00    -0.350 F  
HETATM   30  F   UNL     1      -8.476   9.836  70.542  1.00  0.00    -0.206 F  
HETATM   31  F   UNL     1      -9.899   8.206  70.481  1.00  0.00    -0.180 F  
BRANCH  27  32
HETATM   32  C   UNL     1      -9.937   8.628  67.790  1.00  0.00    -0.240 A  
HETATM   33  C   UNL     1     -10.985   7.688  67.933  1.00  0.00     0.011 A  
HETATM   34  C   UNL     1     -10.967   6.458  67.269  1.00  0.00    -0.474 A  
HETATM   35  C   UNL     1      -9.891   6.128  66.460  1.00  0.00    -0.133 A  
HETATM   36  C   UNL     1      -8.886   7.063  66.213  1.00  0.00    -0.164 A  
HETATM   37 CL   UNL     1      -9.799   4.564  65.748  1.00  0.00    -0.209 Cl 
HETATM   38  C   UNL     1      -8.929   8.335  66.823  1.00  0.00    -0.147 A  
BRANCH  38  39
HETATM   39  N   UNL     1      -7.966   9.303  66.415  1.00  0.00    -0.107 NA 
HETATM   40  C   UNL     1      -7.625   9.729  65.144  1.00  0.00    -0.125 A  
HETATM   41  C   UNL     1      -6.499  10.511  65.282  1.00  0.00    -0.069 A  
HETATM   42  C   UNL     1      -6.286  10.571  66.665  1.00  0.00    -0.079 A  
HETATM   43  N   UNL     1      -7.269   9.988  67.333  1.00  0.00    -0.085 NA 
HETATM   44  C   UNL     1      -5.153  11.145  67.434  1.00  0.00    -0.043 C  
ENDBRANCH  38  39
ENDBRANCH  27  32
ENDBRANCH  26  27
ENDBRANCH  23  26
ENDBRANCH  14  17
ENDBRANCH  10  11
ENDBRANCH   6  10
ENDBRANCH   4   6
ENDBRANCH   3   4
ENDBRANCH   2   3
TORSDOF 10
ENDMDL
MODEL       79
REMARK 921   NORMALIZED FREE ENERGY PREDICTED BY IDOCK:   -5.98 KCAL/MOL
REMARK 922        TOTAL FREE ENERGY PREDICTED BY IDOCK:  -11.81 KCAL/MOL
REMARK 923 INTER-LIGAND FREE ENERGY PREDICTED BY IDOCK:   -8.83 KCAL/MOL
REMARK 924 INTRA-LIGAND FREE ENERGY PREDICTED BY IDOCK:   -2.98 KCAL/MOL
REMARK 927      BINDING AFFINITY PREDICTED BY RF-SCORE:    0.00 PKD
ROOT
HETATM    1  C   UNL     1     -10.334   5.971  66.669  1.00  0.00    -0.264 C  
HETATM    2  C   UNL     1      -9.619   4.670  66.351  1.00  0.00    -0.183 C  
ENDROOT
BRANCH   2   3
HETATM    3  O   UNL     1      -9.842   3.771  67.444  1.00  0.00    -0.156 OA 
BRANCH   3   4
HETATM    4  C   UNL     1      -8.732   3.503  68.198  1.00  0.00    -0.106 C  
HETATM    5  O   UNL     1      -7.576   3.670  67.834  1.00  0.00    -0.065 OA 
BRANCH   4   6
HETATM    6  C   UNL     1      -9.182   2.996  69.575  1.00  0.00    -0.147 C  
HETATM    7  N   UNL     1      -8.474   1.729  69.877  1.00  0.00    -0.045 NA 
HETATM    8  H2  UNL     1      -7.461   1.825  69.811  1.00  0.00     0.000 HD 
HETATM    9  H1  UNL     1      -8.774   1.393  70.792  1.00  0.00     0.000 HD 
BRANCH   6  10
HETATM   10  C   UNL     1      -8.934   4.066  70.660  1.00  0.00    -0.151 C  
BRANCH  10  11
HETATM   11  C   UNL     1      -9.475   5.464  70.387  1.00  0.00    -0.215 A  
HETATM   12  C   UNL     1      -8.665   6.554  70.057  1.00  0.00    -0.140 A  
HETATM   13  C   UNL     1      -9.225   7.837  69.838  1.00  0.00    -0.146 A  
HETATM   14  C   UNL     1     -10.610   8.090  69.946  1.00  0.00    -0.242 A  
HETATM   15  C   UNL     1     -11.407   6.959  70.200  1.00  0.00    -0.364 A  
HETATM   16  C   UNL     1     -10.855   5.684  70.422  1.00  0.00    -0.326 A  
BRANCH  14  17
HETATM   17  C   UNL     1     -11.180   9.482  69.900  1.00  0.00    -0.178 A  
HETATM   18  N   UNL     1     -11.810   9.920  71.016  1.00  0.00    -0.345 NA 
HETATM   19  C   UNL     1     -12.481  11.078  70.947  1.00  0.00    -0.410 A  
HETATM   20  N   UNL     1     -12.652  11.820  69.847  1.00  0.00     0.015 NA 
HETATM   21  N   UNL     1     -13.129  11.504  72.088  1.00  0.00    -0.487 NA 
HETATM   22  H1  UNL     1     -13.640  12.385  72.036  1.00  0.00     0.000 HD 
HETATM   23  C   UNL     1     -12.007  11.383  68.762  1.00  0.00    -0.287 A  
HETATM   24  H2  UNL     1     -13.098  10.960  72.951  1.00  0.00     0.000 HD 
HETATM   25  C   UNL     1     -11.217  10.250  68.747  1.00  0.00    -0.260 A  
BRANCH  23  26
HETATM   26  O   UNL     1     -12.229  11.982  67.535  1.00  0.00    -0.490 OA 
BRANCH  26  27
HETATM   27  C   UNL     1     -11.071  12.387  66.765  1.00  0.00    -0.285 C  
HETATM   28  C   UNL     1     -11.271  12.506  65.233  1.00  0.00    -0.304 C  
HETATM   29  F   UNL     1     -12.438  11.996  64.783  1.00  0.00    -0.422 F  
HETATM   30  F   UNL     1     -10.275  11.818  64.599  1.00  0.00    -0.266 F  
HETATM   31  F   UNL     1     -11.178  13.777  64.771  1.00  0.00    -0.317 F  
BRANCH  27  32
HETATM   32  C   UNL     1     -10.413  13.660  67.383  1.00  0.00    -0.251 A  
HETATM   33  C   UNL     1     -11.274  14.759  67.619  1.00  0.00    -0.332 A  
HETATM   34  C   UNL     1     -10.785  16.002  68.029  1.00  0.00    -0.309 A  
HETATM   35  C   UNL     1      -9.421  16.185  68.196  1.00  0.00    -0.209 A  
HETATM   36  C   UNL     1      -8.548  15.105  68.070  1.00  0.00    -0.156 A  
HETATM   37 CL   UNL     1      -8.803  17.747  68.570  1.00  0.00    -0.287 Cl 
HETATM   38  C   UNL     1      -9.038  13.828  67.725  1.00  0.00    -0.193 A  
BRANCH  38  39
HETATM   39  N   UNL     1      -8.127  12.732  67.764  1.00  0.00    -0.154 NA 
HETATM   40  C   UNL     1      -7.660  11.934  66.735  1.00  0.00    -0.034 A  
HETATM   41  C   UNL     1      -6.977  10.894  67.327  1.00  0.00    -0.089 A  
HETATM   42  C   UNL     1      -7.008  11.192  68.696  1.00  0.00    -0.081 A  
HETATM   43  N   UNL     1      -7.548  12.379  68.921  1.00  0.00    -0.027 NA 
HETATM   44  C   UNL     1      -6.566  10.384  69.860  1.00  0.00    -0.124 C  
ENDBRANCH  38  39
ENDBRANCH  27  32
ENDBRANCH  26  27
ENDBRANCH  23  26
ENDBRANCH  14  17
ENDBRANCH  10  11
ENDBRANCH   6  10
ENDBRANCH   4   6
ENDBRANCH   3   4
ENDBRANCH   2   3
TORSDOF 10
ENDMDL
MODEL       80
REMARK 921   NORMALIZED FREE ENERGY PREDICTED BY IDOCK:   -5.96 KCAL/MOL
REMARK 922        TOTAL FREE ENERGY PREDICTED BY IDOCK:  -11.78 KCAL/MOL
REMARK 923 INTER-LIGAND FREE ENERGY PREDICTED BY IDOCK:  -10.61 KCAL/MOL
REMARK 924 INTRA-LIGAND FREE ENERGY PREDICTED BY IDOCK:   -1.18 KCAL/MOL
REMARK 927      BINDING AFFINITY PREDICTED BY RF-SCORE:    0.00 PKD
ROOT
HETATM    1  C   UNL     1     -11.156   3.393  73.391  1.00  0.00    -0.288 C  
HETATM    2  C   UNL     1     -10.779   4.627  72.591  1.00  0.00    -0.181 C  
ENDROOT
BRANCH   2   3
HETATM    3  O   UNL     1     -11.771   5.630  72.841  1.00  0.00    -0.250 OA 
BRANCH   3   4
HETATM    4  C   UNL     1     -11.459   6.873  72.362  1.00  0.00    -0.259 C  
HETATM    5  O   UNL     1     -11.401   7.893  73.035  1.00  0.00    -0.408 OA 
BRANCH   4   6
HETATM    6  C   UNL     1     -11.164   6.762  70.860  1.00  0.00    -0.292 C  
HETATM    7  N   UNL     1     -12.389   7.108  70.101  1.00  0.00    -0.460 NA 
HETATM    8  H2  UNL     1     -12.760   8.023  70.358  1.00  0.00     0.000 HD 
HETATM    9  H1  UNL     1     -12.193   7.034  69.103  1.00  0.00     0.000 HD 
BRANCH   6  10
HETATM   10  C   UNL     1      -9.972   7.663  70.469  1.00  0.00    -0.184 C  
BRANCH  10  11
HETATM   11  C   UNL     1     -10.276   8.862  69.579  1.00  0.00    -0.204 A  
HETATM   12  C   UNL     1     -10.192   8.830  68.184  1.00  0.00    -0.250 A  
HETATM   13  C   UNL     1     -10.463   9.986  67.412  1.00  0.00    -0.316 A  
HETATM   14  C   UNL     1     -10.821  11.222  67.994  1.00  0.00    -0.266 A  
HETATM   15  C   UNL     1     -10.976  11.202  69.392  1.00  0.00    -0.298 A  
HETATM   16  C   UNL     1     -10.704  10.058  70.164  1.00  0.00    -0.361 A  
BRANCH  14  17
HETATM   17  C   UNL     1     -10.925  12.490  67.191  1.00  0.00    -0.263 A  
HETATM   18  N   UNL     1     -10.585  12.412  65.883  1.00  0.00    -0.252 NA 
HETATM   19  C   UNL     1     -10.493  13.554  65.187  1.00  0.00    -0.364 A  
HETATM   20  N   UNL     1     -10.638  14.788  65.683  1.00  0.00    -0.318 NA 
HETATM   21  N   UNL     1     -10.132  13.460  63.858  1.00  0.00    -0.662 NA 
HETATM   22  H1  UNL     1     -10.062  14.328  63.328  1.00  0.00     0.000 HD 
HETATM   23  C   UNL     1     -10.993  14.844  66.969  1.00  0.00    -0.327 A  
HETATM   24  H2  UNL     1      -9.943  12.556  63.422  1.00  0.00     0.000 HD 
HETATM   25  C   UNL     1     -11.199  13.726  67.755  1.00  0.00    -0.312 A  
BRANCH  23  26
HETATM   26  O   UNL     1     -11.024  16.060  67.628  1.00  0.00    -0.325 OA 
BRANCH  26  27
HETATM   27  C   UNL     1      -9.938  16.987  67.381  1.00  0.00    -0.278 C  
HETATM   28  C   UNL     1     -10.251  18.489  67.599  1.00  0.00    -0.387 C  
HETATM   29  F   UNL     1     -11.563  18.764  67.772  1.00  0.00    -0.014 F  
HETATM   30  F   UNL     1      -9.847  19.192  66.500  1.00  0.00    -0.322 F  
HETATM   31  F   UNL     1      -9.581  19.036  68.642  1.00  0.00    -0.352 F  
BRANCH  27  32
HETATM   32  C   UNL     1      -8.643  16.531  68.123  1.00  0.00    -0.193 A  
HETATM   33  C   UNL     1      -8.775  15.419  68.989  1.00  0.00    -0.231 A  
HETATM   34  C   UNL     1      -7.732  15.006  69.822  1.00  0.00    -0.038 A  
HETATM   35  C   UNL     1      -6.534  15.705  69.824  1.00  0.00    -0.169 A  
HETATM   36  C   UNL     1      -6.327  16.744  68.917  1.00  0.00    -0.172 A  
HETATM   37 CL   UNL     1      -5.296  15.284  70.942  1.00  0.00    -0.141 Cl 
HETATM   38  C   UNL     1      -7.349  17.125  68.023  1.00  0.00    -0.189 A  
BRANCH  38  39
HETATM   39  N   UNL     1      -7.031  18.083  67.016  1.00  0.00    -0.185 NA 
HETATM   40  C   UNL     1      -6.963  17.932  65.643  1.00  0.00    -0.092 A  
HETATM   41  C   UNL     1      -6.409  19.093  65.149  1.00  0.00    -0.309 A  
HETATM   42  C   UNL     1      -6.258  19.912  66.275  1.00  0.00    -0.178 A  
HETATM   43  N   UNL     1      -6.794  19.360  67.352  1.00  0.00    -0.205 NA 
HETATM   44  C   UNL     1      -5.590  21.231  66.416  1.00  0.00    -0.312 C  
ENDBRANCH  38  39
ENDBRANCH  27  32
ENDBRANCH  26  27
ENDBRANCH  23  26
ENDBRANCH  14  17
ENDBRANCH  10  11
ENDBRANCH   6  10
ENDBRANCH   4   6
ENDBRANCH   3   4
ENDBRANCH   2   3
TORSDOF 10
ENDMDL
MODEL       81
REMARK 921   NORMALIZED FREE ENERGY PREDICTED BY IDOCK:   -5.92 KCAL/MOL
REMARK 922        TOTAL FREE ENERGY PREDICTED BY IDOCK:  -11.72 KCAL/MOL
REMARK 923 INTER-LIGAND FREE ENERGY PREDICTED BY IDOCK:   -9.88 KCAL/MOL
REMARK 924 INTRA-LIGAND FREE ENERGY PREDICTED BY IDOCK:   -1.84 KCAL/MOL
REMARK 927      BINDING AFFINITY PREDICTED BY RF-SCORE:    0.00 PKD
ROOT
HETATM    1  C   UNL     1      -9.534   3.828  69.384  1.00  0.00    -0.257 C  
HETATM    2  C   UNL     1      -9.486   3.398  70.839  1.00  0.00    -0.164 C  
ENDROOT
BRANCH   2   3
HETATM    3  O   UNL     1      -8.651   4.326  71.541  1.00  0.00    -0.106 OA 
BRANCH   3   4
HETATM    4  C   UNL     1      -9.182   4.800  72.710  1.00  0.00    -0.129 C  
HETATM    5  O   UNL     1      -8.562   5.414  73.567  1.00  0.00    -0.115 OA 
BRANCH   4   6
HETATM    6  C   UNL     1     -10.679   4.462  72.743  1.00  0.00    -0.158 C  
HETATM    7  N   UNL     1     -10.980   3.730  73.996  1.00  0.00    -0.189 NA 
HETATM    8  H2  UNL     1     -10.678   4.240  74.827  1.00  0.00     0.000 HD 
HETATM    9  H1  UNL     1     -11.975   3.506  74.018  1.00  0.00     0.000 HD 
BRANCH   6  10
HETATM   10  C   UNL     1     -11.532   5.742  72.606  1.00  0.00    -0.337 C  
BRANCH  10  11
HETATM   11  C   UNL     1     -10.977   6.849  71.719  1.00  0.00    -0.259 A  
HETATM   12  C   UNL     1     -11.052   6.831  70.323  1.00  0.00    -0.360 A  
HETATM   13  C   UNL     1     -10.495   7.879  69.550  1.00  0.00    -0.226 A  
HETATM   14  C   UNL     1      -9.834   8.983  70.132  1.00  0.00    -0.213 A  
HETATM   15  C   UNL     1      -9.845   9.014  71.538  1.00  0.00    -0.381 A  
HETATM   16  C   UNL     1     -10.392   7.973  72.310  1.00  0.00    -0.336 A  
BRANCH  14  17
HETATM   17  C   UNL     1      -9.082   9.995  69.310  1.00  0.00    -0.200 A  
HETATM   18  N   UNL     1      -7.825  10.295  69.714  1.00  0.00    -0.162 NA 
HETATM   19  C   UNL     1      -7.198  11.317  69.116  1.00  0.00    -0.115 A  
HETATM   20  N   UNL     1      -7.727  12.128  68.193  1.00  0.00    -0.120 NA 
HETATM   21  N   UNL     1      -5.922  11.619  69.547  1.00  0.00    -0.078 NA 
HETATM   22  H1  UNL     1      -5.445  12.397  69.093  1.00  0.00     0.000 HD 
HETATM   23  C   UNL     1      -8.959  11.805  67.793  1.00  0.00    -0.173 A  
HETATM   24  H2  UNL     1      -5.474  11.085  70.293  1.00  0.00     0.000 HD 
HETATM   25  C   UNL     1      -9.662  10.720  68.281  1.00  0.00    -0.172 A  
BRANCH  23  26
HETATM   26  O   UNL     1      -9.662  12.654  66.957  1.00  0.00    -0.215 OA 
BRANCH  26  27
HETATM   27  C   UNL     1      -9.544  14.079  67.192  1.00  0.00    -0.245 C  
HETATM   28  C   UNL     1      -9.831  15.003  65.982  1.00  0.00    -0.319 C  
HETATM   29  F   UNL     1      -9.932  14.355  64.800  1.00  0.00    -0.412 F  
HETATM   30  F   UNL     1      -8.805  15.896  65.850  1.00  0.00    -0.348 F  
HETATM   31  F   UNL     1     -10.947  15.757  66.128  1.00  0.00    -0.320 F  
BRANCH  27  32
HETATM   32  C   UNL     1     -10.342  14.497  68.467  1.00  0.00    -0.242 A  
HETATM   33  C   UNL     1     -11.324  13.583  68.919  1.00  0.00    -0.332 A  
HETATM   34  C   UNL     1     -12.206  13.902  69.955  1.00  0.00    -0.408 A  
HETATM   35  C   UNL     1     -12.140  15.151  70.555  1.00  0.00    -0.343 A  
HETATM   36  C   UNL     1     -11.126  16.043  70.208  1.00  0.00    -0.380 A  
HETATM   37 CL   UNL     1     -13.308  15.598  71.738  1.00  0.00    -0.556 Cl 
HETATM   38  C   UNL     1     -10.188  15.704  69.211  1.00  0.00    -0.250 A  
BRANCH  38  39
HETATM   39  N   UNL     1      -9.084  16.584  69.009  1.00  0.00    -0.252 NA 
HETATM   40  C   UNL     1      -9.040  17.817  68.383  1.00  0.00    -0.278 A  
HETATM   41  C   UNL     1      -7.708  18.149  68.266  1.00  0.00    -0.291 A  
HETATM   42  C   UNL     1      -7.033  17.110  68.920  1.00  0.00    -0.232 A  
HETATM   43  N   UNL     1      -7.877  16.276  69.506  1.00  0.00    -0.070 NA 
HETATM   44  C   UNL     1      -5.579  16.824  69.012  1.00  0.00    -0.137 C  
ENDBRANCH  38  39
ENDBRANCH  27  32
ENDBRANCH  26  27
ENDBRANCH  23  26
ENDBRANCH  14  17
ENDBRANCH  10  11
ENDBRANCH   6  10
ENDBRANCH   4   6
ENDBRANCH   3   4
ENDBRANCH   2   3
TORSDOF 10
ENDMDL
MODEL       82
REMARK 921   NORMALIZED FREE ENERGY PREDICTED BY IDOCK:   -5.91 KCAL/MOL
REMARK 922        TOTAL FREE ENERGY PREDICTED BY IDOCK:  -11.71 KCAL/MOL
REMARK 923 INTER-LIGAND FREE ENERGY PREDICTED BY IDOCK:  -10.23 KCAL/MOL
REMARK 924 INTRA-LIGAND FREE ENERGY PREDICTED BY IDOCK:   -1.48 KCAL/MOL
REMARK 927      BINDING AFFINITY PREDICTED BY RF-SCORE:    0.00 PKD
ROOT
HETATM    1  C   UNL     1      -9.433  19.896  66.968  1.00  0.00    -0.505 C  
HETATM    2  C   UNL     1     -10.820  19.287  67.055  1.00  0.00    -0.414 C  
ENDROOT
BRANCH   2   3
HETATM    3  O   UNL     1     -10.672  17.862  67.050  1.00  0.00    -0.319 OA 
BRANCH   3   4
HETATM    4  C   UNL     1     -10.517  17.309  65.808  1.00  0.00    -0.229 C  
HETATM    5  O   UNL     1     -11.099  17.675  64.796  1.00  0.00    -0.915 OA 
BRANCH   4   6
HETATM    6  C   UNL     1      -9.474  16.187  65.895  1.00  0.00    -0.302 C  
HETATM    7  N   UNL     1      -9.049  16.032  67.306  1.00  0.00    -0.202 NA 
HETATM    8  H2  UNL     1      -9.838  15.879  67.935  1.00  0.00     0.000 HD 
HETATM    9  H1  UNL     1      -8.356  15.286  67.364  1.00  0.00     0.000 HD 
BRANCH   6  10
HETATM   10  C   UNL     1     -10.037  14.870  65.316  1.00  0.00    -0.380 C  
BRANCH  10  11
HETATM   11  C   UNL     1     -10.439  13.793  66.316  1.00  0.00    -0.291 A  
HETATM   12  C   UNL     1     -11.662  13.787  66.993  1.00  0.00    -0.420 A  
HETATM   13  C   UNL     1     -11.969  12.770  67.931  1.00  0.00    -0.320 A  
HETATM   14  C   UNL     1     -11.072  11.725  68.239  1.00  0.00    -0.291 A  
HETATM   15  C   UNL     1      -9.885  11.713  67.484  1.00  0.00    -0.199 A  
HETATM   16  C   UNL     1      -9.573  12.722  66.556  1.00  0.00    -0.257 A  
BRANCH  14  17
HETATM   17  C   UNL     1     -11.319  10.758  69.366  1.00  0.00    -0.285 A  
HETATM   18  N   UNL     1     -12.309  11.073  70.233  1.00  0.00    -0.325 NA 
HETATM   19  C   UNL     1     -12.435  10.332  71.342  1.00  0.00    -0.424 A  
HETATM   20  N   UNL     1     -11.621   9.339  71.718  1.00  0.00    -0.385 NA 
HETATM   21  N   UNL     1     -13.441  10.673  72.223  1.00  0.00    -0.545 NA 
HETATM   22  H1  UNL     1     -13.537  10.109  73.067  1.00  0.00     0.000 HD 
HETATM   23  C   UNL     1     -10.662   9.029  70.841  1.00  0.00    -0.253 A  
HETATM   24  H2  UNL     1     -14.065  11.459  72.037  1.00  0.00     0.000 HD 
HETATM   25  C   UNL     1     -10.498   9.673  69.629  1.00  0.00    -0.246 A  
BRANCH  23  26
HETATM   26  O   UNL     1      -9.673   8.126  71.185  1.00  0.00    -0.157 OA 
BRANCH  26  27
HETATM   27  C   UNL     1     -10.065   6.958  71.948  1.00  0.00    -0.183 C  
HETATM   28  C   UNL     1     -11.126   6.035  71.297  1.00  0.00    -0.274 C  
HETATM   29  F   UNL     1     -11.720   6.556  70.201  1.00  0.00    -0.412 F  
HETATM   30  F   UNL     1     -12.120   5.793  72.201  1.00  0.00    -0.333 F  
HETATM   31  F   UNL     1     -10.646   4.814  70.956  1.00  0.00    -0.264 F  
BRANCH  27  32
HETATM   32  C   UNL     1      -8.809   6.173  72.441  1.00  0.00    -0.136 A  
HETATM   33  C   UNL     1      -8.952   5.462  73.657  1.00  0.00    -0.124 A  
HETATM   34  C   UNL     1      -7.865   4.844  74.281  1.00  0.00    -0.097 A  
HETATM   35  C   UNL     1      -6.603   4.935  73.715  1.00  0.00    -0.064 A  
HETATM   36  C   UNL     1      -6.435   5.541  72.469  1.00  0.00    -0.060 A  
HETATM   37 CL   UNL     1      -5.240   4.292  74.545  1.00  0.00    -0.004 Cl 
HETATM   38  C   UNL     1      -7.538   6.107  71.797  1.00  0.00    -0.096 A  
BRANCH  38  39
HETATM   39  N   UNL     1      -7.339   6.571  70.464  1.00  0.00    -0.080 NA 
HETATM   40  C   UNL     1      -6.422   7.484  69.973  1.00  0.00    -0.034 A  
HETATM   41  C   UNL     1      -6.785   7.739  68.668  1.00  0.00    -0.058 A  
HETATM   42  C   UNL     1      -7.865   6.878  68.434  1.00  0.00    -0.121 A  
HETATM   43  N   UNL     1      -8.070   6.067  69.459  1.00  0.00    -0.106 NA 
HETATM   44  C   UNL     1      -8.775   6.783  67.264  1.00  0.00    -0.119 C  
ENDBRANCH  38  39
ENDBRANCH  27  32
ENDBRANCH  26  27
ENDBRANCH  23  26
ENDBRANCH  14  17
ENDBRANCH  10  11
ENDBRANCH   6  10
ENDBRANCH   4   6
ENDBRANCH   3   4
ENDBRANCH   2   3
TORSDOF 10
ENDMDL
MODEL       83
REMARK 921   NORMALIZED FREE ENERGY PREDICTED BY IDOCK:   -5.90 KCAL/MOL
REMARK 922        TOTAL FREE ENERGY PREDICTED BY IDOCK:  -11.69 KCAL/MOL
REMARK 923 INTER-LIGAND FREE ENERGY PREDICTED BY IDOCK:  -10.46 KCAL/MOL
REMARK 924 INTRA-LIGAND FREE ENERGY PREDICTED BY IDOCK:   -1.23 KCAL/MOL
REMARK 927      BINDING AFFINITY PREDICTED BY RF-SCORE:    0.00 PKD
ROOT
HETATM    1  C   UNL     1      -8.926  19.821  66.356  1.00  0.00    -0.440 C  
HETATM    2  C   UNL     1      -9.041  18.309  66.412  1.00  0.00    -0.249 C  
ENDROOT
BRANCH   2   3
HETATM    3  O   UNL     1     -10.435  17.978  66.437  1.00  0.00    -0.375 OA 
BRANCH   3   4
HETATM    4  C   UNL     1     -10.795  16.962  65.595  1.00  0.00    -0.079 C  
HETATM    5  O   UNL     1     -11.162  17.104  64.436  1.00  0.00    -1.143 OA 
BRANCH   4   6
HETATM    6  C   UNL     1     -10.629  15.627  66.333  1.00  0.00    -0.308 C  
HETATM    7  N   UNL     1     -11.443  15.656  67.571  1.00  0.00    -0.197 NA 
HETATM    8  H2  UNL     1     -12.421  15.880  67.389  1.00  0.00     0.000 HD 
HETATM    9  H1  UNL     1     -11.332  14.769  68.062  1.00  0.00     0.000 HD 
BRANCH   6  10
HETATM   10  C   UNL     1     -11.016  14.444  65.419  1.00  0.00    -0.343 C  
BRANCH  10  11
HETATM   11  C   UNL     1     -10.787  13.042  65.970  1.00  0.00    -0.290 A  
HETATM   12  C   UNL     1     -10.285  11.985  65.206  1.00  0.00    -0.304 A  
HETATM   13  C   UNL     1     -10.116  10.696  65.769  1.00  0.00    -0.327 A  
HETATM   14  C   UNL     1     -10.447  10.403  67.110  1.00  0.00    -0.311 A  
HETATM   15  C   UNL     1     -10.874  11.504  67.875  1.00  0.00    -0.257 A  
HETATM   16  C   UNL     1     -11.047  12.785  67.320  1.00  0.00    -0.314 A  
BRANCH  14  17
HETATM   17  C   UNL     1     -10.447   8.999  67.651  1.00  0.00    -0.260 A  
HETATM   18  N   UNL     1     -10.646   8.002  66.758  1.00  0.00    -0.270 NA 
HETATM   19  C   UNL     1     -10.830   6.761  67.230  1.00  0.00    -0.373 A  
HETATM   20  N   UNL     1     -10.908   6.417  68.521  1.00  0.00    -0.289 NA 
HETATM   21  N   UNL     1     -11.045   5.757  66.308  1.00  0.00    -0.755 NA 
HETATM   22  H1  UNL     1     -11.185   4.813  66.667  1.00  0.00     0.000 HD 
HETATM   23  C   UNL     1     -10.689   7.410  69.386  1.00  0.00    -0.211 A  
HETATM   24  H2  UNL     1     -11.062   5.951  65.306  1.00  0.00     0.000 HD 
HETATM   25  C   UNL     1     -10.404   8.707  69.006  1.00  0.00    -0.226 A  
BRANCH  23  26
HETATM   26  O   UNL     1     -10.892   7.207  70.740  1.00  0.00    -0.234 OA 
BRANCH  26  27
HETATM   27  C   UNL     1      -9.784   6.685  71.515  1.00  0.00    -0.164 C  
HETATM   28  C   UNL     1      -9.194   7.627  72.594  1.00  0.00    -0.164 C  
HETATM   29  F   UNL     1      -9.638   8.901  72.523  1.00  0.00    -0.344 F  
HETATM   30  F   UNL     1      -7.837   7.677  72.448  1.00  0.00    -0.090 F  
HETATM   31  F   UNL     1      -9.403   7.195  73.862  1.00  0.00    -0.193 F  
BRANCH  27  32
HETATM   32  C   UNL     1     -10.123   5.268  72.076  1.00  0.00    -0.247 A  
HETATM   33  C   UNL     1     -11.184   5.201  73.010  1.00  0.00    -0.390 A  
HETATM   34  C   UNL     1     -11.488   4.022  73.697  1.00  0.00    -0.181 A  
HETATM   35  C   UNL     1     -10.727   2.884  73.480  1.00  0.00    -0.194 A  
HETATM   36  C   UNL     1      -9.736   2.878  72.498  1.00  0.00    -0.204 A  
HETATM   37 CL   UNL     1     -11.010   1.470  74.419  1.00  0.00    -0.171 Cl 
HETATM   38  C   UNL     1      -9.467   4.043  71.750  1.00  0.00    -0.145 A  
BRANCH  38  39
HETATM   39  N   UNL     1      -8.558   3.938  70.657  1.00  0.00    -0.069 NA 
HETATM   40  C   UNL     1      -7.245   4.361  70.555  1.00  0.00    -0.048 A  
HETATM   41  C   UNL     1      -6.889   4.216  69.232  1.00  0.00    -0.046 A  
HETATM   42  C   UNL     1      -8.008   3.623  68.634  1.00  0.00    -0.066 A  
HETATM   43  N   UNL     1      -8.927   3.306  69.532  1.00  0.00    -0.099 NA 
HETATM   44  C   UNL     1      -8.293   3.344  67.204  1.00  0.00    -0.093 C  
ENDBRANCH  38  39
ENDBRANCH  27  32
ENDBRANCH  26  27
ENDBRANCH  23  26
ENDBRANCH  14  17
ENDBRANCH  10  11
ENDBRANCH   6  10
ENDBRANCH   4   6
ENDBRANCH   3   4
ENDBRANCH   2   3
TORSDOF 10
ENDMDL
MODEL       84
REMARK 921   NORMALIZED FREE ENERGY PREDICTED BY IDOCK:   -5.90 KCAL/MOL
REMARK 922        TOTAL FREE ENERGY PREDICTED BY IDOCK:  -11.68 KCAL/MOL
REMARK 923 INTER-LIGAND FREE ENERGY PREDICTED BY IDOCK:  -10.15 KCAL/MOL
REMARK 924 INTRA-LIGAND FREE ENERGY PREDICTED BY IDOCK:   -1.53 KCAL/MOL
REMARK 927      BINDING AFFINITY PREDICTED BY RF-SCORE:    0.00 PKD
ROOT
HETATM    1  C   UNL     1      -8.963   5.421  65.351  1.00  0.00    -0.130 C  
HETATM    2  C   UNL     1      -7.700   5.024  66.093  1.00  0.00    -0.091 C  
ENDROOT
BRANCH   2   3
HETATM    3  O   UNL     1      -7.858   3.668  66.529  1.00  0.00    -0.087 OA 
BRANCH   3   4
HETATM    4  C   UNL     1      -7.894   3.506  67.887  1.00  0.00    -0.072 C  
HETATM    5  O   UNL     1      -6.931   3.612  68.635  1.00  0.00    -0.048 OA 
BRANCH   4   6
HETATM    6  C   UNL     1      -9.338   3.204  68.309  1.00  0.00    -0.187 C  
HETATM    7  N   UNL     1      -9.572   1.744  68.219  1.00  0.00    -0.290 NA 
HETATM    8  H2  UNL     1      -8.890   1.207  68.755  1.00  0.00     0.000 HD 
HETATM    9  H1  UNL     1     -10.532   1.544  68.500  1.00  0.00     0.000 HD 
BRANCH   6  10
HETATM   10  C   UNL     1      -9.617   3.744  69.729  1.00  0.00    -0.253 C  
BRANCH  10  11
HETATM   11  C   UNL     1      -9.875   5.240  69.860  1.00  0.00    -0.282 A  
HETATM   12  C   UNL     1      -9.270   6.046  70.829  1.00  0.00    -0.165 A  
HETATM   13  C   UNL     1      -9.570   7.428  70.917  1.00  0.00    -0.166 A  
HETATM   14  C   UNL     1     -10.488   8.062  70.052  1.00  0.00    -0.228 A  
HETATM   15  C   UNL     1     -11.018   7.244  69.038  1.00  0.00    -0.077 A  
HETATM   16  C   UNL     1     -10.728   5.871  68.950  1.00  0.00    -0.370 A  
BRANCH  14  17
HETATM   17  C   UNL     1     -10.946   9.480  70.264  1.00  0.00    -0.269 A  
HETATM   18  N   UNL     1     -11.860   9.685  71.241  1.00  0.00    -0.351 NA 
HETATM   19  C   UNL     1     -12.419  10.900  71.336  1.00  0.00    -0.355 A  
HETATM   20  N   UNL     1     -12.212  11.925  70.502  1.00  0.00    -0.363 NA 
HETATM   21  N   UNL     1     -13.359  11.090  72.329  1.00  0.00    -0.562 NA 
HETATM   22  H1  UNL     1     -13.785  12.013  72.401  1.00  0.00     0.000 HD 
HETATM   23  C   UNL     1     -11.292  11.710  69.557  1.00  0.00    -0.260 A  
HETATM   24  H2  UNL     1     -13.617  10.336  72.966  1.00  0.00     0.000 HD 
HETATM   25  C   UNL     1     -10.594  10.526  69.425  1.00  0.00    -0.269 A  
BRANCH  23  26
HETATM   26  O   UNL     1     -11.103  12.640  68.550  1.00  0.00    -0.237 OA 
BRANCH  26  27
HETATM   27  C   UNL     1      -9.805  13.278  68.459  1.00  0.00    -0.168 C  
HETATM   28  C   UNL     1      -8.721  12.521  67.651  1.00  0.00    -0.177 C  
HETATM   29  F   UNL     1      -9.055  11.252  67.325  1.00  0.00    -0.150 F  
HETATM   30  F   UNL     1      -7.581  12.444  68.399  1.00  0.00    -0.102 F  
HETATM   31  F   UNL     1      -8.359  13.152  66.507  1.00  0.00    -0.064 F  
BRANCH  27  32
HETATM   32  C   UNL     1      -9.952  14.767  68.016  1.00  0.00    -0.218 A  
HETATM   33  C   UNL     1      -9.213  15.718  68.761  1.00  0.00    -0.216 A  
HETATM   34  C   UNL     1      -9.371  17.092  68.562  1.00  0.00    -0.274 A  
HETATM   35  C   UNL     1     -10.285  17.553  67.627  1.00  0.00    -0.343 A  
HETATM   36  C   UNL     1     -10.961  16.652  66.804  1.00  0.00     0.078 A  
HETATM   37 CL   UNL     1     -10.580  19.241  67.474  1.00  0.00    -0.557 Cl 
HETATM   38  C   UNL     1     -10.757  15.264  66.948  1.00  0.00    -0.313 A  
BRANCH  38  39
HETATM   39  N   UNL     1     -11.351  14.400  65.981  1.00  0.00    -0.330 NA 
HETATM   40  C   UNL     1     -12.632  13.880  65.928  1.00  0.00    -0.456 A  
HETATM   41  C   UNL     1     -12.631  12.942  64.920  1.00  0.00    -0.525 A  
HETATM   42  C   UNL     1     -11.346  13.025  64.368  1.00  0.00    -0.357 A  
HETATM   43  N   UNL     1     -10.654  14.020  64.900  1.00  0.00    -0.404 NA 
HETATM   44  C   UNL     1     -10.688  12.174  63.345  1.00  0.00    -0.461 C  
ENDBRANCH  38  39
ENDBRANCH  27  32
ENDBRANCH  26  27
ENDBRANCH  23  26
ENDBRANCH  14  17
ENDBRANCH  10  11
ENDBRANCH   6  10
ENDBRANCH   4   6
ENDBRANCH   3   4
ENDBRANCH   2   3
TORSDOF 10
ENDMDL
MODEL       85
REMARK 921   NORMALIZED FREE ENERGY PREDICTED BY IDOCK:   -5.87 KCAL/MOL
REMARK 922        TOTAL FREE ENERGY PREDICTED BY IDOCK:  -11.64 KCAL/MOL
REMARK 923 INTER-LIGAND FREE ENERGY PREDICTED BY IDOCK:   -9.63 KCAL/MOL
REMARK 924 INTRA-LIGAND FREE ENERGY PREDICTED BY IDOCK:   -2.01 KCAL/MOL
REMARK 927      BINDING AFFINITY PREDICTED BY RF-SCORE:    0.00 PKD
ROOT
HETATM    1  C   UNL     1     -13.999  15.828  72.826  1.00  0.00    -0.541 C  
HETATM    2  C   UNL     1     -13.934  15.180  71.455  1.00  0.00    -0.522 C  
ENDROOT
BRANCH   2   3
HETATM    3  O   UNL     1     -13.052  15.964  70.643  1.00  0.00    -0.467 OA 
BRANCH   3   4
HETATM    4  C   UNL     1     -11.720  15.756  70.882  1.00  0.00    -0.406 C  
HETATM    5  O   UNL     1     -11.182  15.825  71.979  1.00  0.00    -0.304 OA 
BRANCH   4   6
HETATM    6  C   UNL     1     -11.034  15.390  69.559  1.00  0.00    -0.275 C  
HETATM    7  N   UNL     1      -9.652  14.938  69.842  1.00  0.00    -0.436 NA 
HETATM    8  H2  UNL     1      -9.623  14.175  70.518  1.00  0.00     0.000 HD 
HETATM    9  H1  UNL     1      -9.196  14.695  68.962  1.00  0.00     0.000 HD 
BRANCH   6  10
HETATM   10  C   UNL     1     -11.846  14.318  68.800  1.00  0.00    -0.377 C  
BRANCH  10  11
HETATM   11  C   UNL     1     -11.583  12.864  69.170  1.00  0.00    -0.375 A  
HETATM   12  C   UNL     1     -10.797  12.001  68.401  1.00  0.00    -0.266 A  
HETATM   13  C   UNL     1     -10.610  10.650  68.785  1.00  0.00    -0.234 A  
HETATM   14  C   UNL     1     -11.203  10.100  69.943  1.00  0.00    -0.343 A  
HETATM   15  C   UNL     1     -11.921  11.012  70.737  1.00  0.00    -0.436 A  
HETATM   16  C   UNL     1     -12.114  12.353  70.358  1.00  0.00    -0.381 A  
BRANCH  14  17
HETATM   17  C   UNL     1     -11.159   8.627  70.247  1.00  0.00    -0.217 A  
HETATM   18  N   UNL     1     -12.083   8.157  71.118  1.00  0.00    -0.289 NA 
HETATM   19  C   UNL     1     -11.959   6.893  71.546  1.00  0.00    -0.344 A  
HETATM   20  N   UNL     1     -10.956   6.059  71.248  1.00  0.00    -0.274 NA 
HETATM   21  N   UNL     1     -12.901   6.433  72.444  1.00  0.00    -0.508 NA 
HETATM   22  H1  UNL     1     -12.807   5.471  72.770  1.00  0.00     0.000 HD 
HETATM   23  C   UNL     1     -10.066   6.533  70.372  1.00  0.00    -0.184 A  
HETATM   24  H2  UNL     1     -13.661   7.031  72.769  1.00  0.00     0.000 HD 
HETATM   25  C   UNL     1     -10.148   7.789  69.803  1.00  0.00    -0.194 A  
BRANCH  23  26
HETATM   26  O   UNL     1      -8.910   5.822  70.105  1.00  0.00    -0.136 OA 
BRANCH  26  27
HETATM   27  C   UNL     1      -8.170   6.167  68.908  1.00  0.00    -0.112 C  
HETATM   28  C   UNL     1      -6.627   6.213  69.042  1.00  0.00    -0.051 C  
HETATM   29  F   UNL     1      -6.177   6.149  70.315  1.00  0.00    -0.026 F  
HETATM   30  F   UNL     1      -6.170   7.392  68.526  1.00  0.00    -0.030 F  
HETATM   31  F   UNL     1      -5.993   5.244  68.338  1.00  0.00    -0.017 F  
BRANCH  27  32
HETATM   32  C   UNL     1      -8.640   5.301  67.698  1.00  0.00    -0.104 A  
HETATM   33  C   UNL     1      -8.973   3.955  67.983  1.00  0.00    -0.155 A  
HETATM   34  C   UNL     1      -9.264   3.038  66.969  1.00  0.00    -0.190 A  
HETATM   35  C   UNL     1      -9.212   3.438  65.643  1.00  0.00    -0.154 A  
HETATM   36  C   UNL     1      -8.986   4.776  65.322  1.00  0.00    -0.151 A  
HETATM   37 CL   UNL     1      -9.438   2.283  64.387  1.00  0.00    -0.138 Cl 
HETATM   38  C   UNL     1      -8.759   5.725  66.341  1.00  0.00    -0.128 A  
BRANCH  38  39
HETATM   39  N   UNL     1      -8.691   7.099  65.968  1.00  0.00    -0.151 NA 
HETATM   40  C   UNL     1      -9.595   8.122  66.191  1.00  0.00    -0.118 A  
HETATM   41  C   UNL     1      -9.160   9.198  65.448  1.00  0.00    -0.271 A  
HETATM   42  C   UNL     1      -7.952   8.766  64.885  1.00  0.00    -0.135 A  
HETATM   43  N   UNL     1      -7.602   7.575  65.345  1.00  0.00    -0.089 NA 
HETATM   44  C   UNL     1      -7.078   9.419  63.879  1.00  0.00    -0.099 C  
ENDBRANCH  38  39
ENDBRANCH  27  32
ENDBRANCH  26  27
ENDBRANCH  23  26
ENDBRANCH  14  17
ENDBRANCH  10  11
ENDBRANCH   6  10
ENDBRANCH   4   6
ENDBRANCH   3   4
ENDBRANCH   2   3
TORSDOF 10
ENDMDL
MODEL       86
REMARK 921   NORMALIZED FREE ENERGY PREDICTED BY IDOCK:   -5.85 KCAL/MOL
REMARK 922        TOTAL FREE ENERGY PREDICTED BY IDOCK:  -11.61 KCAL/MOL
REMARK 923 INTER-LIGAND FREE ENERGY PREDICTED BY IDOCK:  -10.41 KCAL/MOL
REMARK 924 INTRA-LIGAND FREE ENERGY PREDICTED BY IDOCK:   -1.20 KCAL/MOL
REMARK 927      BINDING AFFINITY PREDICTED BY RF-SCORE:    0.00 PKD
ROOT
HETATM    1  C   UNL     1      -8.326   3.039  68.623  1.00  0.00    -0.085 C  
HETATM    2  C   UNL     1      -9.604   3.685  69.129  1.00  0.00    -0.102 C  
ENDROOT
BRANCH   2   3
HETATM    3  O   UNL     1      -9.384   5.099  69.188  1.00  0.00    -0.111 OA 
BRANCH   3   4
HETATM    4  C   UNL     1     -10.436   5.859  68.754  1.00  0.00    -0.249 C  
HETATM    5  O   UNL     1     -11.326   6.303  69.468  1.00  0.00    -0.409 OA 
BRANCH   4   6
HETATM    6  C   UNL     1     -10.290   6.085  67.244  1.00  0.00    -0.223 C  
HETATM    7  N   UNL     1     -11.599   6.507  66.691  1.00  0.00    -0.524 NA 
HETATM    8  H2  UNL     1     -11.979   7.323  67.171  1.00  0.00     0.000 HD 
HETATM    9  H1  UNL     1     -11.501   6.658  65.687  1.00  0.00     0.000 HD 
BRANCH   6  10
HETATM   10  C   UNL     1      -9.182   7.119  66.950  1.00  0.00    -0.174 C  
BRANCH  10  11
HETATM   11  C   UNL     1      -9.611   8.577  66.835  1.00  0.00    -0.257 A  
HETATM   12  C   UNL     1     -10.036   9.345  67.923  1.00  0.00    -0.220 A  
HETATM   13  C   UNL     1     -10.446  10.689  67.749  1.00  0.00    -0.258 A  
HETATM   14  C   UNL     1     -10.458  11.323  66.487  1.00  0.00    -0.299 A  
HETATM   15  C   UNL     1      -9.950  10.551  65.426  1.00  0.00    -0.353 A  
HETATM   16  C   UNL     1      -9.546   9.215  65.592  1.00  0.00    -0.287 A  
BRANCH  14  17
HETATM   17  C   UNL     1     -11.069  12.681  66.274  1.00  0.00    -0.293 A  
HETATM   18  N   UNL     1     -11.552  12.946  65.037  1.00  0.00    -0.318 NA 
HETATM   19  C   UNL     1     -11.936  14.201  64.766  1.00  0.00    -0.431 A  
HETATM   20  N   UNL     1     -11.821  15.250  65.588  1.00  0.00     0.042 NA 
HETATM   21  N   UNL     1     -12.414  14.457  63.497  1.00  0.00    -1.090 NA 
HETATM   22  H1  UNL     1     -12.706  15.412  63.290  1.00  0.00     0.000 HD 
HETATM   23  C   UNL     1     -11.362  14.966  66.809  1.00  0.00    -0.328 A  
HETATM   24  H2  UNL     1     -12.473  13.721  62.793  1.00  0.00     0.000 HD 
HETATM   25  C   UNL     1     -11.020  13.693  67.221  1.00  0.00    -0.299 A  
BRANCH  23  26
HETATM   26  O   UNL     1     -11.060  15.989  67.691  1.00  0.00    -0.317 OA 
BRANCH  26  27
HETATM   27  C   UNL     1      -9.953  16.862  67.355  1.00  0.00    -0.269 C  
HETATM   28  C   UNL     1     -10.215  18.384  67.479  1.00  0.00    -0.374 C  
HETATM   29  F   UNL     1     -11.513  18.712  67.666  1.00  0.00    -0.186 F  
HETATM   30  F   UNL     1      -9.819  19.000  66.326  1.00  0.00    -0.336 F  
HETATM   31  F   UNL     1      -9.500  18.977  68.466  1.00  0.00    -0.339 F  
BRANCH  27  32
HETATM   32  C   UNL     1      -8.653  16.415  68.093  1.00  0.00    -0.193 A  
HETATM   33  C   UNL     1      -8.777  15.306  68.965  1.00  0.00    -0.226 A  
HETATM   34  C   UNL     1      -7.728  14.901  69.795  1.00  0.00     0.009 A  
HETATM   35  C   UNL     1      -6.534  15.605  69.789  1.00  0.00    -0.169 A  
HETATM   36  C   UNL     1      -6.335  16.642  68.877  1.00  0.00    -0.164 A  
HETATM   37 CL   UNL     1      -5.288  15.195  70.903  1.00  0.00    -0.139 Cl 
HETATM   38  C   UNL     1      -7.363  17.014  67.985  1.00  0.00    -0.180 A  
BRANCH  38  39
HETATM   39  N   UNL     1      -7.053  17.969  66.973  1.00  0.00    -0.190 NA 
HETATM   40  C   UNL     1      -6.911  17.795  65.608  1.00  0.00    -0.074 A  
HETATM   41  C   UNL     1      -6.402  18.977  65.114  1.00  0.00    -0.309 A  
HETATM   42  C   UNL     1      -6.353  19.826  66.228  1.00  0.00    -0.183 A  
HETATM   43  N   UNL     1      -6.906  19.264  67.291  1.00  0.00    -0.195 NA 
HETATM   44  C   UNL     1      -5.770  21.184  66.370  1.00  0.00    -0.306 C  
ENDBRANCH  38  39
ENDBRANCH  27  32
ENDBRANCH  26  27
ENDBRANCH  23  26
ENDBRANCH  14  17
ENDBRANCH  10  11
ENDBRANCH   6  10
ENDBRANCH   4   6
ENDBRANCH   3   4
ENDBRANCH   2   3
TORSDOF 10
ENDMDL
MODEL       87
REMARK 921   NORMALIZED FREE ENERGY PREDICTED BY IDOCK:   -5.85 KCAL/MOL
REMARK 922        TOTAL FREE ENERGY PREDICTED BY IDOCK:  -11.60 KCAL/MOL
REMARK 923 INTER-LIGAND FREE ENERGY PREDICTED BY IDOCK:  -10.87 KCAL/MOL
REMARK 924 INTRA-LIGAND FREE ENERGY PREDICTED BY IDOCK:   -0.73 KCAL/MOL
REMARK 927      BINDING AFFINITY PREDICTED BY RF-SCORE:    0.00 PKD
ROOT
HETATM    1  C   UNL     1     -12.872  11.191  71.459  1.00  0.00    -0.542 C  
HETATM    2  C   UNL     1     -13.322   9.742  71.412  1.00  0.00    -0.371 C  
ENDROOT
BRANCH   2   3
HETATM    3  O   UNL     1     -12.347   8.959  72.110  1.00  0.00    -0.357 OA 
BRANCH   3   4
HETATM    4  C   UNL     1     -12.140   7.710  71.591  1.00  0.00    -0.306 C  
HETATM    5  O   UNL     1     -12.985   7.039  71.013  1.00  0.00    -0.326 OA 
BRANCH   4   6
HETATM    6  C   UNL     1     -10.676   7.316  71.824  1.00  0.00    -0.218 C  
HETATM    7  N   UNL     1     -10.634   6.033  72.564  1.00  0.00    -0.206 NA 
HETATM    8  H2  UNL     1     -11.165   5.297  72.098  1.00  0.00     0.000 HD 
HETATM    9  H1  UNL     1      -9.660   5.771  72.719  1.00  0.00     0.000 HD 
BRANCH   6  10
HETATM   10  C   UNL     1      -9.912   7.231  70.485  1.00  0.00    -0.191 C  
BRANCH  10  11
HETATM   11  C   UNL     1     -10.023   8.430  69.550  1.00  0.00    -0.190 A  
HETATM   12  C   UNL     1      -9.668   9.731  69.918  1.00  0.00    -0.273 A  
HETATM   13  C   UNL     1      -9.817  10.810  69.012  1.00  0.00    -0.208 A  
HETATM   14  C   UNL     1     -10.332  10.641  67.708  1.00  0.00    -0.239 A  
HETATM   15  C   UNL     1     -10.604   9.311  67.340  1.00  0.00    -0.324 A  
HETATM   16  C   UNL     1     -10.462   8.237  68.237  1.00  0.00    -0.211 A  
BRANCH  14  17
HETATM   17  C   UNL     1     -10.665  11.807  66.817  1.00  0.00    -0.253 A  
HETATM   18  N   UNL     1     -11.599  11.595  65.860  1.00  0.00    -0.320 NA 
HETATM   19  C   UNL     1     -11.787  12.552  64.941  1.00  0.00    -0.386 A  
HETATM   20  N   UNL     1     -11.082  13.684  64.833  1.00  0.00    -0.334 NA 
HETATM   21  N   UNL     1     -12.733  12.316  63.964  1.00  0.00    -0.686 NA 
HETATM   22  H1  UNL     1     -12.876  13.044  63.264  1.00  0.00     0.000 HD 
HETATM   23  C   UNL     1     -10.180  13.885  65.797  1.00  0.00    -0.318 A  
HETATM   24  H2  UNL     1     -13.268  11.448  63.942  1.00  0.00     0.000 HD 
HETATM   25  C   UNL     1      -9.967  13.004  66.840  1.00  0.00    -0.243 A  
BRANCH  23  26
HETATM   26  O   UNL     1      -9.292  14.942  65.707  1.00  0.00    -0.272 OA 
BRANCH  26  27
HETATM   27  C   UNL     1      -9.379  15.981  66.713  1.00  0.00    -0.238 C  
HETATM   28  C   UNL     1     -10.747  16.136  67.425  1.00  0.00    -0.291 C  
HETATM   29  F   UNL     1     -11.752  15.433  66.858  1.00  0.00    -0.243 F  
HETATM   30  F   UNL     1     -11.121  17.449  67.391  1.00  0.00    -0.266 F  
HETATM   31  F   UNL     1     -10.713  15.807  68.740  1.00  0.00    -0.219 F  
BRANCH  27  32
HETATM   32  C   UNL     1      -8.189  15.881  67.716  1.00  0.00    -0.157 A  
HETATM   33  C   UNL     1      -7.801  14.574  68.100  1.00  0.00    -0.135 A  
HETATM   34  C   UNL     1      -6.852  14.352  69.102  1.00  0.00    -0.120 A  
HETATM   35  C   UNL     1      -6.279  15.430  69.759  1.00  0.00    -0.157 A  
HETATM   36  C   UNL     1      -6.558  16.733  69.346  1.00  0.00    -0.228 A  
HETATM   37 CL   UNL     1      -5.212  15.161  71.082  1.00  0.00    -0.140 Cl 
HETATM   38  C   UNL     1      -7.462  16.967  68.289  1.00  0.00    -0.207 A  
BRANCH  38  39
HETATM   39  N   UNL     1      -7.590  18.303  67.806  1.00  0.00    -0.224 NA 
HETATM   40  C   UNL     1      -8.421  19.322  68.236  1.00  0.00    -0.331 A  
HETATM   41  C   UNL     1      -8.310  20.334  67.308  1.00  0.00    -0.404 A  
HETATM   42  C   UNL     1      -7.336  19.878  66.411  1.00  0.00    -0.272 A  
HETATM   43  N   UNL     1      -6.794  18.742  66.820  1.00  0.00    -0.192 NA 
HETATM   44  C   UNL     1      -6.878  20.454  65.122  1.00  0.00    -0.275 C  
ENDBRANCH  38  39
ENDBRANCH  27  32
ENDBRANCH  26  27
ENDBRANCH  23  26
ENDBRANCH  14  17
ENDBRANCH  10  11
ENDBRANCH   6  10
ENDBRANCH   4   6
ENDBRANCH   3   4
ENDBRANCH   2   3
TORSDOF 10
ENDMDL
MODEL       88
REMARK 921   NORMALIZED FREE ENERGY PREDICTED BY IDOCK:   -5.83 KCAL/MOL
REMARK 922        TOTAL FREE ENERGY PREDICTED BY IDOCK:  -11.57 KCAL/MOL
REMARK 923 INTER-LIGAND FREE ENERGY PREDICTED BY IDOCK:   -9.44 KCAL/MOL
REMARK 924 INTRA-LIGAND FREE ENERGY PREDICTED BY IDOCK:   -2.13 KCAL/MOL
REMARK 927      BINDING AFFINITY PREDICTED BY RF-SCORE:    0.00 PKD
ROOT
HETATM    1  C   UNL     1      -9.052   4.787  64.762  1.00  0.00    -0.129 C  
HETATM    2  C   UNL     1      -7.823   3.936  65.024  1.00  0.00    -0.086 C  
ENDROOT
BRANCH   2   3
HETATM    3  O   UNL     1      -8.190   2.915  65.959  1.00  0.00    -0.085 OA 
BRANCH   3   4
HETATM    4  C   UNL     1      -7.997   3.248  67.273  1.00  0.00    -0.078 C  
HETATM    5  O   UNL     1      -6.939   3.629  67.754  1.00  0.00    -0.050 OA 
BRANCH   4   6
HETATM    6  C   UNL     1      -9.328   3.095  68.021  1.00  0.00    -0.194 C  
HETATM    7  N   UNL     1      -9.647   1.653  68.148  1.00  0.00    -0.334 NA 
HETATM    8  H2  UNL     1      -8.892   1.125  68.587  1.00  0.00     0.000 HD 
HETATM    9  H1  UNL     1     -10.531   1.552  68.645  1.00  0.00     0.000 HD 
BRANCH   6  10
HETATM   10  C   UNL     1      -9.266   3.793  69.397  1.00  0.00    -0.226 C  
BRANCH  10  11
HETATM   11  C   UNL     1      -9.771   5.229  69.465  1.00  0.00    -0.246 A  
HETATM   12  C   UNL     1      -9.332   6.243  68.608  1.00  0.00    -0.122 A  
HETATM   13  C   UNL     1      -9.821   7.567  68.737  1.00  0.00    -0.166 A  
HETATM   14  C   UNL     1     -10.757   7.938  69.726  1.00  0.00    -0.233 A  
HETATM   15  C   UNL     1     -11.239   6.881  70.520  1.00  0.00    -0.353 A  
HETATM   16  C   UNL     1     -10.754   5.567  70.399  1.00  0.00    -0.321 A  
BRANCH  14  17
HETATM   17  C   UNL     1     -11.131   9.373  69.982  1.00  0.00    -0.221 A  
HETATM   18  N   UNL     1     -12.026   9.602  70.972  1.00  0.00    -0.322 NA 
HETATM   19  C   UNL     1     -12.514  10.843  71.105  1.00  0.00    -0.405 A  
HETATM   20  N   UNL     1     -12.253  11.878  70.299  1.00  0.00    -0.299 NA 
HETATM   21  N   UNL     1     -13.435  11.058  72.110  1.00  0.00    -0.529 NA 
HETATM   22  H1  UNL     1     -13.807  12.002  72.211  1.00  0.00     0.000 HD 
HETATM   23  C   UNL     1     -11.353  11.639  69.341  1.00  0.00    -0.278 A  
HETATM   24  H2  UNL     1     -13.733  10.302  72.727  1.00  0.00     0.000 HD 
HETATM   25  C   UNL     1     -10.725  10.420  69.170  1.00  0.00    -0.266 A  
BRANCH  23  26
HETATM   26  O   UNL     1     -11.116  12.584  68.360  1.00  0.00    -0.228 OA 
BRANCH  26  27
HETATM   27  C   UNL     1     -11.320  12.188  66.981  1.00  0.00    -0.337 C  
HETATM   28  C   UNL     1     -11.894  13.269  66.031  1.00  0.00    -0.395 C  
HETATM   29  F   UNL     1     -12.347  14.377  66.659  1.00  0.00    -0.449 F  
HETATM   30  F   UNL     1     -12.956  12.745  65.350  1.00  0.00    -0.500 F  
HETATM   31  F   UNL     1     -11.019  13.672  65.077  1.00  0.00    -0.298 F  
BRANCH  27  32
HETATM   32  C   UNL     1     -10.038  11.506  66.407  1.00  0.00    -0.250 A  
HETATM   33  C   UNL     1     -10.248  10.399  65.550  1.00  0.00    -0.316 A  
HETATM   34  C   UNL     1      -9.189   9.612  65.091  1.00  0.00    -0.305 A  
HETATM   35  C   UNL     1      -7.893   9.900  65.492  1.00  0.00    -0.126 A  
HETATM   36  C   UNL     1      -7.631  11.038  66.254  1.00  0.00    -0.111 A  
HETATM   37 CL   UNL     1      -6.601   8.856  65.039  1.00  0.00    -0.068 Cl 
HETATM   38  C   UNL     1      -8.686  11.879  66.666  1.00  0.00    -0.185 A  
BRANCH  38  39
HETATM   39  N   UNL     1      -8.347  13.107  67.306  1.00  0.00    -0.187 NA 
HETATM   40  C   UNL     1      -8.547  14.409  66.882  1.00  0.00    -0.164 A  
HETATM   41  C   UNL     1      -7.852  15.215  67.757  1.00  0.00    -0.161 A  
HETATM   42  C   UNL     1      -7.342  14.330  68.716  1.00  0.00    -0.131 A  
HETATM   43  N   UNL     1      -7.792  13.099  68.527  1.00  0.00    -0.129 NA 
HETATM   44  C   UNL     1      -6.396  14.572  69.834  1.00  0.00    -0.157 C  
ENDBRANCH  38  39
ENDBRANCH  27  32
ENDBRANCH  26  27
ENDBRANCH  23  26
ENDBRANCH  14  17
ENDBRANCH  10  11
ENDBRANCH   6  10
ENDBRANCH   4   6
ENDBRANCH   3   4
ENDBRANCH   2   3
TORSDOF 10
ENDMDL
MODEL       89
REMARK 921   NORMALIZED FREE ENERGY PREDICTED BY IDOCK:   -5.80 KCAL/MOL
REMARK 922        TOTAL FREE ENERGY PREDICTED BY IDOCK:  -11.54 KCAL/MOL
REMARK 923 INTER-LIGAND FREE ENERGY PREDICTED BY IDOCK:   -9.73 KCAL/MOL
REMARK 924 INTRA-LIGAND FREE ENERGY PREDICTED BY IDOCK:   -1.81 KCAL/MOL
REMARK 927      BINDING AFFINITY PREDICTED BY RF-SCORE:    0.00 PKD
ROOT
HETATM    1  C   UNL     1     -10.562  15.613  66.808  1.00  0.00    -0.307 C  
HETATM    2  C   UNL     1     -10.543  15.924  65.323  1.00  0.00    -0.419 C  
ENDROOT
BRANCH   2   3
HETATM    3  O   UNL     1     -10.692  14.687  64.616  1.00  0.00    -0.393 OA 
BRANCH   3   4
HETATM    4  C   UNL     1     -11.936  14.481  64.084  1.00  0.00    -0.321 C  
HETATM    5  O   UNL     1     -12.805  15.335  63.971  1.00  0.00    -0.613 OA 
BRANCH   4   6
HETATM    6  C   UNL     1     -12.039  13.020  63.626  1.00  0.00    -0.531 C  
HETATM    7  N   UNL     1     -10.726  12.587  63.094  1.00  0.00    -0.606 NA 
HETATM    8  H2  UNL     1      -9.969  12.732  63.762  1.00  0.00     0.000 HD 
HETATM    9  H1  UNL     1     -10.795  11.616  62.790  1.00  0.00     0.000 HD 
BRANCH   6  10
HETATM   10  C   UNL     1     -12.517  12.116  64.783  1.00  0.00    -0.264 C  
BRANCH  10  11
HETATM   11  C   UNL     1     -11.491  11.768  65.855  1.00  0.00    -0.273 A  
HETATM   12  C   UNL     1     -10.357  10.986  65.614  1.00  0.00    -0.311 A  
HETATM   13  C   UNL     1      -9.452  10.676  66.658  1.00  0.00    -0.195 A  
HETATM   14  C   UNL     1      -9.640  11.122  67.985  1.00  0.00    -0.181 A  
HETATM   15  C   UNL     1     -10.745  11.971  68.179  1.00  0.00    -0.246 A  
HETATM   16  C   UNL     1     -11.649  12.279  67.146  1.00  0.00    -0.423 A  
BRANCH  14  17
HETATM   17  C   UNL     1      -8.786  10.638  69.125  1.00  0.00    -0.126 A  
HETATM   18  N   UNL     1      -7.563  11.204  69.253  1.00  0.00    -0.097 NA 
HETATM   19  C   UNL     1      -6.712  10.673  70.142  1.00  0.00    -0.140 A  
HETATM   20  N   UNL     1      -6.931   9.577  70.877  1.00  0.00    -0.243 NA 
HETATM   21  N   UNL     1      -5.465  11.253  70.251  1.00  0.00    -0.097 NA 
HETATM   22  H1  UNL     1      -4.818  10.848  70.927  1.00  0.00     0.000 HD 
HETATM   23  C   UNL     1      -8.150   9.044  70.752  1.00  0.00    -0.166 A  
HETATM   24  H2  UNL     1      -5.200  12.055  69.678  1.00  0.00     0.000 HD 
HETATM   25  C   UNL     1      -9.131   9.564  69.930  1.00  0.00    -0.237 A  
BRANCH  23  26
HETATM   26  O   UNL     1      -8.439   7.828  71.345  1.00  0.00    -0.111 OA 
BRANCH  26  27
HETATM   27  C   UNL     1      -7.769   6.652  70.829  1.00  0.00    -0.097 C  
HETATM   28  C   UNL     1      -7.320   5.601  71.876  1.00  0.00    -0.093 C  
HETATM   29  F   UNL     1      -7.406   6.020  73.158  1.00  0.00    -0.088 F  
HETATM   30  F   UNL     1      -6.009   5.286  71.657  1.00  0.00    -0.020 F  
HETATM   31  F   UNL     1      -7.991   4.427  71.787  1.00  0.00    -0.079 F  
BRANCH  27  32
HETATM   32  C   UNL     1      -8.583   6.020  69.658  1.00  0.00    -0.126 A  
HETATM   33  C   UNL     1      -7.828   5.465  68.597  1.00  0.00    -0.087 A  
HETATM   34  C   UNL     1      -8.433   5.004  67.424  1.00  0.00    -0.105 A  
HETATM   35  C   UNL     1      -9.808   5.103  67.274  1.00  0.00    -0.168 A  
HETATM   36  C   UNL     1     -10.599   5.552  68.331  1.00  0.00    -0.210 A  
HETATM   37 CL   UNL     1     -10.543   4.662  65.782  1.00  0.00    -0.319 Cl 
HETATM   38  C   UNL     1     -10.004   5.955  69.546  1.00  0.00    -0.185 A  
BRANCH  38  39
HETATM   39  N   UNL     1     -10.866   6.254  70.642  1.00  0.00    -0.261 NA 
HETATM   40  C   UNL     1     -10.837   5.782  71.942  1.00  0.00    -0.252 A  
HETATM   41  C   UNL     1     -12.004   6.208  72.538  1.00  0.00    -0.171 A  
HETATM   42  C   UNL     1     -12.626   6.995  71.560  1.00  0.00    -0.385 A  
HETATM   43  N   UNL     1     -11.851   7.152  70.498  1.00  0.00    -0.278 NA 
HETATM   44  C   UNL     1     -13.975   7.616  71.548  1.00  0.00    -0.500 C  
ENDBRANCH  38  39
ENDBRANCH  27  32
ENDBRANCH  26  27
ENDBRANCH  23  26
ENDBRANCH  14  17
ENDBRANCH  10  11
ENDBRANCH   6  10
ENDBRANCH   4   6
ENDBRANCH   3   4
ENDBRANCH   2   3
TORSDOF 10
ENDMDL
MODEL       90
REMARK 921   NORMALIZED FREE ENERGY PREDICTED BY IDOCK:   -5.79 KCAL/MOL
REMARK 922        TOTAL FREE ENERGY PREDICTED BY IDOCK:  -11.52 KCAL/MOL
REMARK 923 INTER-LIGAND FREE ENERGY PREDICTED BY IDOCK:   -8.96 KCAL/MOL
REMARK 924 INTRA-LIGAND FREE ENERGY PREDICTED BY IDOCK:   -2.55 KCAL/MOL
REMARK 927      BINDING AFFINITY PREDICTED BY RF-SCORE:    0.00 PKD
ROOT
HETATM    1  C   UNL     1      -9.977  19.251  68.724  1.00  0.00    -0.511 C  
HETATM    2  C   UNL     1      -8.775  18.560  68.106  1.00  0.00    -0.310 C  
ENDROOT
BRANCH   2   3
HETATM    3  O   UNL     1      -9.004  18.465  66.695  1.00  0.00    -0.275 OA 
BRANCH   3   4
HETATM    4  C   UNL     1      -9.187  17.190  66.231  1.00  0.00    -0.231 C  
HETATM    5  O   UNL     1      -8.330  16.317  66.216  1.00  0.00    -0.303 OA 
BRANCH   4   6
HETATM    6  C   UNL     1     -10.642  17.038  65.770  1.00  0.00    -0.211 C  
HETATM    7  N   UNL     1     -11.031  18.239  64.994  1.00  0.00    -0.476 NA 
HETATM    8  H2  UNL     1     -10.395  18.422  64.217  1.00  0.00     0.000 HD 
HETATM    9  H1  UNL     1     -11.999  18.137  64.688  1.00  0.00     0.000 HD 
BRANCH   6  10
HETATM   10  C   UNL     1     -10.825  15.741  64.952  1.00  0.00    -0.433 C  
BRANCH  10  11
HETATM   11  C   UNL     1     -10.989  14.446  65.739  1.00  0.00    -0.314 A  
HETATM   12  C   UNL     1     -11.610  14.377  66.989  1.00  0.00    -0.402 A  
HETATM   13  C   UNL     1     -11.711  13.146  67.684  1.00  0.00    -0.414 A  
HETATM   14  C   UNL     1     -11.192  11.938  67.168  1.00  0.00    -0.377 A  
HETATM   15  C   UNL     1     -10.646  12.025  65.875  1.00  0.00    -0.302 A  
HETATM   16  C   UNL     1     -10.539  13.245  65.183  1.00  0.00    -0.342 A  
BRANCH  14  17
HETATM   17  C   UNL     1     -11.132  10.675  67.985  1.00  0.00    -0.301 A  
HETATM   18  N   UNL     1     -11.512  10.768  69.280  1.00  0.00    -0.275 NA 
HETATM   19  C   UNL     1     -11.301   9.711  70.076  1.00  0.00    -0.195 A  
HETATM   20  N   UNL     1     -10.675   8.580  69.728  1.00  0.00    -0.228 NA 
HETATM   21  N   UNL     1     -11.682   9.825  71.398  1.00  0.00    -0.390 NA 
HETATM   22  H1  UNL     1     -11.521   9.021  72.004  1.00  0.00     0.000 HD 
HETATM   23  C   UNL     1     -10.325   8.499  68.442  1.00  0.00    -0.202 A  
HETATM   24  H2  UNL     1     -12.109  10.681  71.755  1.00  0.00     0.000 HD 
HETATM   25  C   UNL     1     -10.574   9.495  67.517  1.00  0.00    -0.338 A  
BRANCH  23  26
HETATM   26  O   UNL     1      -9.542   7.447  68.001  1.00  0.00    -0.140 OA 
BRANCH  26  27
HETATM   27  C   UNL     1      -8.480   7.746  67.062  1.00  0.00    -0.124 C  
HETATM   28  C   UNL     1      -7.114   8.147  67.674  1.00  0.00    -0.087 C  
HETATM   29  F   UNL     1      -7.148   8.388  69.003  1.00  0.00    -0.062 F  
HETATM   30  F   UNL     1      -6.680   9.298  67.080  1.00  0.00    -0.070 F  
HETATM   31  F   UNL     1      -6.133   7.237  67.452  1.00  0.00    -0.037 F  
BRANCH  27  32
HETATM   32  C   UNL     1      -8.350   6.614  65.996  1.00  0.00    -0.134 A  
HETATM   33  C   UNL     1      -8.778   5.325  66.395  1.00  0.00    -0.118 A  
HETATM   34  C   UNL     1      -8.578   4.201  65.589  1.00  0.00    -0.114 A  
HETATM   35  C   UNL     1      -7.928   4.333  64.371  1.00  0.00    -0.087 A  
HETATM   36  C   UNL     1      -7.578   5.597  63.896  1.00  0.00    -0.074 A  
HETATM   37 CL   UNL     1      -7.560   2.935  63.438  1.00  0.00    -0.062 Cl 
HETATM   38  C   UNL     1      -7.839   6.747  64.670  1.00  0.00    -0.116 A  
BRANCH  38  39
HETATM   39  N   UNL     1      -7.605   8.019  64.072  1.00  0.00    -0.116 NA 
HETATM   40  C   UNL     1      -6.457   8.791  64.055  1.00  0.00    -0.076 A  
HETATM   41  C   UNL     1      -6.817  10.015  63.535  1.00  0.00    -0.133 A  
HETATM   42  C   UNL     1      -8.166   9.863  63.188  1.00  0.00    -0.155 A  
HETATM   43  N   UNL     1      -8.571   8.614  63.355  1.00  0.00    -0.076 NA 
HETATM   44  C   UNL     1      -9.150  10.867  62.711  1.00  0.00    -0.351 C  
ENDBRANCH  38  39
ENDBRANCH  27  32
ENDBRANCH  26  27
ENDBRANCH  23  26
ENDBRANCH  14  17
ENDBRANCH  10  11
ENDBRANCH   6  10
ENDBRANCH   4   6
ENDBRANCH   3   4
ENDBRANCH   2   3
TORSDOF 10
ENDMDL
MODEL       91
REMARK 921   NORMALIZED FREE ENERGY PREDICTED BY IDOCK:   -5.76 KCAL/MOL
REMARK 922        TOTAL FREE ENERGY PREDICTED BY IDOCK:  -11.47 KCAL/MOL
REMARK 923 INTER-LIGAND FREE ENERGY PREDICTED BY IDOCK:   -8.96 KCAL/MOL
REMARK 924 INTRA-LIGAND FREE ENERGY PREDICTED BY IDOCK:   -2.52 KCAL/MOL
REMARK 927      BINDING AFFINITY PREDICTED BY RF-SCORE:    0.00 PKD
ROOT
HETATM    1  C   UNL     1     -13.121  15.941  73.490  1.00  0.00    -0.676 C  
HETATM    2  C   UNL     1     -13.538  14.930  72.437  1.00  0.00    -0.450 C  
ENDROOT
BRANCH   2   3
HETATM    3  O   UNL     1     -13.567  15.604  71.173  1.00  0.00    -0.582 OA 
BRANCH   3   4
HETATM    4  C   UNL     1     -12.412  15.504  70.446  1.00  0.00    -0.402 C  
HETATM    5  O   UNL     1     -11.445  16.246  70.556  1.00  0.00    -0.367 OA 
BRANCH   4   6
HETATM    6  C   UNL     1     -12.523  14.296  69.507  1.00  0.00    -0.128 C  
HETATM    7  N   UNL     1     -12.187  14.725  68.129  1.00  0.00    -0.589 NA 
HETATM    8  H2  UNL     1     -11.274  15.177  68.074  1.00  0.00     0.000 HD 
HETATM    9  H1  UNL     1     -12.261  13.922  67.504  1.00  0.00     0.000 HD 
BRANCH   6  10
HETATM   10  C   UNL     1     -11.615  13.144  69.988  1.00  0.00    -0.202 C  
BRANCH  10  11
HETATM   11  C   UNL     1     -10.990  12.263  68.913  1.00  0.00    -0.265 A  
HETATM   12  C   UNL     1     -11.649  11.182  68.321  1.00  0.00    -0.359 A  
HETATM   13  C   UNL     1     -11.006  10.384  67.343  1.00  0.00    -0.335 A  
HETATM   14  C   UNL     1      -9.680  10.623  66.919  1.00  0.00    -0.213 A  
HETATM   15  C   UNL     1      -9.072  11.764  67.473  1.00  0.00    -0.175 A  
HETATM   16  C   UNL     1      -9.705  12.557  68.448  1.00  0.00    -0.189 A  
BRANCH  14  17
HETATM   17  C   UNL     1      -8.936   9.668  66.025  1.00  0.00    -0.162 A  
HETATM   18  N   UNL     1      -8.901   9.970  64.706  1.00  0.00    -0.178 NA 
HETATM   19  C   UNL     1      -8.405   9.054  63.863  1.00  0.00    -0.176 A  
HETATM   20  N   UNL     1      -8.000   7.823  64.194  1.00  0.00    -0.133 NA 
HETATM   21  N   UNL     1      -8.387   9.372  62.520  1.00  0.00    -0.160 NA 
HETATM   22  H1  UNL     1      -8.010   8.675  61.879  1.00  0.00     0.000 HD 
HETATM   23  C   UNL     1      -8.024   7.550  65.501  1.00  0.00    -0.121 A  
HETATM   24  H2  UNL     1      -8.738  10.269  62.182  1.00  0.00     0.000 HD 
HETATM   25  C   UNL     1      -8.434   8.453  66.463  1.00  0.00    -0.116 A  
BRANCH  23  26
HETATM   26  O   UNL     1      -7.773   6.264  65.946  1.00  0.00    -0.088 OA 
BRANCH  26  27
HETATM   27  C   UNL     1      -8.738   5.663  66.843  1.00  0.00    -0.113 C  
HETATM   28  C   UNL     1      -9.772   4.704  66.200  1.00  0.00    -0.203 C  
HETATM   29  F   UNL     1      -9.786   4.727  64.849  1.00  0.00    -0.155 F  
HETATM   30  F   UNL     1     -11.025   5.061  66.609  1.00  0.00    -0.286 F  
HETATM   31  F   UNL     1      -9.624   3.412  66.582  1.00  0.00    -0.201 F  
BRANCH  27  32
HETATM   32  C   UNL     1      -8.025   5.032  68.080  1.00  0.00    -0.087 A  
HETATM   33  C   UNL     1      -6.811   4.352  67.824  1.00  0.00    -0.055 A  
HETATM   34  C   UNL     1      -6.153   3.619  68.816  1.00  0.00    -0.028 A  
HETATM   35  C   UNL     1      -6.703   3.533  70.086  1.00  0.00    -0.033 A  
HETATM   36  C   UNL     1      -7.844   4.266  70.408  1.00  0.00    -0.052 A  
HETATM   37 CL   UNL     1      -5.969   2.524  71.273  1.00  0.00    -0.013 Cl 
HETATM   38  C   UNL     1      -8.478   5.065  69.433  1.00  0.00    -0.085 A  
BRANCH  38  39
HETATM   39  N   UNL     1      -9.543   5.913  69.856  1.00  0.00    -0.155 NA 
HETATM   40  C   UNL     1     -10.910   5.732  69.751  1.00  0.00    -0.349 A  
HETATM   41  C   UNL     1     -11.491   6.928  70.112  1.00  0.00    -0.354 A  
HETATM   42  C   UNL     1     -10.413   7.735  70.500  1.00  0.00    -0.217 A  
HETATM   43  N   UNL     1      -9.277   7.056  70.505  1.00  0.00    -0.159 NA 
HETATM   44  C   UNL     1     -10.377   9.175  70.859  1.00  0.00    -0.349 C  
ENDBRANCH  38  39
ENDBRANCH  27  32
ENDBRANCH  26  27
ENDBRANCH  23  26
ENDBRANCH  14  17
ENDBRANCH  10  11
ENDBRANCH   6  10
ENDBRANCH   4   6
ENDBRANCH   3   4
ENDBRANCH   2   3
TORSDOF 10
ENDMDL
MODEL       92
REMARK 921   NORMALIZED FREE ENERGY PREDICTED BY IDOCK:   -5.73 KCAL/MOL
REMARK 922        TOTAL FREE ENERGY PREDICTED BY IDOCK:  -11.42 KCAL/MOL
REMARK 923 INTER-LIGAND FREE ENERGY PREDICTED BY IDOCK:   -9.58 KCAL/MOL
REMARK 924 INTRA-LIGAND FREE ENERGY PREDICTED BY IDOCK:   -1.85 KCAL/MOL
REMARK 927      BINDING AFFINITY PREDICTED BY RF-SCORE:    0.00 PKD
ROOT
HETATM    1  C   UNL     1     -11.122   4.747  73.273  1.00  0.00    -0.411 C  
HETATM    2  C   UNL     1      -9.624   4.843  73.046  1.00  0.00    -0.135 C  
ENDROOT
BRANCH   2   3
HETATM    3  O   UNL     1      -9.413   5.211  71.678  1.00  0.00    -0.144 OA 
BRANCH   3   4
HETATM    4  C   UNL     1      -8.749   4.276  70.931  1.00  0.00    -0.088 C  
HETATM    5  O   UNL     1      -8.077   3.360  71.385  1.00  0.00    -0.059 OA 
BRANCH   4   6
HETATM    6  C   UNL     1      -9.018   4.551  69.445  1.00  0.00    -0.095 C  
HETATM    7  N   UNL     1      -8.989   3.268  68.705  1.00  0.00    -0.118 NA 
HETATM    8  H2  UNL     1      -9.631   2.578  69.095  1.00  0.00     0.000 HD 
HETATM    9  H1  UNL     1      -9.168   3.451  67.717  1.00  0.00     0.000 HD 
BRANCH   6  10
HETATM   10  C   UNL     1     -10.362   5.290  69.260  1.00  0.00    -0.286 C  
BRANCH  10  11
HETATM   11  C   UNL     1     -10.317   6.635  68.547  1.00  0.00    -0.216 A  
HETATM   12  C   UNL     1     -10.254   7.862  69.216  1.00  0.00    -0.216 A  
HETATM   13  C   UNL     1     -10.239   9.082  68.497  1.00  0.00    -0.224 A  
HETATM   14  C   UNL     1     -10.294   9.135  67.087  1.00  0.00    -0.337 A  
HETATM   15  C   UNL     1     -10.275   7.885  66.441  1.00  0.00    -0.071 A  
HETATM   16  C   UNL     1     -10.295   6.670  67.150  1.00  0.00    -0.319 A  
BRANCH  14  17
HETATM   17  C   UNL     1     -10.468  10.427  66.336  1.00  0.00    -0.177 A  
HETATM   18  N   UNL     1     -10.515  10.345  64.985  1.00  0.00    -0.185 NA 
HETATM   19  C   UNL     1     -10.488  11.487  64.284  1.00  0.00    -0.338 A  
HETATM   20  N   UNL     1     -10.346  12.716  64.792  1.00  0.00    -0.309 NA 
HETATM   21  N   UNL     1     -10.523  11.386  62.908  1.00  0.00    -0.690 NA 
HETATM   22  H1  UNL     1     -10.502  12.255  62.374  1.00  0.00     0.000 HD 
HETATM   23  C   UNL     1     -10.322  12.778  66.126  1.00  0.00    -0.269 A  
HETATM   24  H2  UNL     1     -10.568  10.479  62.443  1.00  0.00     0.000 HD 
HETATM   25  C   UNL     1     -10.430  11.671  66.946  1.00  0.00    -0.262 A  
BRANCH  23  26
HETATM   26  O   UNL     1     -10.029  13.973  66.760  1.00  0.00    -0.255 OA 
BRANCH  26  27
HETATM   27  C   UNL     1      -9.608  13.914  68.145  1.00  0.00    -0.218 C  
HETATM   28  C   UNL     1      -8.220  14.523  68.469  1.00  0.00    -0.154 C  
HETATM   29  F   UNL     1      -7.478  14.827  67.381  1.00  0.00    -0.166 F  
HETATM   30  F   UNL     1      -7.496  13.620  69.194  1.00  0.00    -0.104 F  
HETATM   31  F   UNL     1      -8.283  15.635  69.241  1.00  0.00    -0.188 F  
BRANCH  27  32
HETATM   32  C   UNL     1     -10.731  14.448  69.087  1.00  0.00    -0.254 A  
HETATM   33  C   UNL     1     -11.201  13.549  70.074  1.00  0.00     0.088 A  
HETATM   34  C   UNL     1     -12.302  13.851  70.881  1.00  0.00    -0.451 A  
HETATM   35  C   UNL     1     -12.973  15.052  70.709  1.00  0.00    -0.389 A  
HETATM   36  C   UNL     1     -12.485  16.007  69.817  1.00  0.00     0.232 A  
HETATM   37 CL   UNL     1     -14.407  15.371  71.605  1.00  0.00    -0.622 Cl 
HETATM   38  C   UNL     1     -11.333  15.741  69.048  1.00  0.00    -0.354 A  
BRANCH  38  39
HETATM   39  N   UNL     1     -10.790  16.807  68.273  1.00  0.00    -0.366 NA 
HETATM   40  C   UNL     1     -10.832  17.017  66.906  1.00  0.00    -0.013 A  
HETATM   41  C   UNL     1      -9.980  18.068  66.645  1.00  0.00    -0.362 A  
HETATM   42  C   UNL     1      -9.541  18.481  67.909  1.00  0.00    -0.300 A  
HETATM   43  N   UNL     1     -10.168  17.831  68.877  1.00  0.00    -0.374 NA 
HETATM   44  C   UNL     1      -8.505  19.476  68.284  1.00  0.00    -0.376 C  
ENDBRANCH  38  39
ENDBRANCH  27  32
ENDBRANCH  26  27
ENDBRANCH  23  26
ENDBRANCH  14  17
ENDBRANCH  10  11
ENDBRANCH   6  10
ENDBRANCH   4   6
ENDBRANCH   3   4
ENDBRANCH   2   3
TORSDOF 10
ENDMDL
MODEL       93
REMARK 921   NORMALIZED FREE ENERGY PREDICTED BY IDOCK:   -5.71 KCAL/MOL
REMARK 922        TOTAL FREE ENERGY PREDICTED BY IDOCK:  -11.39 KCAL/MOL
REMARK 923 INTER-LIGAND FREE ENERGY PREDICTED BY IDOCK:  -11.15 KCAL/MOL
REMARK 924 INTRA-LIGAND FREE ENERGY PREDICTED BY IDOCK:   -0.24 KCAL/MOL
REMARK 927      BINDING AFFINITY PREDICTED BY RF-SCORE:    0.00 PKD
ROOT
HETATM    1  C   UNL     1      -8.618   2.092  69.633  1.00  0.00    -0.102 C  
HETATM    2  C   UNL     1      -9.477   3.240  70.133  1.00  0.00    -0.163 C  
ENDROOT
BRANCH   2   3
HETATM    3  O   UNL     1      -9.105   3.506  71.490  1.00  0.00    -0.098 OA 
BRANCH   3   4
HETATM    4  C   UNL     1     -10.083   3.246  72.412  1.00  0.00    -0.155 C  
HETATM    5  O   UNL     1     -10.706   2.196  72.500  1.00  0.00    -0.126 OA 
BRANCH   4   6
HETATM    6  C   UNL     1     -10.236   4.469  73.325  1.00  0.00    -0.169 C  
HETATM    7  N   UNL     1      -9.001   5.284  73.251  1.00  0.00    -0.121 NA 
HETATM    8  H2  UNL     1      -8.763   5.542  72.293  1.00  0.00     0.000 HD 
HETATM    9  H1  UNL     1      -9.103   6.097  73.858  1.00  0.00     0.000 HD 
BRANCH   6  10
HETATM   10  C   UNL     1     -11.488   5.286  72.941  1.00  0.00    -0.339 C  
BRANCH  10  11
HETATM   11  C   UNL     1     -11.286   6.442  71.968  1.00  0.00    -0.338 A  
HETATM   12  C   UNL     1     -11.120   6.271  70.591  1.00  0.00    -0.389 A  
HETATM   13  C   UNL     1     -10.911   7.384  69.740  1.00  0.00    -0.246 A  
HETATM   14  C   UNL     1     -10.851   8.710  70.223  1.00  0.00    -0.250 A  
HETATM   15  C   UNL     1     -11.101   8.856  71.600  1.00  0.00    -0.420 A  
HETATM   16  C   UNL     1     -11.305   7.754  72.450  1.00  0.00    -0.400 A  
BRANCH  14  17
HETATM   17  C   UNL     1     -10.443   9.867  69.351  1.00  0.00    -0.231 A  
HETATM   18  N   UNL     1      -9.152  10.266  69.434  1.00  0.00    -0.201 NA 
HETATM   19  C   UNL     1      -8.803  11.400  68.810  1.00  0.00    -0.072 A  
HETATM   20  N   UNL     1      -9.633  12.226  68.164  1.00  0.00    -0.209 NA 
HETATM   21  N   UNL     1      -7.487  11.801  68.914  1.00  0.00    -0.222 NA 
HETATM   22  H1  UNL     1      -7.221  12.664  68.440  1.00  0.00     0.000 HD 
HETATM   23  C   UNL     1     -10.898  11.806  68.076  1.00  0.00    -0.213 A  
HETATM   24  H2  UNL     1      -6.806  11.256  69.444  1.00  0.00     0.000 HD 
HETATM   25  C   UNL     1     -11.345  10.611  68.607  1.00  0.00    -0.345 A  
BRANCH  23  26
HETATM   26  O   UNL     1     -11.873  12.643  67.565  1.00  0.00    -0.366 OA 
BRANCH  26  27
HETATM   27  C   UNL     1     -12.025  13.949  68.173  1.00  0.00    -0.350 C  
HETATM   28  C   UNL     1     -12.154  13.978  69.717  1.00  0.00    -0.348 C  
HETATM   29  F   UNL     1     -12.339  12.765  70.283  1.00  0.00    -0.373 F  
HETATM   30  F   UNL     1     -13.238  14.737  70.059  1.00  0.00    -0.214 F  
HETATM   31  F   UNL     1     -11.099  14.559  70.338  1.00  0.00    -0.253 F  
BRANCH  27  32
HETATM   32  C   UNL     1     -10.936  14.935  67.645  1.00  0.00    -0.300 A  
HETATM   33  C   UNL     1     -10.236  15.679  68.624  1.00  0.00    -0.212 A  
HETATM   34  C   UNL     1      -9.345  16.699  68.277  1.00  0.00    -0.224 A  
HETATM   35  C   UNL     1      -9.145  17.013  66.942  1.00  0.00    -0.236 A  
HETATM   36  C   UNL     1      -9.739  16.242  65.943  1.00  0.00    -0.354 A  
HETATM   37 CL   UNL     1      -8.154  18.354  66.514  1.00  0.00    -0.280 Cl 
HETATM   38  C   UNL     1     -10.585  15.166  66.281  1.00  0.00    -0.310 A  
BRANCH  38  39
HETATM   39  N   UNL     1     -11.036  14.317  65.228  1.00  0.00    -0.319 NA 
HETATM   40  C   UNL     1     -12.251  14.299  64.567  1.00  0.00    -0.455 A  
HETATM   41  C   UNL     1     -12.258  13.160  63.792  1.00  0.00    -0.528 A  
HETATM   42  C   UNL     1     -10.986  12.605  63.980  1.00  0.00    -0.406 A  
HETATM   43  N   UNL     1     -10.212  13.399  64.702  1.00  0.00    -0.358 NA 
HETATM   44  C   UNL     1     -10.433  11.304  63.524  1.00  0.00    -0.457 C  
ENDBRANCH  38  39
ENDBRANCH  27  32
ENDBRANCH  26  27
ENDBRANCH  23  26
ENDBRANCH  14  17
ENDBRANCH  10  11
ENDBRANCH   6  10
ENDBRANCH   4   6
ENDBRANCH   3   4
ENDBRANCH   2   3
TORSDOF 10
ENDMDL
MODEL       94
REMARK 921   NORMALIZED FREE ENERGY PREDICTED BY IDOCK:   -5.69 KCAL/MOL
REMARK 922        TOTAL FREE ENERGY PREDICTED BY IDOCK:  -11.36 KCAL/MOL
REMARK 923 INTER-LIGAND FREE ENERGY PREDICTED BY IDOCK:  -10.14 KCAL/MOL
REMARK 924 INTRA-LIGAND FREE ENERGY PREDICTED BY IDOCK:   -1.23 KCAL/MOL
REMARK 927      BINDING AFFINITY PREDICTED BY RF-SCORE:    0.00 PKD
ROOT
HETATM    1  C   UNL     1     -12.408  15.663  74.330  1.00  0.00    -0.802 C  
HETATM    2  C   UNL     1     -13.389  15.868  73.191  1.00  0.00    -0.587 C  
ENDROOT
BRANCH   2   3
HETATM    3  O   UNL     1     -13.539  14.616  72.513  1.00  0.00    -0.409 OA 
BRANCH   3   4
HETATM    4  C   UNL     1     -13.175  14.633  71.194  1.00  0.00    -0.372 C  
HETATM    5  O   UNL     1     -13.067  15.640  70.506  1.00  0.00    -0.436 OA 
BRANCH   4   6
HETATM    6  C   UNL     1     -12.894  13.194  70.741  1.00  0.00    -0.095 C  
HETATM    7  N   UNL     1     -11.499  13.106  70.250  1.00  0.00    -0.503 NA 
HETATM    8  H2  UNL     1     -10.823  13.436  70.939  1.00  0.00     0.000 HD 
HETATM    9  H1  UNL     1     -11.313  12.150  69.949  1.00  0.00     0.000 HD 
BRANCH   6  10
HETATM   10  C   UNL     1     -13.163  12.197  71.890  1.00  0.00    -0.474 C  
BRANCH  10  11
HETATM   11  C   UNL     1     -12.788  10.741  71.641  1.00  0.00    -0.562 A  
HETATM   12  C   UNL     1     -13.529   9.660  72.127  1.00  0.00    -0.516 A  
HETATM   13  C   UNL     1     -13.116   8.327  71.884  1.00  0.00    -0.367 A  
HETATM   14  C   UNL     1     -11.947   8.014  71.156  1.00  0.00    -0.297 A  
HETATM   15  C   UNL     1     -11.268   9.120  70.613  1.00  0.00    -0.322 A  
HETATM   16  C   UNL     1     -11.671  10.445  70.855  1.00  0.00    -0.455 A  
BRANCH  14  17
HETATM   17  C   UNL     1     -11.410   6.612  71.060  1.00  0.00    -0.315 A  
HETATM   18  N   UNL     1     -11.243   5.942  72.224  1.00  0.00    -0.278 NA 
HETATM   19  C   UNL     1     -10.602   4.766  72.188  1.00  0.00    -0.134 A  
HETATM   20  N   UNL     1     -10.039   4.213  71.107  1.00  0.00    -0.133 NA 
HETATM   21  N   UNL     1     -10.428   4.101  73.384  1.00  0.00    -0.163 NA 
HETATM   22  H1  UNL     1      -9.939   3.206  73.357  1.00  0.00     0.000 HD 
HETATM   23  C   UNL     1     -10.231   4.878  69.965  1.00  0.00    -0.243 A  
HETATM   24  H2  UNL     1     -10.774   4.489  74.263  1.00  0.00     0.000 HD 
HETATM   25  C   UNL     1     -10.951   6.054  69.877  1.00  0.00    -0.458 A  
BRANCH  23  26
HETATM   26  O   UNL     1      -9.572   4.485  68.814  1.00  0.00    -0.147 OA 
BRANCH  26  27
HETATM   27  C   UNL     1      -8.222   4.972  68.612  1.00  0.00    -0.085 C  
HETATM   28  C   UNL     1      -7.213   3.968  68.000  1.00  0.00    -0.059 C  
HETATM   29  F   UNL     1      -7.660   2.694  67.944  1.00  0.00    -0.055 F  
HETATM   30  F   UNL     1      -6.082   3.950  68.767  1.00  0.00    -0.024 F  
HETATM   31  F   UNL     1      -6.798   4.308  66.756  1.00  0.00    -0.047 F  
BRANCH  27  32
HETATM   32  C   UNL     1      -8.235   6.341  67.862  1.00  0.00    -0.114 A  
HETATM   33  C   UNL     1      -7.567   7.412  68.503  1.00  0.00    -0.114 A  
HETATM   34  C   UNL     1      -7.630   8.719  68.011  1.00  0.00    -0.097 A  
HETATM   35  C   UNL     1      -8.379   8.992  66.877  1.00  0.00    -0.119 A  
HETATM   36  C   UNL     1      -8.973   7.953  66.160  1.00  0.00    -0.214 A  
HETATM   37 CL   UNL     1      -8.571  10.617  66.345  1.00  0.00    -0.144 Cl 
HETATM   38  C   UNL     1      -8.856   6.620  66.609  1.00  0.00    -0.136 A  
BRANCH  38  39
HETATM   39  N   UNL     1      -9.345   5.586  65.758  1.00  0.00    -0.132 NA 
HETATM   40  C   UNL     1     -10.502   4.835  65.855  1.00  0.00    -0.274 A  
HETATM   41  C   UNL     1     -10.399   3.834  64.914  1.00  0.00    -0.089 A  
HETATM   42  C   UNL     1      -9.200   4.110  64.243  1.00  0.00    -0.150 A  
HETATM   43  N   UNL     1      -8.673   5.256  64.644  1.00  0.00    -0.129 NA 
HETATM   44  C   UNL     1      -8.472   3.318  63.221  1.00  0.00    -0.089 C  
ENDBRANCH  38  39
ENDBRANCH  27  32
ENDBRANCH  26  27
ENDBRANCH  23  26
ENDBRANCH  14  17
ENDBRANCH  10  11
ENDBRANCH   6  10
ENDBRANCH   4   6
ENDBRANCH   3   4
ENDBRANCH   2   3
TORSDOF 10
ENDMDL
MODEL       95
REMARK 921   NORMALIZED FREE ENERGY PREDICTED BY IDOCK:   -5.68 KCAL/MOL
REMARK 922        TOTAL FREE ENERGY PREDICTED BY IDOCK:  -11.35 KCAL/MOL
REMARK 923 INTER-LIGAND FREE ENERGY PREDICTED BY IDOCK:   -8.83 KCAL/MOL
REMARK 924 INTRA-LIGAND FREE ENERGY PREDICTED BY IDOCK:   -2.51 KCAL/MOL
REMARK 927      BINDING AFFINITY PREDICTED BY RF-SCORE:    0.00 PKD
ROOT
HETATM    1  C   UNL     1     -10.216   5.797  70.262  1.00  0.00    -0.295 C  
HETATM    2  C   UNL     1      -9.973   4.355  69.854  1.00  0.00    -0.162 C  
ENDROOT
BRANCH   2   3
HETATM    3  O   UNL     1     -10.406   4.206  68.497  1.00  0.00     0.272 OA 
BRANCH   3   4
HETATM    4  C   UNL     1      -9.392   4.119  67.581  1.00  0.00    -0.170 C  
HETATM    5  O   UNL     1      -8.300   3.606  67.787  1.00  0.00    -0.090 OA 
BRANCH   4   6
HETATM    6  C   UNL     1      -9.868   4.735  66.259  1.00  0.00    -0.220 C  
HETATM    7  N   UNL     1     -11.132   5.472  66.498  1.00  0.00    -0.650 NA 
HETATM    8  H2  UNL     1     -11.042   6.166  67.240  1.00  0.00     0.000 HD 
HETATM    9  H1  UNL     1     -11.448   5.881  65.619  1.00  0.00     0.000 HD 
BRANCH   6  10
HETATM   10  C   UNL     1      -8.777   5.645  65.655  1.00  0.00    -0.151 C  
BRANCH  10  11
HETATM   11  C   UNL     1      -8.547   6.990  66.334  1.00  0.00    -0.136 A  
HETATM   12  C   UNL     1      -9.161   8.177  65.922  1.00  0.00    -0.183 A  
HETATM   13  C   UNL     1      -8.888   9.403  66.578  1.00  0.00    -0.155 A  
HETATM   14  C   UNL     1      -7.990   9.500  67.664  1.00  0.00    -0.106 A  
HETATM   15  C   UNL     1      -7.451   8.278  68.105  1.00  0.00    -0.097 A  
HETATM   16  C   UNL     1      -7.715   7.059  67.455  1.00  0.00    -0.110 A  
BRANCH  14  17
HETATM   17  C   UNL     1      -7.558  10.824  68.235  1.00  0.00    -0.098 A  
HETATM   18  N   UNL     1      -6.520  10.803  69.103  1.00  0.00    -0.054 NA 
HETATM   19  C   UNL     1      -6.228  11.932  69.764  1.00  0.00    -0.137 A  
HETATM   20  N   UNL     1      -6.919  13.076  69.703  1.00  0.00     0.168 NA 
HETATM   21  N   UNL     1      -5.175  11.892  70.655  1.00  0.00    -0.120 NA 
HETATM   22  H1  UNL     1      -4.954  12.751  71.158  1.00  0.00     0.000 HD 
HETATM   23  C   UNL     1      -7.928  13.083  68.827  1.00  0.00     0.058 A  
HETATM   24  H2  UNL     1      -4.638  11.037  70.804  1.00  0.00     0.000 HD 
HETATM   25  C   UNL     1      -8.258  12.003  68.033  1.00  0.00    -0.156 A  
BRANCH  23  26
HETATM   26  O   UNL     1      -8.803  14.154  68.786  1.00  0.00    -0.154 OA 
BRANCH  26  27
HETATM   27  C   UNL     1      -9.863  14.119  67.799  1.00  0.00    -0.231 C  
HETATM   28  C   UNL     1     -11.230  13.569  68.278  1.00  0.00    -0.274 C  
HETATM   29  F   UNL     1     -11.198  12.979  69.494  1.00  0.00    -0.279 F  
HETATM   30  F   UNL     1     -11.663  12.620  67.396  1.00  0.00    -0.344 F  
HETATM   31  F   UNL     1     -12.211  14.504  68.308  1.00  0.00    -0.330 F  
BRANCH  27  32
HETATM   32  C   UNL     1      -9.992  15.495  67.076  1.00  0.00    -0.240 A  
HETATM   33  C   UNL     1      -9.401  16.604  67.728  1.00  0.00    -0.222 A  
HETATM   34  C   UNL     1      -9.572  17.910  67.262  1.00  0.00    -0.273 A  
HETATM   35  C   UNL     1     -10.355  18.145  66.142  1.00  0.00    -0.385 A  
HETATM   36  C   UNL     1     -10.875  17.075  65.413  1.00  0.00    -0.079 A  
HETATM   37 CL   UNL     1     -10.680  19.759  65.643  1.00  0.00    -0.537 Cl 
HETATM   38  C   UNL     1     -10.650  15.748  65.835  1.00  0.00    -0.339 A  
BRANCH  38  39
HETATM   39  N   UNL     1     -11.068  14.694  64.970  1.00  0.00    -0.371 NA 
HETATM   40  C   UNL     1     -12.297  14.474  64.376  1.00  0.00    -0.413 A  
HETATM   41  C   UNL     1     -12.242  13.216  63.817  1.00  0.00    -0.528 A  
HETATM   42  C   UNL     1     -10.927  12.792  64.046  1.00  0.00    -0.415 A  
HETATM   43  N   UNL     1     -10.193  13.755  64.581  1.00  0.00    -0.378 NA 
HETATM   44  C   UNL     1     -10.292  11.472  63.805  1.00  0.00    -0.450 C  
ENDBRANCH  38  39
ENDBRANCH  27  32
ENDBRANCH  26  27
ENDBRANCH  23  26
ENDBRANCH  14  17
ENDBRANCH  10  11
ENDBRANCH   6  10
ENDBRANCH   4   6
ENDBRANCH   3   4
ENDBRANCH   2   3
TORSDOF 10
ENDMDL
MODEL       96
REMARK 921   NORMALIZED FREE ENERGY PREDICTED BY IDOCK:   -5.68 KCAL/MOL
REMARK 922        TOTAL FREE ENERGY PREDICTED BY IDOCK:  -11.34 KCAL/MOL
REMARK 923 INTER-LIGAND FREE ENERGY PREDICTED BY IDOCK:   -9.25 KCAL/MOL
REMARK 924 INTRA-LIGAND FREE ENERGY PREDICTED BY IDOCK:   -2.09 KCAL/MOL
REMARK 927      BINDING AFFINITY PREDICTED BY RF-SCORE:    0.00 PKD
ROOT
HETATM    1  C   UNL     1     -10.812  18.766  68.117  1.00  0.00    -0.047 C  
HETATM    2  C   UNL     1     -10.508  19.480  66.813  1.00  0.00    -0.481 C  
ENDROOT
BRANCH   2   3
HETATM    3  O   UNL     1      -9.700  20.623  67.119  1.00  0.00    -0.454 OA 
BRANCH   3   4
HETATM    4  C   UNL     1      -8.357  20.371  67.184  1.00  0.00    -0.318 C  
HETATM    5  O   UNL     1      -7.612  20.746  68.079  1.00  0.00    -0.114 OA 
BRANCH   4   6
HETATM    6  C   UNL     1      -7.957  19.517  65.973  1.00  0.00    -0.303 C  
HETATM    7  N   UNL     1      -7.588  20.413  64.852  1.00  0.00    -0.312 NA 
HETATM    8  H2  UNL     1      -6.863  21.082  65.111  1.00  0.00     0.000 HD 
HETATM    9  H1  UNL     1      -7.322  19.845  64.048  1.00  0.00     0.000 HD 
BRANCH   6  10
HETATM   10  C   UNL     1      -6.808  18.552  66.340  1.00  0.00    -0.245 C  
BRANCH  10  11
HETATM   11  C   UNL     1      -7.191  17.112  66.657  1.00  0.00    -0.282 A  
HETATM   12  C   UNL     1      -6.347  16.218  67.323  1.00  0.00    -0.214 A  
HETATM   13  C   UNL     1      -6.750  14.882  67.568  1.00  0.00    -0.167 A  
HETATM   14  C   UNL     1      -8.003  14.379  67.154  1.00  0.00    -0.147 A  
HETATM   15  C   UNL     1      -8.860  15.322  66.559  1.00  0.00    -0.335 A  
HETATM   16  C   UNL     1      -8.463  16.648  66.310  1.00  0.00    -0.355 A  
BRANCH  14  17
HETATM   17  C   UNL     1      -8.354  12.918  67.246  1.00  0.00    -0.185 A  
HETATM   18  N   UNL     1      -9.011  12.382  66.191  1.00  0.00    -0.046 NA 
HETATM   19  C   UNL     1      -9.494  11.138  66.315  1.00  0.00    -0.196 A  
HETATM   20  N   UNL     1      -9.452  10.388  67.423  1.00  0.00    -0.149 NA 
HETATM   21  N   UNL     1     -10.172  10.610  65.236  1.00  0.00    -0.290 NA 
HETATM   22  H1  UNL     1     -10.540   9.663  65.331  1.00  0.00     0.000 HD 
HETATM   23  C   UNL     1      -8.782  10.926  68.446  1.00  0.00    -0.147 A  
HETATM   24  H2  UNL     1     -10.301  11.145  64.376  1.00  0.00     0.000 HD 
HETATM   25  C   UNL     1      -8.172  12.164  68.395  1.00  0.00    -0.145 A  
BRANCH  23  26
HETATM   26  O   UNL     1      -8.801  10.312  69.686  1.00  0.00    -0.175 OA 
BRANCH  26  27
HETATM   27  C   UNL     1      -9.084   8.891  69.728  1.00  0.00    -0.150 C  
HETATM   28  C   UNL     1      -7.996   7.992  70.369  1.00  0.00    -0.103 C  
HETATM   29  F   UNL     1      -6.822   8.619  70.601  1.00  0.00    -0.035 F  
HETATM   30  F   UNL     1      -7.723   6.953  69.525  1.00  0.00    -0.094 F  
HETATM   31  F   UNL     1      -8.386   7.416  71.533  1.00  0.00    -0.105 F  
BRANCH  27  32
HETATM   32  C   UNL     1     -10.504   8.627  70.320  1.00  0.00    -0.229 A  
HETATM   33  C   UNL     1     -11.183   9.753  70.844  1.00  0.00    -0.429 A  
HETATM   34  C   UNL     1     -12.393   9.629  71.533  1.00  0.00    -0.477 A  
HETATM   35  C   UNL     1     -12.945   8.373  71.733  1.00  0.00    -0.344 A  
HETATM   36  C   UNL     1     -12.361   7.248  71.150  1.00  0.00    -0.381 A  
HETATM   37 CL   UNL     1     -14.362   8.200  72.694  1.00  0.00    -0.152 Cl 
HETATM   38  C   UNL     1     -11.177   7.371  70.393  1.00  0.00    -0.262 A  
BRANCH  38  39
HETATM   39  N   UNL     1     -10.712   6.220  69.692  1.00  0.00    -0.270 NA 
HETATM   40  C   UNL     1     -10.168   5.047  70.183  1.00  0.00    -0.259 A  
HETATM   41  C   UNL     1      -9.689   4.352  69.093  1.00  0.00    -0.240 A  
HETATM   42  C   UNL     1     -10.062   5.134  67.992  1.00  0.00    -0.128 A  
HETATM   43  N   UNL     1     -10.822   6.155  68.357  1.00  0.00    -0.291 NA 
HETATM   44  C   UNL     1      -9.715   4.990  66.556  1.00  0.00    -0.193 C  
ENDBRANCH  38  39
ENDBRANCH  27  32
ENDBRANCH  26  27
ENDBRANCH  23  26
ENDBRANCH  14  17
ENDBRANCH  10  11
ENDBRANCH   6  10
ENDBRANCH   4   6
ENDBRANCH   3   4
ENDBRANCH   2   3
TORSDOF 10
ENDMDL
MODEL       97
REMARK 921   NORMALIZED FREE ENERGY PREDICTED BY IDOCK:   -5.68 KCAL/MOL
REMARK 922        TOTAL FREE ENERGY PREDICTED BY IDOCK:  -11.34 KCAL/MOL
REMARK 923 INTER-LIGAND FREE ENERGY PREDICTED BY IDOCK:   -9.56 KCAL/MOL
REMARK 924 INTRA-LIGAND FREE ENERGY PREDICTED BY IDOCK:   -1.77 KCAL/MOL
REMARK 927      BINDING AFFINITY PREDICTED BY RF-SCORE:    0.00 PKD
ROOT
HETATM    1  C   UNL     1      -6.086  19.296  64.502  1.00  0.00    -0.251 C  
HETATM    2  C   UNL     1      -6.680  18.965  65.859  1.00  0.00    -0.255 C  
ENDROOT
BRANCH   2   3
HETATM    3  O   UNL     1      -8.082  19.256  65.805  1.00  0.00    -0.448 OA 
BRANCH   3   4
HETATM    4  C   UNL     1      -8.605  19.761  66.965  1.00  0.00    -0.324 C  
HETATM    5  O   UNL     1      -7.950  20.145  67.924  1.00  0.00    -0.291 OA 
BRANCH   4   6
HETATM    6  C   UNL     1     -10.134  19.792  66.842  1.00  0.00    -0.437 C  
HETATM    7  N   UNL     1     -10.507  19.621  65.418  1.00  0.00    -0.394 NA 
HETATM    8  H2  UNL     1     -10.102  18.780  65.008  1.00  0.00     0.000 HD 
HETATM    9  H1  UNL     1     -11.524  19.643  65.337  1.00  0.00     0.000 HD 
BRANCH   6  10
HETATM   10  C   UNL     1     -10.777  18.712  67.738  1.00  0.00    -0.394 C  
BRANCH  10  11
HETATM   11  C   UNL     1     -10.177  17.313  67.673  1.00  0.00    -0.333 A  
HETATM   12  C   UNL     1     -10.358  16.446  66.591  1.00  0.00    -0.292 A  
HETATM   13  C   UNL     1      -9.794  15.146  66.599  1.00  0.00    -0.265 A  
HETATM   14  C   UNL     1      -9.035  14.653  67.683  1.00  0.00    -0.187 A  
HETATM   15  C   UNL     1      -8.803  15.576  68.720  1.00  0.00    -0.203 A  
HETATM   16  C   UNL     1      -9.365  16.866  68.719  1.00  0.00    -0.260 A  
BRANCH  14  17
HETATM   17  C   UNL     1      -8.598  13.216  67.773  1.00  0.00    -0.188 A  
HETATM   18  N   UNL     1      -7.482  12.875  67.087  1.00  0.00    -0.071 NA 
HETATM   19  C   UNL     1      -7.170  11.574  67.000  1.00  0.00    -0.146 A  
HETATM   20  N   UNL     1      -7.903  10.559  67.470  1.00  0.00    -0.105 NA 
HETATM   21  N   UNL     1      -6.036  11.241  66.286  1.00  0.00    -0.292 NA 
HETATM   22  H1  UNL     1      -5.798  10.252  66.219  1.00  0.00     0.000 HD 
HETATM   23  C   UNL     1      -8.989  10.916  68.161  1.00  0.00    -0.144 A  
HETATM   24  H2  UNL     1      -5.458  11.956  65.843  1.00  0.00     0.000 HD 
HETATM   25  C   UNL     1      -9.355  12.229  68.385  1.00  0.00    -0.162 A  
BRANCH  23  26
HETATM   26  O   UNL     1      -9.900   9.957  68.564  1.00  0.00    -0.150 OA 
BRANCH  26  27
HETATM   27  C   UNL     1     -10.334   9.981  69.947  1.00  0.00    -0.272 C  
HETATM   28  C   UNL     1     -11.833  10.288  70.193  1.00  0.00    -0.263 C  
HETATM   29  F   UNL     1     -12.499  10.720  69.099  1.00  0.00    -0.362 F  
HETATM   30  F   UNL     1     -11.937  11.277  71.129  1.00  0.00    -0.390 F  
HETATM   31  F   UNL     1     -12.524   9.239  70.701  1.00  0.00    -0.259 F  
BRANCH  27  32
HETATM   32  C   UNL     1      -9.853   8.700  70.699  1.00  0.00    -0.220 A  
HETATM   33  C   UNL     1      -9.656   8.831  72.095  1.00  0.00    -0.325 A  
HETATM   34  C   UNL     1      -9.087   7.807  72.857  1.00  0.00    -0.255 A  
HETATM   35  C   UNL     1      -8.685   6.632  72.241  1.00  0.00    -0.132 A  
HETATM   36  C   UNL     1      -8.951   6.423  70.888  1.00  0.00    -0.144 A  
HETATM   37 CL   UNL     1      -7.864   5.422  73.149  1.00  0.00    -0.100 Cl 
HETATM   38  C   UNL     1      -9.587   7.423  70.123  1.00  0.00    -0.165 A  
BRANCH  38  39
HETATM   39  N   UNL     1      -9.975   7.096  68.790  1.00  0.00    -0.159 NA 
HETATM   40  C   UNL     1     -11.228   6.809  68.280  1.00  0.00    -0.058 A  
HETATM   41  C   UNL     1     -11.031   6.355  66.994  1.00  0.00    -0.463 A  
HETATM   42  C   UNL     1      -9.652   6.484  66.787  1.00  0.00    -0.161 A  
HETATM   43  N   UNL     1      -9.063   7.090  67.806  1.00  0.00    -0.127 NA 
HETATM   44  C   UNL     1      -8.808   6.033  65.651  1.00  0.00    -0.118 C  
ENDBRANCH  38  39
ENDBRANCH  27  32
ENDBRANCH  26  27
ENDBRANCH  23  26
ENDBRANCH  14  17
ENDBRANCH  10  11
ENDBRANCH   6  10
ENDBRANCH   4   6
ENDBRANCH   3   4
ENDBRANCH   2   3
TORSDOF 10
ENDMDL
MODEL       98
REMARK 921   NORMALIZED FREE ENERGY PREDICTED BY IDOCK:   -5.65 KCAL/MOL
REMARK 922        TOTAL FREE ENERGY PREDICTED BY IDOCK:  -11.30 KCAL/MOL
REMARK 923 INTER-LIGAND FREE ENERGY PREDICTED BY IDOCK:  -10.98 KCAL/MOL
REMARK 924 INTRA-LIGAND FREE ENERGY PREDICTED BY IDOCK:   -0.32 KCAL/MOL
REMARK 927      BINDING AFFINITY PREDICTED BY RF-SCORE:    0.00 PKD
ROOT
HETATM    1  C   UNL     1     -11.141   3.854  73.491  1.00  0.00    -0.342 C  
HETATM    2  C   UNL     1     -10.722   5.226  72.997  1.00  0.00    -0.257 C  
ENDROOT
BRANCH   2   3
HETATM    3  O   UNL     1     -11.835   5.799  72.302  1.00  0.00    -0.273 OA 
BRANCH   3   4
HETATM    4  C   UNL     1     -11.509   6.464  71.151  1.00  0.00    -0.323 C  
HETATM    5  O   UNL     1     -12.306   6.822  70.294  1.00  0.00    -0.220 OA 
BRANCH   4   6
HETATM    6  C   UNL     1      -9.994   6.710  71.137  1.00  0.00    -0.182 C  
HETATM    7  N   UNL     1      -9.491   6.544  69.753  1.00  0.00    -0.150 NA 
HETATM    8  H2  UNL     1      -9.987   7.136  69.086  1.00  0.00     0.000 HD 
HETATM    9  H1  UNL     1      -8.485   6.708  69.745  1.00  0.00     0.000 HD 
BRANCH   6  10
HETATM   10  C   UNL     1      -9.662   8.107  71.706  1.00  0.00    -0.253 C  
BRANCH  10  11
HETATM   11  C   UNL     1      -9.271   9.185  70.703  1.00  0.00    -0.310 A  
HETATM   12  C   UNL     1      -7.946   9.527  70.414  1.00  0.00    -0.200 A  
HETATM   13  C   UNL     1      -7.645  10.557  69.489  1.00  0.00    -0.148 A  
HETATM   14  C   UNL     1      -8.647  11.293  68.820  1.00  0.00    -0.109 A  
HETATM   15  C   UNL     1      -9.966  10.873  69.070  1.00  0.00    -0.206 A  
HETATM   16  C   UNL     1     -10.271   9.855  69.991  1.00  0.00    -0.319 A  
BRANCH  14  17
HETATM   17  C   UNL     1      -8.333  12.506  67.985  1.00  0.00    -0.171 A  
HETATM   18  N   UNL     1      -7.213  13.194  68.308  1.00  0.00    -0.096 NA 
HETATM   19  C   UNL     1      -7.002  14.372  67.706  1.00  0.00    -0.176 A  
HETATM   20  N   UNL     1      -7.838  14.979  66.856  1.00  0.00    -0.118 NA 
HETATM   21  N   UNL     1      -5.862  15.068  68.055  1.00  0.00    -0.136 NA 
HETATM   22  H1  UNL     1      -5.701  15.964  67.597  1.00  0.00     0.000 HD 
HETATM   23  C   UNL     1      -8.928  14.276  66.534  1.00  0.00    -0.132 A  
HETATM   24  H2  UNL     1      -5.205  14.699  68.744  1.00  0.00     0.000 HD 
HETATM   25  C   UNL     1      -9.199  13.015  67.030  1.00  0.00    -0.232 A  
BRANCH  23  26
HETATM   26  O   UNL     1      -9.934  14.861  65.786  1.00  0.00    -0.305 OA 
BRANCH  26  27
HETATM   27  C   UNL     1     -11.265  14.892  66.357  1.00  0.00    -0.331 C  
HETATM   28  C   UNL     1     -12.176  13.678  66.047  1.00  0.00    -0.449 C  
HETATM   29  F   UNL     1     -11.693  12.849  65.095  1.00  0.00    -0.330 F  
HETATM   30  F   UNL     1     -13.383  14.130  65.595  1.00  0.00    -0.541 F  
HETATM   31  F   UNL     1     -12.461  12.922  67.136  1.00  0.00    -0.297 F  
BRANCH  27  32
HETATM   32  C   UNL     1     -11.205  15.222  67.881  1.00  0.00    -0.333 A  
HETATM   33  C   UNL     1     -11.573  14.178  68.763  1.00  0.00    -0.362 A  
HETATM   34  C   UNL     1     -11.704  14.388  70.139  1.00  0.00    -0.361 A  
HETATM   35  C   UNL     1     -11.489  15.653  70.666  1.00  0.00    -0.375 A  
HETATM   36  C   UNL     1     -11.031  16.685  69.848  1.00  0.00    -0.194 A  
HETATM   37 CL   UNL     1     -11.780  15.948  72.337  1.00  0.00    -0.575 Cl 
HETATM   38  C   UNL     1     -10.827  16.466  68.470  1.00  0.00    -0.339 A  
BRANCH  38  39
HETATM   39  N   UNL     1     -10.210  17.506  67.714  1.00  0.00    -0.333 NA 
HETATM   40  C   UNL     1     -10.785  18.484  66.923  1.00  0.00    -0.287 A  
HETATM   41  C   UNL     1      -9.753  19.099  66.249  1.00  0.00    -0.412 A  
HETATM   42  C   UNL     1      -8.597  18.492  66.757  1.00  0.00    -0.284 A  
HETATM   43  N   UNL     1      -8.879  17.668  67.753  1.00  0.00    -0.237 NA 
HETATM   44  C   UNL     1      -7.181  18.624  66.329  1.00  0.00    -0.281 C  
ENDBRANCH  38  39
ENDBRANCH  27  32
ENDBRANCH  26  27
ENDBRANCH  23  26
ENDBRANCH  14  17
ENDBRANCH  10  11
ENDBRANCH   6  10
ENDBRANCH   4   6
ENDBRANCH   3   4
ENDBRANCH   2   3
TORSDOF 10
ENDMDL
MODEL       99
REMARK 921   NORMALIZED FREE ENERGY PREDICTED BY IDOCK:   -5.65 KCAL/MOL
REMARK 922        TOTAL FREE ENERGY PREDICTED BY IDOCK:  -11.29 KCAL/MOL
REMARK 923 INTER-LIGAND FREE ENERGY PREDICTED BY IDOCK:   -9.15 KCAL/MOL
REMARK 924 INTRA-LIGAND FREE ENERGY PREDICTED BY IDOCK:   -2.14 KCAL/MOL
REMARK 927      BINDING AFFINITY PREDICTED BY RF-SCORE:    0.00 PKD
ROOT
HETATM    1  C   UNL     1     -10.086   6.412  69.186  1.00  0.00    -0.194 C  
HETATM    2  C   UNL     1      -9.741   4.937  69.098  1.00  0.00    -0.182 C  
ENDROOT
BRANCH   2   3
HETATM    3  O   UNL     1     -10.020   4.502  67.762  1.00  0.00    -0.142 OA 
BRANCH   3   4
HETATM    4  C   UNL     1      -8.926   4.075  67.060  1.00  0.00    -0.132 C  
HETATM    5  O   UNL     1      -7.889   3.657  67.557  1.00  0.00    -0.077 OA 
BRANCH   4   6
HETATM    6  C   UNL     1      -9.233   4.179  65.560  1.00  0.00    -0.149 C  
HETATM    7  N   UNL     1     -10.682   4.429  65.380  1.00  0.00    -0.631 NA 
HETATM    8  H2  UNL     1     -11.003   5.246  65.900  1.00  0.00     0.000 HD 
HETATM    9  H1  UNL     1     -10.885   4.497  64.383  1.00  0.00     0.000 HD 
BRANCH   6  10
HETATM   10  C   UNL     1      -8.373   5.279  64.900  1.00  0.00    -0.144 C  
BRANCH  10  11
HETATM   11  C   UNL     1      -8.330   6.632  65.599  1.00  0.00    -0.144 A  
HETATM   12  C   UNL     1      -9.419   7.507  65.656  1.00  0.00     0.362 A  
HETATM   13  C   UNL     1      -9.310   8.764  66.300  1.00  0.00    -0.283 A  
HETATM   14  C   UNL     1      -8.113   9.206  66.906  1.00  0.00    -0.112 A  
HETATM   15  C   UNL     1      -7.061   8.272  66.903  1.00  0.00    -0.078 A  
HETATM   16  C   UNL     1      -7.163   7.025  66.261  1.00  0.00    -0.075 A  
BRANCH  14  17
HETATM   17  C   UNL     1      -7.942  10.610  67.422  1.00  0.00    -0.111 A  
HETATM   18  N   UNL     1      -6.801  10.875  68.100  1.00  0.00    -0.066 NA 
HETATM   19  C   UNL     1      -6.699  12.057  68.723  1.00  0.00    -0.087 A  
HETATM   20  N   UNL     1      -7.659  12.986  68.802  1.00  0.00    -0.076 NA 
HETATM   21  N   UNL     1      -5.536  12.308  69.421  1.00  0.00    -0.070 NA 
HETATM   22  H1  UNL     1      -5.458  13.207  69.896  1.00  0.00     0.000 HD 
HETATM   23  C   UNL     1      -8.769  12.716  68.111  1.00  0.00    -0.190 A  
HETATM   24  H2  UNL     1      -4.782  11.621  69.461  1.00  0.00     0.000 HD 
HETATM   25  C   UNL     1      -8.943  11.567  67.363  1.00  0.00    -0.156 A  
BRANCH  23  26
HETATM   26  O   UNL     1      -9.881  13.529  68.239  1.00  0.00    -0.225 OA 
BRANCH  26  27
HETATM   27  C   UNL     1     -10.406  14.145  67.036  1.00  0.00    -0.267 C  
HETATM   28  C   UNL     1     -11.720  13.547  66.475  1.00  0.00    -0.371 C  
HETATM   29  F   UNL     1     -12.091  12.381  67.047  1.00  0.00    -0.429 F  
HETATM   30  F   UNL     1     -11.561  13.295  65.142  1.00  0.00    -0.309 F  
HETATM   31  F   UNL     1     -12.777  14.392  66.556  1.00  0.00    -0.442 F  
BRANCH  27  32
HETATM   32  C   UNL     1     -10.471  15.696  67.194  1.00  0.00    -0.303 A  
HETATM   33  C   UNL     1     -10.087  16.457  66.064  1.00  0.00    -0.373 A  
HETATM   34  C   UNL     1      -9.960  17.848  66.122  1.00  0.00    -0.288 A  
HETATM   35  C   UNL     1     -10.195  18.512  67.316  1.00  0.00    -0.372 A  
HETATM   36  C   UNL     1     -10.670  17.813  68.426  1.00  0.00    -0.205 A  
HETATM   37 CL   UNL     1      -9.910  20.206  67.428  1.00  0.00    -0.545 Cl 
HETATM   38  C   UNL     1     -10.869  16.418  68.358  1.00  0.00    -0.342 A  
BRANCH  38  39
HETATM   39  N   UNL     1     -11.502  15.782  69.466  1.00  0.00    -0.329 NA 
HETATM   40  C   UNL     1     -12.654  15.017  69.505  1.00  0.00     0.008 A  
HETATM   41  C   UNL     1     -12.949  14.821  70.836  1.00  0.00    -0.422 A  
HETATM   42  C   UNL     1     -11.884  15.424  71.520  1.00  0.00    -0.387 A  
HETATM   43  N   UNL     1     -10.945  15.839  70.684  1.00  0.00    -0.336 NA 
HETATM   44  C   UNL     1     -11.695  15.667  72.972  1.00  0.00    -0.479 C  
ENDBRANCH  38  39
ENDBRANCH  27  32
ENDBRANCH  26  27
ENDBRANCH  23  26
ENDBRANCH  14  17
ENDBRANCH  10  11
ENDBRANCH   6  10
ENDBRANCH   4   6
ENDBRANCH   3   4
ENDBRANCH   2   3
TORSDOF 10
ENDMDL
MODEL      100
REMARK 921   NORMALIZED FREE ENERGY PREDICTED BY IDOCK:   -5.61 KCAL/MOL
REMARK 922        TOTAL FREE ENERGY PREDICTED BY IDOCK:  -11.23 KCAL/MOL
REMARK 923 INTER-LIGAND FREE ENERGY PREDICTED BY IDOCK:   -8.88 KCAL/MOL
REMARK 924 INTRA-LIGAND FREE ENERGY PREDICTED BY IDOCK:   -2.34 KCAL/MOL
REMARK 927      BINDING AFFINITY PREDICTED BY RF-SCORE:    0.00 PKD
ROOT
HETATM    1  C   UNL     1     -10.470  18.555  67.621  1.00  0.00    -0.452 C  
HETATM    2  C   UNL     1     -10.163  19.499  66.472  1.00  0.00    -0.467 C  
ENDROOT
BRANCH   2   3
HETATM    3  O   UNL     1      -9.439  20.614  67.005  1.00  0.00    -0.389 OA 
BRANCH   3   4
HETATM    4  C   UNL     1      -8.114  20.370  67.247  1.00  0.00    -0.338 C  
HETATM    5  O   UNL     1      -7.548  20.551  68.317  1.00  0.00    -0.108 OA 
BRANCH   4   6
HETATM    6  C   UNL     1      -7.476  19.806  65.971  1.00  0.00    -0.320 C  
HETATM    7  N   UNL     1      -7.160  20.925  65.053  1.00  0.00    -0.489 NA 
HETATM    8  H2  UNL     1      -6.580  21.638  65.495  1.00  0.00     0.000 HD 
HETATM    9  H1  UNL     1      -6.737  20.550  64.205  1.00  0.00     0.000 HD 
BRANCH   6  10
HETATM   10  C   UNL     1      -6.223  18.969  66.309  1.00  0.00    -0.202 C  
BRANCH  10  11
HETATM   11  C   UNL     1      -6.450  17.521  66.723  1.00  0.00    -0.234 A  
HETATM   12  C   UNL     1      -7.635  16.823  66.469  1.00  0.00    -0.334 A  
HETATM   13  C   UNL     1      -7.797  15.483  66.901  1.00  0.00    -0.229 A  
HETATM   14  C   UNL     1      -6.793  14.786  67.608  1.00  0.00    -0.205 A  
HETATM   15  C   UNL     1      -5.585  15.487  67.777  1.00  0.00    -0.139 A  
HETATM   16  C   UNL     1      -5.420  16.818  67.354  1.00  0.00    -0.174 A  
BRANCH  14  17
HETATM   17  C   UNL     1      -7.035  13.436  68.228  1.00  0.00    -0.108 A  
HETATM   18  N   UNL     1      -6.454  13.204  69.428  1.00  0.00    -0.110 NA 
HETATM   19  C   UNL     1      -6.499  11.958  69.920  1.00  0.00    -0.048 A  
HETATM   20  N   UNL     1      -7.009  10.889  69.298  1.00  0.00    -0.099 NA 
HETATM   21  N   UNL     1      -5.892  11.735  71.139  1.00  0.00    -0.456 NA 
HETATM   22  H1  UNL     1      -5.926  10.787  71.513  1.00  0.00     0.000 HD 
HETATM   23  C   UNL     1      -7.595  11.141  68.125  1.00  0.00    -0.103 A  
HETATM   24  H2  UNL     1      -5.426  12.488  71.646  1.00  0.00     0.000 HD 
HETATM   25  C   UNL     1      -7.680  12.402  67.568  1.00  0.00    -0.161 A  
BRANCH  23  26
HETATM   26  O   UNL     1      -8.021  10.096  67.324  1.00  0.00    -0.109 OA 
BRANCH  26  27
HETATM   27  C   UNL     1      -8.973   9.161  67.889  1.00  0.00    -0.128 C  
HETATM   28  C   UNL     1     -10.450   9.336  67.455  1.00  0.00    -0.273 C  
HETATM   29  F   UNL     1     -10.700  10.480  66.781  1.00  0.00    -0.287 F  
HETATM   30  F   UNL     1     -11.242   9.357  68.567  1.00  0.00    -0.167 F  
HETATM   31  F   UNL     1     -10.918   8.311  66.701  1.00  0.00    -0.288 F  
BRANCH  27  32
HETATM   32  C   UNL     1      -8.470   7.693  67.725  1.00  0.00    -0.122 A  
HETATM   33  C   UNL     1      -7.373   7.501  66.850  1.00  0.00    -0.093 A  
HETATM   34  C   UNL     1      -6.924   6.224  66.503  1.00  0.00    -0.067 A  
HETATM   35  C   UNL     1      -7.571   5.105  67.005  1.00  0.00    -0.088 A  
HETATM   36  C   UNL     1      -8.591   5.248  67.945  1.00  0.00    -0.103 A  
HETATM   37 CL   UNL     1      -7.108   3.535  66.476  1.00  0.00    -0.062 Cl 
HETATM   38  C   UNL     1      -9.007   6.532  68.357  1.00  0.00    -0.125 A  
BRANCH  38  39
HETATM   39  N   UNL     1      -9.940   6.617  69.431  1.00  0.00    -0.154 NA 
HETATM   40  C   UNL     1     -11.279   6.272  69.468  1.00  0.00    -0.430 A  
HETATM   41  C   UNL     1     -11.773   6.746  70.664  1.00  0.00    -0.440 A  
HETATM   42  C   UNL     1     -10.652   7.279  71.315  1.00  0.00    -0.220 A  
HETATM   43  N   UNL     1      -9.539   7.038  70.640  1.00  0.00    -0.166 NA 
HETATM   44  C   UNL     1     -10.559   8.058  72.575  1.00  0.00    -0.397 C  
ENDBRANCH  38  39
ENDBRANCH  27  32
ENDBRANCH  26  27
ENDBRANCH  23  26
ENDBRANCH  14  17
ENDBRANCH  10  11
ENDBRANCH   6  10
ENDBRANCH   4   6
ENDBRANCH   3   4
ENDBRANCH   2   3
TORSDOF 10
ENDMDL
MODEL      101
REMARK 921   NORMALIZED FREE ENERGY PREDICTED BY IDOCK:   -5.60 KCAL/MOL
REMARK 922        TOTAL FREE ENERGY PREDICTED BY IDOCK:  -11.21 KCAL/MOL
REMARK 923 INTER-LIGAND FREE ENERGY PREDICTED BY IDOCK:  -10.33 KCAL/MOL
REMARK 924 INTRA-LIGAND FREE ENERGY PREDICTED BY IDOCK:   -0.88 KCAL/MOL
REMARK 927      BINDING AFFINITY PREDICTED BY RF-SCORE:    0.00 PKD
ROOT
HETATM    1  C   UNL     1      -9.097   1.941  68.798  1.00  0.00    -0.193 C  
HETATM    2  C   UNL     1      -9.409   3.253  69.495  1.00  0.00    -0.165 C  
ENDROOT
BRANCH   2   3
HETATM    3  O   UNL     1      -9.190   4.310  68.553  1.00  0.00    -0.120 OA 
BRANCH   3   4
HETATM    4  C   UNL     1     -10.266   5.135  68.361  1.00  0.00    -0.105 C  
HETATM    5  O   UNL     1     -11.094   5.423  69.214  1.00  0.00    -0.053 OA 
BRANCH   4   6
HETATM    6  C   UNL     1     -10.234   5.656  66.918  1.00  0.00    -0.227 C  
HETATM    7  N   UNL     1     -11.532   6.303  66.611  1.00  0.00    -0.647 NA 
HETATM    8  H2  UNL     1     -11.772   7.032  67.283  1.00  0.00     0.000 HD 
HETATM    9  H1  UNL     1     -11.511   6.649  65.652  1.00  0.00     0.000 HD 
BRANCH   6  10
HETATM   10  C   UNL     1      -9.048   6.623  66.712  1.00  0.00    -0.154 C  
BRANCH  10  11
HETATM   11  C   UNL     1      -9.387   8.086  66.455  1.00  0.00    -0.259 A  
HETATM   12  C   UNL     1      -9.949   8.929  67.418  1.00  0.00    -0.267 A  
HETATM   13  C   UNL     1     -10.265  10.276  67.112  1.00  0.00    -0.277 A  
HETATM   14  C   UNL     1     -10.043  10.837  65.835  1.00  0.00    -0.314 A  
HETATM   15  C   UNL     1      -9.404   9.989  64.912  1.00  0.00    -0.324 A  
HETATM   16  C   UNL     1      -9.092   8.650  65.210  1.00  0.00    -0.100 A  
BRANCH  14  17
HETATM   17  C   UNL     1     -10.550  12.202  65.457  1.00  0.00    -0.277 A  
HETATM   18  N   UNL     1     -11.406  12.266  64.410  1.00  0.00    -0.319 NA 
HETATM   19  C   UNL     1     -11.733  13.477  63.936  1.00  0.00    -0.368 A  
HETATM   20  N   UNL     1     -11.233  14.644  64.358  1.00  0.00    -0.246 NA 
HETATM   21  N   UNL     1     -12.596  13.525  62.861  1.00  0.00    -0.756 NA 
HETATM   22  H1  UNL     1     -12.844  14.446  62.500  1.00  0.00     0.000 HD 
HETATM   23  C   UNL     1     -10.406  14.562  65.403  1.00  0.00    -0.382 A  
HETATM   24  H2  UNL     1     -12.971  12.673  62.443  1.00  0.00     0.000 HD 
HETATM   25  C   UNL     1     -10.071  13.373  66.022  1.00  0.00    -0.308 A  
BRANCH  23  26
HETATM   26  O   UNL     1      -9.713  15.682  65.829  1.00  0.00    -0.328 OA 
BRANCH  26  27
HETATM   27  C   UNL     1      -8.853  15.541  66.987  1.00  0.00    -0.230 C  
HETATM   28  C   UNL     1      -7.497  16.289  66.932  1.00  0.00    -0.236 C  
HETATM   29  F   UNL     1      -7.189  16.794  65.717  1.00  0.00    -0.136 F  
HETATM   30  F   UNL     1      -6.496  15.421  67.260  1.00  0.00    -0.189 F  
HETATM   31  F   UNL     1      -7.402  17.302  67.828  1.00  0.00    -0.160 F  
BRANCH  27  32
HETATM   32  C   UNL     1      -9.644  15.829  68.300  1.00  0.00    -0.201 A  
HETATM   33  C   UNL     1      -9.769  14.749  69.207  1.00  0.00    -0.098 A  
HETATM   34  C   UNL     1     -10.576  14.832  70.345  1.00  0.00     0.122 A  
HETATM   35  C   UNL     1     -11.293  15.991  70.598  1.00  0.00    -0.399 A  
HETATM   36  C   UNL     1     -11.124  17.112  69.786  1.00  0.00     0.492 A  
HETATM   37 CL   UNL     1     -12.390  16.051  71.923  1.00  0.00    -0.525 Cl 
HETATM   38  C   UNL     1     -10.258  17.062  68.673  1.00  0.00    -0.321 A  
BRANCH  38  39
HETATM   39  N   UNL     1     -10.002  18.278  67.973  1.00  0.00    -0.328 NA 
HETATM   40  C   UNL     1     -10.638  18.811  66.866  1.00  0.00    -0.409 A  
HETATM   41  C   UNL     1      -9.878  19.885  66.458  1.00  0.00    -0.567 A  
HETATM   42  C   UNL     1      -8.863  19.977  67.419  1.00  0.00    -0.346 A  
HETATM   43  N   UNL     1      -9.053  19.119  68.409  1.00  0.00    -0.345 NA 
HETATM   44  C   UNL     1      -7.657  20.842  67.456  1.00  0.00    -0.266 C  
ENDBRANCH  38  39
ENDBRANCH  27  32
ENDBRANCH  26  27
ENDBRANCH  23  26
ENDBRANCH  14  17
ENDBRANCH  10  11
ENDBRANCH   6  10
ENDBRANCH   4   6
ENDBRANCH   3   4
ENDBRANCH   2   3
TORSDOF 10
ENDMDL
MODEL      102
REMARK 921   NORMALIZED FREE ENERGY PREDICTED BY IDOCK:   -5.59 KCAL/MOL
REMARK 922        TOTAL FREE ENERGY PREDICTED BY IDOCK:  -11.20 KCAL/MOL
REMARK 923 INTER-LIGAND FREE ENERGY PREDICTED BY IDOCK:   -9.29 KCAL/MOL
REMARK 924 INTRA-LIGAND FREE ENERGY PREDICTED BY IDOCK:   -1.91 KCAL/MOL
REMARK 927      BINDING AFFINITY PREDICTED BY RF-SCORE:    0.00 PKD
ROOT
HETATM    1  C   UNL     1     -10.248   5.245  69.952  1.00  0.00    -0.364 C  
HETATM    2  C   UNL     1      -9.612   4.341  68.912  1.00  0.00    -0.157 C  
ENDROOT
BRANCH   2   3
HETATM    3  O   UNL     1      -8.290   4.831  68.657  1.00  0.00    -0.083 OA 
BRANCH   3   4
HETATM    4  C   UNL     1      -7.574   4.098  67.750  1.00  0.00    -0.068 C  
HETATM    5  O   UNL     1      -7.360   2.895  67.829  1.00  0.00    -0.053 OA 
BRANCH   4   6
HETATM    6  C   UNL     1      -7.121   5.025  66.615  1.00  0.00    -0.069 C  
HETATM    7  N   UNL     1      -6.048   4.354  65.844  1.00  0.00    -0.026 NA 
HETATM    8  H2  UNL     1      -6.329   3.434  65.505  1.00  0.00     0.000 HD 
HETATM    9  H1  UNL     1      -5.747   4.971  65.090  1.00  0.00     0.000 HD 
BRANCH   6  10
HETATM   10  C   UNL     1      -8.315   5.415  65.717  1.00  0.00    -0.126 C  
BRANCH  10  11
HETATM   11  C   UNL     1      -8.758   6.872  65.752  1.00  0.00    -0.120 A  
HETATM   12  C   UNL     1      -9.717   7.366  66.641  1.00  0.00    -0.262 A  
HETATM   13  C   UNL     1     -10.106   8.728  66.609  1.00  0.00    -0.358 A  
HETATM   14  C   UNL     1      -9.564   9.652  65.688  1.00  0.00    -0.338 A  
HETATM   15  C   UNL     1      -8.545   9.144  64.862  1.00  0.00    -0.208 A  
HETATM   16  C   UNL     1      -8.159   7.792  64.886  1.00  0.00    -0.136 A  
BRANCH  14  17
HETATM   17  C   UNL     1     -10.111  11.045  65.530  1.00  0.00    -0.261 A  
HETATM   18  N   UNL     1     -10.835  11.292  64.413  1.00  0.00    -0.331 NA 
HETATM   19  C   UNL     1     -11.181  12.561  64.154  1.00  0.00    -0.382 A  
HETATM   20  N   UNL     1     -10.815  13.633  64.865  1.00  0.00    -0.353 NA 
HETATM   21  N   UNL     1     -11.907  12.798  63.005  1.00  0.00    -0.784 NA 
HETATM   22  H1  UNL     1     -12.171  13.763  62.808  1.00  0.00     0.000 HD 
HETATM   23  C   UNL     1     -10.118  13.368  65.974  1.00  0.00    -0.304 A  
HETATM   24  H2  UNL     1     -12.171  12.038  62.377  1.00  0.00     0.000 HD 
HETATM   25  C   UNL     1      -9.783  12.090  66.379  1.00  0.00    -0.239 A  
BRANCH  23  26
HETATM   26  O   UNL     1      -9.559  14.401  66.705  1.00  0.00    -0.258 OA 
BRANCH  26  27
HETATM   27  C   UNL     1     -10.441  15.184  67.546  1.00  0.00    -0.258 C  
HETATM   28  C   UNL     1     -10.732  14.612  68.957  1.00  0.00    -0.249 C  
HETATM   29  F   UNL     1     -10.310  13.342  69.141  1.00  0.00    -0.178 F  
HETATM   30  F   UNL     1     -12.082  14.608  69.165  1.00  0.00    -0.323 F  
HETATM   31  F   UNL     1     -10.216  15.361  69.962  1.00  0.00    -0.269 F  
BRANCH  27  32
HETATM   32  C   UNL     1      -9.985  16.676  67.587  1.00  0.00    -0.264 A  
HETATM   33  C   UNL     1     -11.005  17.646  67.438  1.00  0.00    -0.055 A  
HETATM   34  C   UNL     1     -10.714  19.007  67.308  1.00  0.00    -0.556 A  
HETATM   35  C   UNL     1      -9.394  19.431  67.304  1.00  0.00    -0.314 A  
HETATM   36  C   UNL     1      -8.364  18.522  67.546  1.00  0.00    -0.267 A  
HETATM   37 CL   UNL     1      -9.024  21.086  67.011  1.00  0.00    -0.124 Cl 
HETATM   38  C   UNL     1      -8.651  17.156  67.748  1.00  0.00    -0.216 A  
BRANCH  38  39
HETATM   39  N   UNL     1      -7.581  16.302  68.146  1.00  0.00    -0.145 NA 
HETATM   40  C   UNL     1      -6.674  15.603  67.370  1.00  0.00    -0.183 A  
HETATM   41  C   UNL     1      -5.990  14.767  68.226  1.00  0.00    -0.122 A  
HETATM   42  C   UNL     1      -6.485  15.091  69.496  1.00  0.00    -0.146 A  
HETATM   43  N   UNL     1      -7.306  16.128  69.447  1.00  0.00    -0.227 NA 
HETATM   44  C   UNL     1      -6.243  14.443  70.810  1.00  0.00    -0.116 C  
ENDBRANCH  38  39
ENDBRANCH  27  32
ENDBRANCH  26  27
ENDBRANCH  23  26
ENDBRANCH  14  17
ENDBRANCH  10  11
ENDBRANCH   6  10
ENDBRANCH   4   6
ENDBRANCH   3   4
ENDBRANCH   2   3
TORSDOF 10
ENDMDL
MODEL      103
REMARK 921   NORMALIZED FREE ENERGY PREDICTED BY IDOCK:   -5.58 KCAL/MOL
REMARK 922        TOTAL FREE ENERGY PREDICTED BY IDOCK:  -11.18 KCAL/MOL
REMARK 923 INTER-LIGAND FREE ENERGY PREDICTED BY IDOCK:   -9.07 KCAL/MOL
REMARK 924 INTRA-LIGAND FREE ENERGY PREDICTED BY IDOCK:   -2.10 KCAL/MOL
REMARK 927      BINDING AFFINITY PREDICTED BY RF-SCORE:    0.00 PKD
ROOT
HETATM    1  C   UNL     1      -6.896  20.026  65.391  1.00  0.00    -0.337 C  
HETATM    2  C   UNL     1      -7.544  19.598  66.695  1.00  0.00    -0.260 C  
ENDROOT
BRANCH   2   3
HETATM    3  O   UNL     1      -8.821  20.241  66.780  1.00  0.00    -0.317 OA 
BRANCH   3   4
HETATM    4  C   UNL     1      -9.863  19.512  66.275  1.00  0.00    -0.429 C  
HETATM    5  O   UNL     1     -10.573  19.854  65.339  1.00  0.00    -0.404 OA 
BRANCH   4   6
HETATM    6  C   UNL     1      -9.963  18.193  67.052  1.00  0.00    -0.338 C  
HETATM    7  N   UNL     1     -10.894  18.373  68.190  1.00  0.00    -0.279 NA 
HETATM    8  H2  UNL     1     -11.807  18.720  67.895  1.00  0.00     0.000 HD 
HETATM    9  H1  UNL     1     -10.960  17.496  68.707  1.00  0.00     0.000 HD 
BRANCH   6  10
HETATM   10  C   UNL     1     -10.408  17.043  66.122  1.00  0.00    -0.326 C  
BRANCH  10  11
HETATM   11  C   UNL     1      -9.865  15.654  66.433  1.00  0.00    -0.295 A  
HETATM   12  C   UNL     1     -10.637  14.490  66.369  1.00  0.00    -0.302 A  
HETATM   13  C   UNL     1     -10.080  13.229  66.694  1.00  0.00    -0.266 A  
HETATM   14  C   UNL     1      -8.738  13.073  67.104  1.00  0.00    -0.204 A  
HETATM   15  C   UNL     1      -7.966  14.249  67.082  1.00  0.00    -0.128 A  
HETATM   16  C   UNL     1      -8.515  15.505  66.765  1.00  0.00    -0.314 A  
BRANCH  14  17
HETATM   17  C   UNL     1      -8.203  11.768  67.629  1.00  0.00    -0.145 A  
HETATM   18  N   UNL     1      -7.816  10.854  66.708  1.00  0.00    -0.134 NA 
HETATM   19  C   UNL     1      -7.506   9.622  67.134  1.00  0.00    -0.088 A  
HETATM   20  N   UNL     1      -7.611   9.179  68.392  1.00  0.00    -0.082 NA 
HETATM   21  N   UNL     1      -7.126   8.698  66.182  1.00  0.00    -0.083 NA 
HETATM   22  H1  UNL     1      -6.890   7.761  66.507  1.00  0.00     0.000 HD 
HETATM   23  C   UNL     1      -7.975  10.100  69.289  1.00  0.00    -0.138 A  
HETATM   24  H2  UNL     1      -7.082   8.943  65.193  1.00  0.00     0.000 HD 
HETATM   25  C   UNL     1      -8.233  11.419  68.970  1.00  0.00     0.015 A  
BRANCH  23  26
HETATM   26  O   UNL     1      -8.261   9.725  70.590  1.00  0.00    -0.246 OA 
BRANCH  26  27
HETATM   27  C   UNL     1      -8.506   8.320  70.847  1.00  0.00    -0.132 C  
HETATM   28  C   UNL     1      -7.736   7.694  72.036  1.00  0.00    -0.088 C  
HETATM   29  F   UNL     1      -6.760   8.479  72.543  1.00  0.00    -0.085 F  
HETATM   30  F   UNL     1      -7.132   6.542  71.619  1.00  0.00    -0.073 F  
HETATM   31  F   UNL     1      -8.537   7.326  73.066  1.00  0.00    -0.128 F  
BRANCH  27  32
HETATM   32  C   UNL     1     -10.038   8.028  70.904  1.00  0.00    -0.211 A  
HETATM   33  C   UNL     1     -10.820   8.931  71.663  1.00  0.00    -0.420 A  
HETATM   34  C   UNL     1     -12.175   8.700  71.916  1.00  0.00    -0.419 A  
HETATM   35  C   UNL     1     -12.779   7.549  71.432  1.00  0.00    -0.348 A  
HETATM   36  C   UNL     1     -12.072   6.683  70.599  1.00  0.00    -0.342 A  
HETATM   37 CL   UNL     1     -14.410   7.193  71.853  1.00  0.00    -0.512 Cl 
HETATM   38  C   UNL     1     -10.723   6.943  70.279  1.00  0.00    -0.242 A  
BRANCH  38  39
HETATM   39  N   UNL     1     -10.098   6.115  69.302  1.00  0.00    -0.163 NA 
HETATM   40  C   UNL     1      -9.673   6.425  68.022  1.00  0.00    -0.122 A  
HETATM   41  C   UNL     1      -9.338   5.231  67.422  1.00  0.00    -0.122 A  
HETATM   42  C   UNL     1      -9.507   4.275  68.431  1.00  0.00    -0.155 A  
HETATM   43  N   UNL     1      -9.794   4.842  69.593  1.00  0.00    -0.206 NA 
HETATM   44  C   UNL     1      -9.439   2.793  68.366  1.00  0.00    -0.209 C  
ENDBRANCH  38  39
ENDBRANCH  27  32
ENDBRANCH  26  27
ENDBRANCH  23  26
ENDBRANCH  14  17
ENDBRANCH  10  11
ENDBRANCH   6  10
ENDBRANCH   4   6
ENDBRANCH   3   4
ENDBRANCH   2   3
TORSDOF 10
ENDMDL
MODEL      104
REMARK 921   NORMALIZED FREE ENERGY PREDICTED BY IDOCK:   -5.57 KCAL/MOL
REMARK 922        TOTAL FREE ENERGY PREDICTED BY IDOCK:  -11.17 KCAL/MOL
REMARK 923 INTER-LIGAND FREE ENERGY PREDICTED BY IDOCK:   -8.91 KCAL/MOL
REMARK 924 INTRA-LIGAND FREE ENERGY PREDICTED BY IDOCK:   -2.26 KCAL/MOL
REMARK 927      BINDING AFFINITY PREDICTED BY RF-SCORE:    0.00 PKD
ROOT
HETATM    1  C   UNL     1     -10.615   6.776  67.364  1.00  0.00    -0.372 C  
HETATM    2  C   UNL     1     -10.059   5.542  68.052  1.00  0.00    -0.175 C  
ENDROOT
BRANCH   2   3
HETATM    3  O   UNL     1     -10.681   5.442  69.338  1.00  0.00    -0.274 OA 
BRANCH   3   4
HETATM    4  C   UNL     1     -10.039   4.615  70.219  1.00  0.00    -0.206 C  
HETATM    5  O   UNL     1      -9.605   3.502  69.953  1.00  0.00    -0.188 OA 
BRANCH   4   6
HETATM    6  C   UNL     1      -9.927   5.329  71.573  1.00  0.00    -0.182 C  
HETATM    7  N   UNL     1     -10.260   4.370  72.653  1.00  0.00    -0.175 NA 
HETATM    8  H2  UNL     1      -9.690   3.525  72.611  1.00  0.00     0.000 HD 
HETATM    9  H1  UNL     1     -10.186   4.845  73.552  1.00  0.00     0.000 HD 
BRANCH   6  10
HETATM   10  C   UNL     1      -8.519   5.936  71.757  1.00  0.00    -0.131 C  
BRANCH  10  11
HETATM   11  C   UNL     1      -8.207   7.204  70.973  1.00  0.00    -0.109 A  
HETATM   12  C   UNL     1      -8.792   8.444  71.246  1.00  0.00    -0.210 A  
HETATM   13  C   UNL     1      -8.479   9.584  70.465  1.00  0.00    -0.213 A  
HETATM   14  C   UNL     1      -7.580   9.537  69.377  1.00  0.00    -0.091 A  
HETATM   15  C   UNL     1      -6.948   8.296  69.178  1.00  0.00    -0.063 A  
HETATM   16  C   UNL     1      -7.258   7.160  69.947  1.00  0.00    -0.079 A  
BRANCH  14  17
HETATM   17  C   UNL     1      -7.393  10.696  68.436  1.00  0.00    -0.091 A  
HETATM   18  N   UNL     1      -6.535  10.512  67.406  1.00  0.00    -0.061 NA 
HETATM   19  C   UNL     1      -6.210  11.576  66.659  1.00  0.00    -0.113 A  
HETATM   20  N   UNL     1      -6.603  12.837  66.878  1.00  0.00     0.017 NA 
HETATM   21  N   UNL     1      -5.324  11.376  65.620  1.00  0.00    -0.496 NA 
HETATM   22  H1  UNL     1      -5.077  12.185  65.052  1.00  0.00     0.000 HD 
HETATM   23  C   UNL     1      -7.465  12.995  67.886  1.00  0.00    -0.137 A  
HETATM   24  H2  UNL     1      -4.932  10.454  65.428  1.00  0.00     0.000 HD 
HETATM   25  C   UNL     1      -7.931  11.953  68.664  1.00  0.00    -0.101 A  
BRANCH  23  26
HETATM   26  O   UNL     1      -7.821  14.266  68.300  1.00  0.00    -0.123 OA 
BRANCH  26  27
HETATM   27  C   UNL     1      -9.222  14.517  68.570  1.00  0.00    -0.195 C  
HETATM   28  C   UNL     1      -9.584  15.941  69.062  1.00  0.00    -0.247 C  
HETATM   29  F   UNL     1      -8.518  16.702  69.396  1.00  0.00    -0.210 F  
HETATM   30  F   UNL     1     -10.358  15.842  70.183  1.00  0.00    -0.278 F  
HETATM   31  F   UNL     1     -10.325  16.649  68.175  1.00  0.00    -0.255 F  
BRANCH  27  32
HETATM   32  C   UNL     1     -10.107  14.055  67.371  1.00  0.00    -0.244 A  
HETATM   33  C   UNL     1      -9.579  14.283  66.078  1.00  0.00    -0.271 A  
HETATM   34  C   UNL     1     -10.332  14.053  64.923  1.00  0.00    -0.434 A  
HETATM   35  C   UNL     1     -11.640  13.606  65.032  1.00  0.00    -0.332 A  
HETATM   36  C   UNL     1     -12.167  13.276  66.280  1.00  0.00    -0.440 A  
HETATM   37 CL   UNL     1     -12.615  13.450  63.622  1.00  0.00    -0.274 Cl 
HETATM   38  C   UNL     1     -11.392  13.438  67.447  1.00  0.00    -0.309 A  
BRANCH  38  39
HETATM   39  N   UNL     1     -11.921  12.939  68.673  1.00  0.00    -0.297 NA 
HETATM   40  C   UNL     1     -12.421  13.627  69.765  1.00  0.00    -0.137 A  
HETATM   41  C   UNL     1     -12.602  12.696  70.764  1.00  0.00    -0.302 A  
HETATM   42  C   UNL     1     -12.272  11.473  70.164  1.00  0.00    -0.308 A  
HETATM   43  N   UNL     1     -12.035  11.617  68.869  1.00  0.00    -0.364 NA 
HETATM   44  C   UNL     1     -12.133  10.121  70.761  1.00  0.00    -0.438 C  
ENDBRANCH  38  39
ENDBRANCH  27  32
ENDBRANCH  26  27
ENDBRANCH  23  26
ENDBRANCH  14  17
ENDBRANCH  10  11
ENDBRANCH   6  10
ENDBRANCH   4   6
ENDBRANCH   3   4
ENDBRANCH   2   3
TORSDOF 10
ENDMDL
MODEL      105
REMARK 921   NORMALIZED FREE ENERGY PREDICTED BY IDOCK:   -5.55 KCAL/MOL
REMARK 922        TOTAL FREE ENERGY PREDICTED BY IDOCK:  -11.13 KCAL/MOL
REMARK 923 INTER-LIGAND FREE ENERGY PREDICTED BY IDOCK:   -9.59 KCAL/MOL
REMARK 924 INTRA-LIGAND FREE ENERGY PREDICTED BY IDOCK:   -1.54 KCAL/MOL
REMARK 927      BINDING AFFINITY PREDICTED BY RF-SCORE:    0.00 PKD
ROOT
HETATM    1  C   UNL     1     -12.174  16.819  74.565  1.00  0.00    -0.262 C  
HETATM    2  C   UNL     1     -11.973  15.822  73.439  1.00  0.00    -0.431 C  
ENDROOT
BRANCH   2   3
HETATM    3  O   UNL     1     -11.858  16.561  72.217  1.00  0.00    -0.519 OA 
BRANCH   3   4
HETATM    4  C   UNL     1     -11.531  15.807  71.123  1.00  0.00    -0.414 C  
HETATM    5  O   UNL     1     -10.403  15.423  70.844  1.00  0.00    -0.050 OA 
BRANCH   4   6
HETATM    6  C   UNL     1     -12.811  15.502  70.334  1.00  0.00    -0.281 C  
HETATM    7  N   UNL     1     -12.447  15.145  68.943  1.00  0.00    -0.540 NA 
HETATM    8  H2  UNL     1     -11.774  14.379  68.901  1.00  0.00     0.000 HD 
HETATM    9  H1  UNL     1     -13.299  14.942  68.419  1.00  0.00     0.000 HD 
BRANCH   6  10
HETATM   10  C   UNL     1     -13.623  14.383  71.021  1.00  0.00    -0.256 C  
BRANCH  10  11
HETATM   11  C   UNL     1     -13.035  12.978  70.980  1.00  0.00    -0.196 A  
HETATM   12  C   UNL     1     -12.076  12.570  70.047  1.00  0.00    -0.337 A  
HETATM   13  C   UNL     1     -11.584  11.242  70.043  1.00  0.00    -0.404 A  
HETATM   14  C   UNL     1     -12.030  10.264  70.959  1.00  0.00    -0.483 A  
HETATM   15  C   UNL     1     -12.933  10.725  71.934  1.00  0.00    -0.524 A  
HETATM   16  C   UNL     1     -13.428  12.041  71.940  1.00  0.00    -0.305 A  
BRANCH  14  17
HETATM   17  C   UNL     1     -11.650   8.813  70.835  1.00  0.00    -0.277 A  
HETATM   18  N   UNL     1     -12.208   7.959  71.725  1.00  0.00    -0.298 NA 
HETATM   19  C   UNL     1     -11.755   6.698  71.758  1.00  0.00    -0.318 A  
HETATM   20  N   UNL     1     -10.740   6.211  71.034  1.00  0.00    -0.248 NA 
HETATM   21  N   UNL     1     -12.324   5.843  72.679  1.00  0.00    -0.506 NA 
HETATM   22  H1  UNL     1     -11.980   4.883  72.704  1.00  0.00     0.000 HD 
HETATM   23  C   UNL     1     -10.216   7.062  70.148  1.00  0.00    -0.193 A  
HETATM   24  H2  UNL     1     -13.061   6.158  73.311  1.00  0.00     0.000 HD 
HETATM   25  C   UNL     1     -10.666   8.356  69.972  1.00  0.00    -0.236 A  
BRANCH  23  26
HETATM   26  O   UNL     1      -9.069   6.720  69.453  1.00  0.00    -0.143 OA 
BRANCH  26  27
HETATM   27  C   UNL     1      -8.367   7.777  68.755  1.00  0.00    -0.128 C  
HETATM   28  C   UNL     1      -6.971   8.160  69.310  1.00  0.00    -0.055 C  
HETATM   29  F   UNL     1      -6.683   7.617  70.513  1.00  0.00    -0.041 F  
HETATM   30  F   UNL     1      -6.912   9.515  69.470  1.00  0.00    -0.050 F  
HETATM   31  F   UNL     1      -5.952   7.852  68.471  1.00  0.00    -0.034 F  
BRANCH  27  32
HETATM   32  C   UNL     1      -8.346   7.506  67.218  1.00  0.00    -0.118 A  
HETATM   33  C   UNL     1      -8.144   6.162  66.822  1.00  0.00    -0.109 A  
HETATM   34  C   UNL     1      -7.957   5.809  65.482  1.00  0.00    -0.115 A  
HETATM   35  C   UNL     1      -7.949   6.793  64.506  1.00  0.00    -0.106 A  
HETATM   36  C   UNL     1      -8.241   8.116  64.840  1.00  0.00    -0.150 A  
HETATM   37 CL   UNL     1      -7.586   6.382  62.875  1.00  0.00    -0.074 Cl 
HETATM   38  C   UNL     1      -8.500   8.472  66.180  1.00  0.00    -0.132 A  
BRANCH  38  39
HETATM   39  N   UNL     1      -8.946   9.801  66.441  1.00  0.00    -0.148 NA 
HETATM   40  C   UNL     1      -8.402  10.770  67.265  1.00  0.00    -0.124 A  
HETATM   41  C   UNL     1      -9.324  11.792  67.328  1.00  0.00    -0.171 A  
HETATM   42  C   UNL     1     -10.342  11.396  66.451  1.00  0.00    -0.242 A  
HETATM   43  N   UNL     1     -10.019  10.289  65.800  1.00  0.00    -0.259 NA 
HETATM   44  C   UNL     1     -11.672  12.004  66.192  1.00  0.00    -0.313 C  
ENDBRANCH  38  39
ENDBRANCH  27  32
ENDBRANCH  26  27
ENDBRANCH  23  26
ENDBRANCH  14  17
ENDBRANCH  10  11
ENDBRANCH   6  10
ENDBRANCH   4   6
ENDBRANCH   3   4
ENDBRANCH   2   3
TORSDOF 10
ENDMDL
MODEL      106
REMARK 921   NORMALIZED FREE ENERGY PREDICTED BY IDOCK:   -5.53 KCAL/MOL
REMARK 922        TOTAL FREE ENERGY PREDICTED BY IDOCK:  -11.11 KCAL/MOL
REMARK 923 INTER-LIGAND FREE ENERGY PREDICTED BY IDOCK:   -9.15 KCAL/MOL
REMARK 924 INTRA-LIGAND FREE ENERGY PREDICTED BY IDOCK:   -1.96 KCAL/MOL
REMARK 927      BINDING AFFINITY PREDICTED BY RF-SCORE:    0.00 PKD
ROOT
HETATM    1  C   UNL     1     -10.862  19.621  67.096  1.00  0.00    -0.526 C  
HETATM    2  C   UNL     1      -9.730  20.150  66.235  1.00  0.00    -0.397 C  
ENDROOT
BRANCH   2   3
HETATM    3  O   UNL     1      -8.498  19.682  66.797  1.00  0.00    -0.282 OA 
BRANCH   3   4
HETATM    4  C   UNL     1      -7.683  19.023  65.916  1.00  0.00    -0.156 C  
HETATM    5  O   UNL     1      -7.089  19.543  64.981  1.00  0.00    -0.378 OA 
BRANCH   4   6
HETATM    6  C   UNL     1      -7.615  17.544  66.320  1.00  0.00    -0.308 C  
HETATM    7  N   UNL     1      -7.433  17.453  67.788  1.00  0.00    -0.185 NA 
HETATM    8  H2  UNL     1      -8.152  17.964  68.302  1.00  0.00     0.000 HD 
HETATM    9  H1  UNL     1      -7.388  16.470  68.056  1.00  0.00     0.000 HD 
BRANCH   6  10
HETATM   10  C   UNL     1      -8.879  16.790  65.850  1.00  0.00    -0.088 C  
BRANCH  10  11
HETATM   11  C   UNL     1      -9.395  15.679  66.755  1.00  0.00    -0.268 A  
HETATM   12  C   UNL     1      -8.697  14.492  66.996  1.00  0.00    -0.256 A  
HETATM   13  C   UNL     1      -9.242  13.483  67.828  1.00  0.00    -0.213 A  
HETATM   14  C   UNL     1     -10.504  13.609  68.448  1.00  0.00    -0.251 A  
HETATM   15  C   UNL     1     -11.145  14.846  68.253  1.00  0.00    -0.290 A  
HETATM   16  C   UNL     1     -10.612  15.849  67.423  1.00  0.00    -0.315 A  
BRANCH  14  17
HETATM   17  C   UNL     1     -11.161  12.467  69.175  1.00  0.00    -0.239 A  
HETATM   18  N   UNL     1     -12.020  12.792  70.170  1.00  0.00    -0.337 NA 
HETATM   19  C   UNL     1     -12.481  11.805  70.951  1.00  0.00    -0.318 A  
HETATM   20  N   UNL     1     -12.115  10.519  70.887  1.00  0.00    -0.351 NA 
HETATM   21  N   UNL     1     -13.345  12.153  71.969  1.00  0.00    -0.467 NA 
HETATM   22  H1  UNL     1     -13.696  11.402  72.563  1.00  0.00     0.000 HD 
HETATM   23  C   UNL     1     -11.284  10.215  69.888  1.00  0.00    -0.287 A  
HETATM   24  H2  UNL     1     -13.623  13.123  72.121  1.00  0.00     0.000 HD 
HETATM   25  C   UNL     1     -10.817  11.140  68.973  1.00  0.00    -0.276 A  
BRANCH  23  26
HETATM   26  O   UNL     1     -10.721   8.954  69.813  1.00  0.00    -0.229 OA 
BRANCH  26  27
HETATM   27  C   UNL     1      -9.316   8.863  69.469  1.00  0.00    -0.155 C  
HETATM   28  C   UNL     1      -8.316   8.877  70.653  1.00  0.00    -0.166 C  
HETATM   29  F   UNL     1      -8.867   9.202  71.843  1.00  0.00    -0.243 F  
HETATM   30  F   UNL     1      -7.346   9.807  70.405  1.00  0.00    -0.100 F  
HETATM   31  F   UNL     1      -7.655   7.705  70.818  1.00  0.00    -0.074 F  
BRANCH  27  32
HETATM   32  C   UNL     1      -9.063   7.679  68.485  1.00  0.00    -0.131 A  
HETATM   33  C   UNL     1      -9.257   6.377  69.008  1.00  0.00    -0.129 A  
HETATM   34  C   UNL     1      -8.922   5.233  68.278  1.00  0.00    -0.116 A  
HETATM   35  C   UNL     1      -8.367   5.361  67.014  1.00  0.00    -0.107 A  
HETATM   36  C   UNL     1      -8.250   6.618  66.423  1.00  0.00    -0.117 A  
HETATM   37 CL   UNL     1      -7.830   3.962  66.167  1.00  0.00    -0.089 Cl 
HETATM   38  C   UNL     1      -8.651   7.776  67.123  1.00  0.00    -0.128 A  
BRANCH  38  39
HETATM   39  N   UNL     1      -8.657   9.013  66.415  1.00  0.00    -0.122 NA 
HETATM   40  C   UNL     1      -7.885  10.145  66.608  1.00  0.00    -0.110 A  
HETATM   41  C   UNL     1      -8.426  11.128  65.809  1.00  0.00    -0.076 A  
HETATM   42  C   UNL     1      -9.455  10.481  65.111  1.00  0.00    -0.233 A  
HETATM   43  N   UNL     1      -9.465   9.181  65.358  1.00  0.00    -0.216 NA 
HETATM   44  C   UNL     1     -10.492  11.036  64.206  1.00  0.00    -0.427 C  
ENDBRANCH  38  39
ENDBRANCH  27  32
ENDBRANCH  26  27
ENDBRANCH  23  26
ENDBRANCH  14  17
ENDBRANCH  10  11
ENDBRANCH   6  10
ENDBRANCH   4   6
ENDBRANCH   3   4
ENDBRANCH   2   3
TORSDOF 10
ENDMDL
MODEL      107
REMARK 921   NORMALIZED FREE ENERGY PREDICTED BY IDOCK:   -5.53 KCAL/MOL
REMARK 922        TOTAL FREE ENERGY PREDICTED BY IDOCK:  -11.10 KCAL/MOL
REMARK 923 INTER-LIGAND FREE ENERGY PREDICTED BY IDOCK:   -9.85 KCAL/MOL
REMARK 924 INTRA-LIGAND FREE ENERGY PREDICTED BY IDOCK:   -1.25 KCAL/MOL
REMARK 927      BINDING AFFINITY PREDICTED BY RF-SCORE:    0.00 PKD
ROOT
HETATM    1  C   UNL     1     -11.593  12.974  68.385  1.00  0.00    -0.370 C  
HETATM    2  C   UNL     1     -12.340  14.249  68.035  1.00  0.00     0.028 C  
ENDROOT
BRANCH   2   3
HETATM    3  O   UNL     1     -11.809  14.740  66.799  1.00  0.00    -0.353 OA 
BRANCH   3   4
HETATM    4  C   UNL     1     -12.500  14.347  65.685  1.00  0.00    -0.333 C  
HETATM    5  O   UNL     1     -13.635  13.889  65.685  1.00  0.00    -0.478 OA 
BRANCH   4   6
HETATM    6  C   UNL     1     -11.631  14.610  64.448  1.00  0.00    -0.305 C  
HETATM    7  N   UNL     1     -11.753  16.037  64.067  1.00  0.00    -1.249 NA 
HETATM    8  H2  UNL     1     -11.530  16.666  64.839  1.00  0.00     0.000 HD 
HETATM    9  H1  UNL     1     -11.175  16.211  63.245  1.00  0.00     0.000 HD 
BRANCH   6  10
HETATM   10  C   UNL     1     -10.164  14.210  64.715  1.00  0.00    -0.311 C  
BRANCH  10  11
HETATM   11  C   UNL     1      -9.913  12.784  65.190  1.00  0.00    -0.185 A  
HETATM   12  C   UNL     1     -10.501  11.660  64.602  1.00  0.00    -0.354 A  
HETATM   13  C   UNL     1     -10.248  10.360  65.104  1.00  0.00    -0.326 A  
HETATM   14  C   UNL     1      -9.407  10.124  66.214  1.00  0.00    -0.214 A  
HETATM   15  C   UNL     1      -8.767  11.265  66.732  1.00  0.00    -0.166 A  
HETATM   16  C   UNL     1      -9.019  12.558  66.241  1.00  0.00    -0.009 A  
BRANCH  14  17
HETATM   17  C   UNL     1      -9.288   8.770  66.861  1.00  0.00    -0.167 A  
HETATM   18  N   UNL     1     -10.296   7.896  66.632  1.00  0.00    -0.267 NA 
HETATM   19  C   UNL     1     -10.310   6.754  67.334  1.00  0.00    -0.223 A  
HETATM   20  N   UNL     1      -9.451   6.420  68.304  1.00  0.00    -0.122 NA 
HETATM   21  N   UNL     1     -11.350   5.878  67.100  1.00  0.00    -0.346 NA 
HETATM   22  H1  UNL     1     -11.361   5.009  67.634  1.00  0.00     0.000 HD 
HETATM   23  C   UNL     1      -8.453   7.286  68.501  1.00  0.00    -0.125 A  
HETATM   24  H2  UNL     1     -12.080   6.091  66.419  1.00  0.00     0.000 HD 
HETATM   25  C   UNL     1      -8.296   8.450  67.774  1.00  0.00    -0.130 A  
BRANCH  23  26
HETATM   26  O   UNL     1      -7.595   7.122  69.574  1.00  0.00    -0.096 OA 
BRANCH  26  27
HETATM   27  C   UNL     1      -7.729   8.039  70.688  1.00  0.00    -0.089 C  
HETATM   28  C   UNL     1      -6.871   9.328  70.625  1.00  0.00    -0.094 C  
HETATM   29  F   UNL     1      -5.935   9.327  69.650  1.00  0.00    -0.035 F  
HETATM   30  F   UNL     1      -6.202   9.477  71.806  1.00  0.00    -0.071 F  
HETATM   31  F   UNL     1      -7.603  10.460  70.482  1.00  0.00    -0.120 F  
BRANCH  27  32
HETATM   32  C   UNL     1      -9.232   8.334  70.984  1.00  0.00    -0.191 A  
HETATM   33  C   UNL     1      -9.761   9.521  70.420  1.00  0.00    -0.328 A  
HETATM   34  C   UNL     1     -11.046   9.974  70.730  1.00  0.00    -0.407 A  
HETATM   35  C   UNL     1     -11.829   9.264  71.626  1.00  0.00    -0.383 A  
HETATM   36  C   UNL     1     -11.387   8.040  72.129  1.00  0.00    -0.387 A  
HETATM   37 CL   UNL     1     -13.358   9.887  72.114  1.00  0.00    -0.534 Cl 
HETATM   38  C   UNL     1     -10.119   7.538  71.768  1.00  0.00    -0.176 A  
BRANCH  38  39
HETATM   39  N   UNL     1      -9.784   6.215  72.182  1.00  0.00    -0.155 NA 
HETATM   40  C   UNL     1      -9.244   5.774  73.377  1.00  0.00    -0.132 A  
HETATM   41  C   UNL     1      -8.916   4.449  73.193  1.00  0.00    -0.120 A  
HETATM   42  C   UNL     1      -9.370   4.156  71.900  1.00  0.00    -0.132 A  
HETATM   43  N   UNL     1     -10.039   5.172  71.379  1.00  0.00    -0.192 NA 
HETATM   44  C   UNL     1      -9.185   2.935  71.075  1.00  0.00    -0.200 C  
ENDBRANCH  38  39
ENDBRANCH  27  32
ENDBRANCH  26  27
ENDBRANCH  23  26
ENDBRANCH  14  17
ENDBRANCH  10  11
ENDBRANCH   6  10
ENDBRANCH   4   6
ENDBRANCH   3   4
ENDBRANCH   2   3
TORSDOF 10
ENDMDL
MODEL      108
REMARK 921   NORMALIZED FREE ENERGY PREDICTED BY IDOCK:   -5.52 KCAL/MOL
REMARK 922        TOTAL FREE ENERGY PREDICTED BY IDOCK:  -11.09 KCAL/MOL
REMARK 923 INTER-LIGAND FREE ENERGY PREDICTED BY IDOCK:   -9.65 KCAL/MOL
REMARK 924 INTRA-LIGAND FREE ENERGY PREDICTED BY IDOCK:   -1.43 KCAL/MOL
REMARK 927      BINDING AFFINITY PREDICTED BY RF-SCORE:    0.00 PKD
ROOT
HETATM    1  C   UNL     1     -13.707  16.073  73.111  1.00  0.00    -0.441 C  
HETATM    2  C   UNL     1     -13.878  15.211  71.873  1.00  0.00    -0.503 C  
ENDROOT
BRANCH   2   3
HETATM    3  O   UNL     1     -13.081  15.782  70.829  1.00  0.00    -0.522 OA 
BRANCH   3   4
HETATM    4  C   UNL     1     -11.748  15.482  70.901  1.00  0.00    -0.375 C  
HETATM    5  O   UNL     1     -11.099  15.397  71.935  1.00  0.00    -0.371 OA 
BRANCH   4   6
HETATM    6  C   UNL     1     -11.221  15.237  69.480  1.00  0.00    -0.281 C  
HETATM    7  N   UNL     1      -9.760  15.000  69.542  1.00  0.00    -0.403 NA 
HETATM    8  H2  UNL     1      -9.515  14.244  70.182  1.00  0.00     0.000 HD 
HETATM    9  H1  UNL     1      -9.410  14.838  68.597  1.00  0.00     0.000 HD 
BRANCH   6  10
HETATM   10  C   UNL     1     -11.967  14.060  68.815  1.00  0.00    -0.382 C  
BRANCH  10  11
HETATM   11  C   UNL     1     -11.690  12.667  69.368  1.00  0.00    -0.387 A  
HETATM   12  C   UNL     1     -10.854  11.740  68.740  1.00  0.00    -0.268 A  
HETATM   13  C   UNL     1     -10.655  10.450  69.290  1.00  0.00    -0.259 A  
HETATM   14  C   UNL     1     -11.285  10.027  70.481  1.00  0.00    -0.408 A  
HETATM   15  C   UNL     1     -12.055  11.008  71.132  1.00  0.00    -0.349 A  
HETATM   16  C   UNL     1     -12.260  12.288  70.587  1.00  0.00    -0.378 A  
BRANCH  14  17
HETATM   17  C   UNL     1     -11.223   8.602  70.962  1.00  0.00    -0.271 A  
HETATM   18  N   UNL     1     -11.177   8.412  72.301  1.00  0.00    -0.359 NA 
HETATM   19  C   UNL     1     -10.941   7.173  72.755  1.00  0.00    -0.307 A  
HETATM   20  N   UNL     1     -10.672   6.101  72.000  1.00  0.00    -0.225 NA 
HETATM   21  N   UNL     1     -10.884   6.998  74.122  1.00  0.00    -0.447 NA 
HETATM   22  H1  UNL     1     -10.704   6.056  74.467  1.00  0.00     0.000 HD 
HETATM   23  C   UNL     1     -10.742   6.303  70.682  1.00  0.00    -0.264 A  
HETATM   24  H2  UNL     1     -11.016   7.781  74.763  1.00  0.00     0.000 HD 
HETATM   25  C   UNL     1     -11.063   7.520  70.111  1.00  0.00    -0.246 A  
BRANCH  23  26
HETATM   26  O   UNL     1     -10.338   5.311  69.806  1.00  0.00    -0.270 OA 
BRANCH  26  27
HETATM   27  C   UNL     1      -8.986   5.380  69.290  1.00  0.00    -0.104 C  
HETATM   28  C   UNL     1      -7.969   4.373  69.885  1.00  0.00    -0.056 C  
HETATM   29  F   UNL     1      -8.416   3.710  70.974  1.00  0.00    -0.067 F  
HETATM   30  F   UNL     1      -6.848   5.049  70.273  1.00  0.00    -0.038 F  
HETATM   31  F   UNL     1      -7.540   3.447  68.993  1.00  0.00    -0.051 F  
BRANCH  27  32
HETATM   32  C   UNL     1      -8.989   5.376  67.729  1.00  0.00    -0.108 A  
HETATM   33  C   UNL     1      -9.718   4.335  67.107  1.00  0.00    -0.232 A  
HETATM   34  C   UNL     1      -9.679   4.132  65.724  1.00  0.00    -0.205 A  
HETATM   35  C   UNL     1      -8.895   4.954  64.930  1.00  0.00    -0.152 A  
HETATM   36  C   UNL     1      -8.239   6.051  65.488  1.00  0.00    -0.142 A  
HETATM   37 CL   UNL     1      -8.737   4.627  63.248  1.00  0.00    -0.130 Cl 
HETATM   38  C   UNL     1      -8.329   6.307  66.873  1.00  0.00    -0.109 A  
BRANCH  38  39
HETATM   39  N   UNL     1      -7.772   7.524  67.362  1.00  0.00    -0.115 NA 
HETATM   40  C   UNL     1      -6.879   8.393  66.760  1.00  0.00    -0.069 A  
HETATM   41  C   UNL     1      -6.498   9.295  67.729  1.00  0.00    -0.059 A  
HETATM   42  C   UNL     1      -7.270   8.952  68.847  1.00  0.00    -0.074 A  
HETATM   43  N   UNL     1      -8.148   8.005  68.557  1.00  0.00    -0.124 NA 
HETATM   44  C   UNL     1      -7.215   9.462  70.240  1.00  0.00    -0.104 C  
ENDBRANCH  38  39
ENDBRANCH  27  32
ENDBRANCH  26  27
ENDBRANCH  23  26
ENDBRANCH  14  17
ENDBRANCH  10  11
ENDBRANCH   6  10
ENDBRANCH   4   6
ENDBRANCH   3   4
ENDBRANCH   2   3
TORSDOF 10
ENDMDL
MODEL      109
REMARK 921   NORMALIZED FREE ENERGY PREDICTED BY IDOCK:   -5.51 KCAL/MOL
REMARK 922        TOTAL FREE ENERGY PREDICTED BY IDOCK:  -11.08 KCAL/MOL
REMARK 923 INTER-LIGAND FREE ENERGY PREDICTED BY IDOCK:   -8.65 KCAL/MOL
REMARK 924 INTRA-LIGAND FREE ENERGY PREDICTED BY IDOCK:   -2.43 KCAL/MOL
REMARK 927      BINDING AFFINITY PREDICTED BY RF-SCORE:    0.00 PKD
ROOT
HETATM    1  C   UNL     1      -9.824   4.170  62.752  1.00  0.00    -0.133 C  
HETATM    2  C   UNL     1     -10.465   3.366  63.868  1.00  0.00    -0.248 C  
ENDROOT
BRANCH   2   3
HETATM    3  O   UNL     1      -9.423   2.659  64.551  1.00  0.00    -0.143 OA 
BRANCH   3   4
HETATM    4  C   UNL     1      -8.926   3.299  65.653  1.00  0.00    -0.144 C  
HETATM    5  O   UNL     1      -9.599   3.885  66.491  1.00  0.00    -0.195 OA 
BRANCH   4   6
HETATM    6  C   UNL     1      -7.402   3.127  65.677  1.00  0.00    -0.072 C  
HETATM    7  N   UNL     1      -7.069   1.725  65.331  1.00  0.00    -0.050 NA 
HETATM    8  H2  UNL     1      -7.479   1.436  64.443  1.00  0.00     0.000 HD 
HETATM    9  H1  UNL     1      -6.055   1.612  65.347  1.00  0.00     0.000 HD 
BRANCH   6  10
HETATM   10  C   UNL     1      -6.723   4.132  64.719  1.00  0.00    -0.045 C  
BRANCH  10  11
HETATM   11  C   UNL     1      -6.857   5.610  65.062  1.00  0.00    -0.051 A  
HETATM   12  C   UNL     1      -6.477   6.155  66.293  1.00  0.00    -0.047 A  
HETATM   13  C   UNL     1      -6.649   7.535  66.562  1.00  0.00    -0.053 A  
HETATM   14  C   UNL     1      -7.212   8.427  65.624  1.00  0.00    -0.075 A  
HETATM   15  C   UNL     1      -7.510   7.866  64.368  1.00  0.00    -0.098 A  
HETATM   16  C   UNL     1      -7.345   6.496  64.098  1.00  0.00    -0.077 A  
BRANCH  14  17
HETATM   17  C   UNL     1      -7.567   9.847  65.976  1.00  0.00    -0.106 A  
HETATM   18  N   UNL     1      -6.545  10.661  66.330  1.00  0.00    -0.117 NA 
HETATM   19  C   UNL     1      -6.844  11.872  66.820  1.00  0.00    -0.005 A  
HETATM   20  N   UNL     1      -8.075  12.335  67.064  1.00  0.00    -0.168 NA 
HETATM   21  N   UNL     1      -5.792  12.685  67.188  1.00  0.00    -0.405 NA 
HETATM   22  H1  UNL     1      -6.020  13.606  67.561  1.00  0.00     0.000 HD 
HETATM   23  C   UNL     1      -9.071  11.527  66.690  1.00  0.00    -0.190 A  
HETATM   24  H2  UNL     1      -4.824  12.377  67.091  1.00  0.00     0.000 HD 
HETATM   25  C   UNL     1      -8.873  10.296  66.096  1.00  0.00    -0.166 A  
BRANCH  23  26
HETATM   26  O   UNL     1     -10.377  11.833  67.029  1.00  0.00    -0.208 OA 
BRANCH  26  27
HETATM   27  C   UNL     1     -10.724  13.233  67.171  1.00  0.00    -0.259 C  
HETATM   28  C   UNL     1     -11.654  13.825  66.082  1.00  0.00    -0.352 C  
HETATM   29  F   UNL     1     -11.839  13.022  65.011  1.00  0.00    -0.335 F  
HETATM   30  F   UNL     1     -11.105  14.983  65.610  1.00  0.00    -0.321 F  
HETATM   31  F   UNL     1     -12.879  14.172  66.546  1.00  0.00    -0.422 F  
BRANCH  27  32
HETATM   32  C   UNL     1     -11.229  13.533  68.617  1.00  0.00    -0.311 A  
HETATM   33  C   UNL     1     -11.785  12.441  69.326  1.00  0.00    -0.386 A  
HETATM   34  C   UNL     1     -12.406  12.607  70.567  1.00  0.00    -0.350 A  
HETATM   35  C   UNL     1     -12.503  13.873  71.123  1.00  0.00    -0.372 A  
HETATM   36  C   UNL     1     -11.883  14.960  70.507  1.00  0.00    -0.358 A  
HETATM   37 CL   UNL     1     -13.382  14.105  72.585  1.00  0.00    -0.601 Cl 
HETATM   38  C   UNL     1     -11.193  14.791  69.288  1.00  0.00    -0.283 A  
BRANCH  38  39
HETATM   39  N   UNL     1     -10.448  15.898  68.786  1.00  0.00    -0.227 NA 
HETATM   40  C   UNL     1     -10.868  16.973  68.024  1.00  0.00    -0.330 A  
HETATM   41  C   UNL     1      -9.730  17.639  67.626  1.00  0.00    -0.277 A  
HETATM   42  C   UNL     1      -8.686  16.953  68.260  1.00  0.00    -0.235 A  
HETATM   43  N   UNL     1      -9.146  16.025  69.084  1.00  0.00    -0.242 NA 
HETATM   44  C   UNL     1      -7.216  17.102  68.116  1.00  0.00    -0.193 C  
ENDBRANCH  38  39
ENDBRANCH  27  32
ENDBRANCH  26  27
ENDBRANCH  23  26
ENDBRANCH  14  17
ENDBRANCH  10  11
ENDBRANCH   6  10
ENDBRANCH   4   6
ENDBRANCH   3   4
ENDBRANCH   2   3
TORSDOF 10
ENDMDL
MODEL      110
REMARK 921   NORMALIZED FREE ENERGY PREDICTED BY IDOCK:   -5.50 KCAL/MOL
REMARK 922        TOTAL FREE ENERGY PREDICTED BY IDOCK:  -11.06 KCAL/MOL
REMARK 923 INTER-LIGAND FREE ENERGY PREDICTED BY IDOCK:   -8.74 KCAL/MOL
REMARK 924 INTRA-LIGAND FREE ENERGY PREDICTED BY IDOCK:   -2.32 KCAL/MOL
REMARK 927      BINDING AFFINITY PREDICTED BY RF-SCORE:    0.00 PKD
ROOT
HETATM    1  C   UNL     1     -10.514  16.194  65.519  1.00  0.00    -0.407 C  
HETATM    2  C   UNL     1     -11.520  15.540  64.589  1.00  0.00    -0.324 C  
ENDROOT
BRANCH   2   3
HETATM    3  O   UNL     1     -11.684  14.180  65.011  1.00  0.00    -0.343 OA 
BRANCH   3   4
HETATM    4  C   UNL     1     -12.003  13.306  64.007  1.00  0.00    -0.465 C  
HETATM    5  O   UNL     1     -12.666  13.583  63.017  1.00  0.00    -0.668 OA 
BRANCH   4   6
HETATM    6  C   UNL     1     -11.364  11.946  64.318  1.00  0.00    -0.353 C  
HETATM    7  N   UNL     1     -11.134  11.220  63.046  1.00  0.00    -0.841 NA 
HETATM    8  H2  UNL     1     -10.585  11.764  62.381  1.00  0.00     0.000 HD 
HETATM    9  H1  UNL     1     -10.710  10.316  63.253  1.00  0.00     0.000 HD 
BRANCH   6  10
HETATM   10  C   UNL     1     -10.057  12.126  65.120  1.00  0.00    -0.288 C  
BRANCH  10  11
HETATM   11  C   UNL     1      -9.983  11.443  66.480  1.00  0.00    -0.243 A  
HETATM   12  C   UNL     1      -9.190  11.906  67.535  1.00  0.00    -0.177 A  
HETATM   13  C   UNL     1      -9.144  11.213  68.769  1.00  0.00    -0.144 A  
HETATM   14  C   UNL     1      -9.877  10.029  69.004  1.00  0.00    -0.203 A  
HETATM   15  C   UNL     1     -10.726   9.633  67.954  1.00  0.00    -0.302 A  
HETATM   16  C   UNL     1     -10.772  10.315  66.725  1.00  0.00    -0.216 A  
BRANCH  14  17
HETATM   17  C   UNL     1      -9.683   9.195  70.241  1.00  0.00    -0.211 A  
HETATM   18  N   UNL     1      -8.586   9.458  70.988  1.00  0.00    -0.289 NA 
HETATM   19  C   UNL     1      -8.290   8.619  71.991  1.00  0.00    -0.102 A  
HETATM   20  N   UNL     1      -8.943   7.490  72.286  1.00  0.00    -0.130 NA 
HETATM   21  N   UNL     1      -7.161   8.894  72.735  1.00  0.00    -0.331 NA 
HETATM   22  H1  UNL     1      -6.935   8.256  73.498  1.00  0.00     0.000 HD 
HETATM   23  C   UNL     1     -10.034   7.257  71.551  1.00  0.00    -0.182 A  
HETATM   24  H2  UNL     1      -6.574   9.704  72.531  1.00  0.00     0.000 HD 
HETATM   25  C   UNL     1     -10.477   8.101  70.552  1.00  0.00    -0.222 A  
BRANCH  23  26
HETATM   26  O   UNL     1     -10.701   6.050  71.664  1.00  0.00    -0.234 OA 
BRANCH  26  27
HETATM   27  C   UNL     1      -9.963   4.920  72.189  1.00  0.00    -0.179 C  
HETATM   28  C   UNL     1     -10.740   3.968  73.133  1.00  0.00    -0.186 C  
HETATM   29  F   UNL     1     -11.944   4.438  73.528  1.00  0.00    -0.325 F  
HETATM   30  F   UNL     1     -10.008   3.769  74.268  1.00  0.00    -0.125 F  
HETATM   31  F   UNL     1     -10.938   2.732  72.612  1.00  0.00    -0.186 F  
BRANCH  27  32
HETATM   32  C   UNL     1      -9.228   4.158  71.042  1.00  0.00    -0.202 A  
HETATM   33  C   UNL     1      -9.883   4.133  69.787  1.00  0.00    -0.220 A  
HETATM   34  C   UNL     1      -9.406   3.363  68.723  1.00  0.00    -0.234 A  
HETATM   35  C   UNL     1      -8.272   2.583  68.891  1.00  0.00    -0.051 A  
HETATM   36  C   UNL     1      -7.542   2.653  70.078  1.00  0.00    -0.043 A  
HETATM   37 CL   UNL     1      -7.758   1.531  67.630  1.00  0.00    -0.058 Cl 
HETATM   38  C   UNL     1      -7.976   3.481  71.134  1.00  0.00    -0.059 A  
BRANCH  38  39
HETATM   39  N   UNL     1      -7.111   3.635  72.257  1.00  0.00    -0.045 NA 
HETATM   40  C   UNL     1      -6.745   2.715  73.223  1.00  0.00    -0.022 A  
HETATM   41  C   UNL     1      -6.070   3.418  74.197  1.00  0.00    -0.015 A  
HETATM   42  C   UNL     1      -6.001   4.725  73.697  1.00  0.00    -0.025 A  
HETATM   43  N   UNL     1      -6.475   4.798  72.463  1.00  0.00    -0.043 NA 
HETATM   44  C   UNL     1      -5.520   5.972  74.343  1.00  0.00    -0.045 C  
ENDBRANCH  38  39
ENDBRANCH  27  32
ENDBRANCH  26  27
ENDBRANCH  23  26
ENDBRANCH  14  17
ENDBRANCH  10  11
ENDBRANCH   6  10
ENDBRANCH   4   6
ENDBRANCH   3   4
ENDBRANCH   2   3
TORSDOF 10
ENDMDL
MODEL      111
REMARK 921   NORMALIZED FREE ENERGY PREDICTED BY IDOCK:   -5.49 KCAL/MOL
REMARK 922        TOTAL FREE ENERGY PREDICTED BY IDOCK:  -11.05 KCAL/MOL
REMARK 923 INTER-LIGAND FREE ENERGY PREDICTED BY IDOCK:   -8.63 KCAL/MOL
REMARK 924 INTRA-LIGAND FREE ENERGY PREDICTED BY IDOCK:   -2.41 KCAL/MOL
REMARK 927      BINDING AFFINITY PREDICTED BY RF-SCORE:    0.00 PKD
ROOT
HETATM    1  C   UNL     1      -9.207   3.690  70.973  1.00  0.00    -0.196 C  
HETATM    2  C   UNL     1      -8.257   4.868  71.095  1.00  0.00    -0.109 C  
ENDROOT
BRANCH   2   3
HETATM    3  O   UNL     1      -8.046   5.395  69.780  1.00  0.00    -0.092 OA 
BRANCH   3   4
HETATM    4  C   UNL     1      -8.932   6.369  69.406  1.00  0.00    -0.131 C  
HETATM    5  O   UNL     1      -9.432   7.193  70.160  1.00  0.00    -0.162 OA 
BRANCH   4   6
HETATM    6  C   UNL     1      -9.160   6.272  67.892  1.00  0.00    -0.111 C  
HETATM    7  N   UNL     1     -10.606   6.438  67.611  1.00  0.00    -0.236 NA 
HETATM    8  H2  UNL     1     -10.983   7.299  68.006  1.00  0.00     0.000 HD 
HETATM    9  H1  UNL     1     -10.757   6.373  66.604  1.00  0.00     0.000 HD 
BRANCH   6  10
HETATM   10  C   UNL     1      -8.306   7.318  67.142  1.00  0.00    -0.118 C  
BRANCH  10  11
HETATM   11  C   UNL     1      -8.991   8.624  66.761  1.00  0.00    -0.167 A  
HETATM   12  C   UNL     1      -9.338   9.613  67.686  1.00  0.00    -0.144 A  
HETATM   13  C   UNL     1      -9.997  10.797  67.274  1.00  0.00    -0.219 A  
HETATM   14  C   UNL     1     -10.345  11.043  65.928  1.00  0.00    -0.315 A  
HETATM   15  C   UNL     1      -9.913  10.068  65.010  1.00  0.00    -0.320 A  
HETATM   16  C   UNL     1      -9.262   8.889  65.415  1.00  0.00    -0.202 A  
BRANCH  14  17
HETATM   17  C   UNL     1     -11.208  12.207  65.519  1.00  0.00    -0.334 A  
HETATM   18  N   UNL     1     -11.623  12.235  64.232  1.00  0.00    -0.348 NA 
HETATM   19  C   UNL     1     -12.238  13.342  63.792  1.00  0.00    -0.439 A  
HETATM   20  N   UNL     1     -12.421  14.467  64.492  1.00  0.00    -0.660 NA 
HETATM   21  N   UNL     1     -12.644  13.360  62.473  1.00  0.00    -0.224 NA 
HETATM   22  H1  UNL     1     -13.112  14.202  62.138  1.00  0.00     0.000 HD 
HETATM   23  C   UNL     1     -12.022  14.413  65.766  1.00  0.00    -0.357 A  
HETATM   24  H2  UNL     1     -12.484  12.563  61.857  1.00  0.00     0.000 HD 
HETATM   25  C   UNL     1     -11.457  13.293  66.343  1.00  0.00    -0.364 A  
BRANCH  23  26
HETATM   26  O   UNL     1     -12.022  15.559  66.541  1.00  0.00     0.277 OA 
BRANCH  26  27
HETATM   27  C   UNL     1     -10.810  15.880  67.267  1.00  0.00    -0.279 C  
HETATM   28  C   UNL     1     -10.162  17.251  66.952  1.00  0.00    -0.322 C  
HETATM   29  F   UNL     1     -10.682  17.878  65.874  1.00  0.00    -0.373 F  
HETATM   30  F   UNL     1      -8.833  17.067  66.693  1.00  0.00    -0.219 F  
HETATM   31  F   UNL     1     -10.207  18.123  67.989  1.00  0.00    -0.309 F  
BRANCH  27  32
HETATM   32  C   UNL     1     -11.005  15.647  68.798  1.00  0.00    -0.281 A  
HETATM   33  C   UNL     1     -12.342  15.591  69.258  1.00  0.00    -0.106 A  
HETATM   34  C   UNL     1     -12.651  15.536  70.620  1.00  0.00    -0.493 A  
HETATM   35  C   UNL     1     -11.630  15.554  71.559  1.00  0.00    -0.419 A  
HETATM   36  C   UNL     1     -10.298  15.509  71.148  1.00  0.00     0.611 A  
HETATM   37 CL   UNL     1     -12.007  15.622  73.237  1.00  0.00    -0.566 Cl 
HETATM   38  C   UNL     1      -9.976  15.494  69.774  1.00  0.00    -0.274 A  
BRANCH  38  39
HETATM   39  N   UNL     1      -8.612  15.289  69.413  1.00  0.00    -0.243 NA 
HETATM   40  C   UNL     1      -7.541  16.162  69.476  1.00  0.00    -0.052 A  
HETATM   41  C   UNL     1      -6.499  15.551  68.814  1.00  0.00    -0.107 A  
HETATM   42  C   UNL     1      -7.001  14.290  68.465  1.00  0.00    -0.102 A  
HETATM   43  N   UNL     1      -8.202  14.087  68.981  1.00  0.00     0.034 NA 
HETATM   44  C   UNL     1      -6.407  13.226  67.618  1.00  0.00    -0.161 C  
ENDBRANCH  38  39
ENDBRANCH  27  32
ENDBRANCH  26  27
ENDBRANCH  23  26
ENDBRANCH  14  17
ENDBRANCH  10  11
ENDBRANCH   6  10
ENDBRANCH   4   6
ENDBRANCH   3   4
ENDBRANCH   2   3
TORSDOF 10
ENDMDL
MODEL      112
REMARK 921   NORMALIZED FREE ENERGY PREDICTED BY IDOCK:   -5.46 KCAL/MOL
REMARK 922        TOTAL FREE ENERGY PREDICTED BY IDOCK:  -11.00 KCAL/MOL
REMARK 923 INTER-LIGAND FREE ENERGY PREDICTED BY IDOCK:  -10.87 KCAL/MOL
REMARK 924 INTRA-LIGAND FREE ENERGY PREDICTED BY IDOCK:   -0.13 KCAL/MOL
REMARK 927      BINDING AFFINITY PREDICTED BY RF-SCORE:    0.00 PKD
ROOT
HETATM    1  C   UNL     1     -10.200  20.080  66.497  1.00  0.00    -0.598 C  
HETATM    2  C   UNL     1      -9.452  18.901  67.091  1.00  0.00    -0.304 C  
ENDROOT
BRANCH   2   3
HETATM    3  O   UNL     1     -10.419  17.907  67.452  1.00  0.00    -0.369 OA 
BRANCH   3   4
HETATM    4  C   UNL     1     -10.453  16.817  66.626  1.00  0.00    -0.258 C  
HETATM    5  O   UNL     1     -10.248  16.840  65.420  1.00  0.00    -0.599 OA 
BRANCH   4   6
HETATM    6  C   UNL     1     -10.755  15.570  67.469  1.00  0.00    -0.300 C  
HETATM    7  N   UNL     1     -11.399  15.989  68.736  1.00  0.00    -0.365 NA 
HETATM    8  H2  UNL     1     -12.229  16.562  68.580  1.00  0.00     0.000 HD 
HETATM    9  H1  UNL     1     -11.599  15.160  69.295  1.00  0.00     0.000 HD 
BRANCH   6  10
HETATM   10  C   UNL     1     -11.633  14.575  66.679  1.00  0.00    -0.385 C  
BRANCH  10  11
HETATM   11  C   UNL     1     -11.284  13.097  66.803  1.00  0.00    -0.330 A  
HETATM   12  C   UNL     1     -11.771  12.272  67.822  1.00  0.00    -0.403 A  
HETATM   13  C   UNL     1     -11.390  10.910  67.899  1.00  0.00    -0.380 A  
HETATM   14  C   UNL     1     -10.505  10.315  66.974  1.00  0.00    -0.304 A  
HETATM   15  C   UNL     1     -10.096  11.148  65.917  1.00  0.00    -0.296 A  
HETATM   16  C   UNL     1     -10.467  12.502  65.838  1.00  0.00    -0.289 A  
BRANCH  14  17
HETATM   17  C   UNL     1      -9.956   8.926  67.164  1.00  0.00    -0.226 A  
HETATM   18  N   UNL     1     -10.652   7.913  66.598  1.00  0.00    -0.176 NA 
HETATM   19  C   UNL     1     -10.292   6.657  66.898  1.00  0.00    -0.254 A  
HETATM   20  N   UNL     1      -9.344   6.301  67.771  1.00  0.00    -0.115 NA 
HETATM   21  N   UNL     1     -11.020   5.635  66.323  1.00  0.00    -0.748 NA 
HETATM   22  H1  UNL     1     -10.747   4.679  66.551  1.00  0.00     0.000 HD 
HETATM   23  C   UNL     1      -8.655   7.314  68.304  1.00  0.00    -0.123 A  
HETATM   24  H2  UNL     1     -11.800   5.827  65.694  1.00  0.00     0.000 HD 
HETATM   25  C   UNL     1      -8.885   8.641  67.997  1.00  0.00    -0.141 A  
BRANCH  23  26
HETATM   26  O   UNL     1      -7.755   7.077  69.329  1.00  0.00    -0.104 OA 
BRANCH  26  27
HETATM   27  C   UNL     1      -7.887   7.869  70.535  1.00  0.00    -0.095 C  
HETATM   28  C   UNL     1      -7.091   9.198  70.577  1.00  0.00    -0.088 C  
HETATM   29  F   UNL     1      -6.195   9.341  69.576  1.00  0.00    -0.038 F  
HETATM   30  F   UNL     1      -6.385   9.258  71.744  1.00  0.00    -0.080 F  
HETATM   31  F   UNL     1      -7.879  10.301  70.577  1.00  0.00    -0.132 F  
BRANCH  27  32
HETATM   32  C   UNL     1      -9.390   8.058  70.910  1.00  0.00    -0.169 A  
HETATM   33  C   UNL     1      -9.930   9.350  70.700  1.00  0.00    -0.349 A  
HETATM   34  C   UNL     1     -11.215   9.690  71.131  1.00  0.00    -0.454 A  
HETATM   35  C   UNL     1     -11.987   8.753  71.801  1.00  0.00    -0.349 A  
HETATM   36  C   UNL     1     -11.533   7.442  71.943  1.00  0.00    -0.300 A  
HETATM   37 CL   UNL     1     -13.515   9.205  72.452  1.00  0.00    -0.520 Cl 
HETATM   38  C   UNL     1     -10.265   7.069  71.449  1.00  0.00    -0.196 A  
BRANCH  38  39
HETATM   39  N   UNL     1      -9.919   5.686  71.480  1.00  0.00    -0.175 NA 
HETATM   40  C   UNL     1      -9.273   4.959  72.463  1.00  0.00    -0.132 A  
HETATM   41  C   UNL     1      -8.993   3.725  71.917  1.00  0.00    -0.148 A  
HETATM   42  C   UNL     1      -9.579   3.768  70.645  1.00  0.00    -0.189 A  
HETATM   43  N   UNL     1     -10.274   4.880  70.468  1.00  0.00    -0.241 NA 
HETATM   44  C   UNL     1      -9.502   2.797  69.524  1.00  0.00    -0.147 C  
ENDBRANCH  38  39
ENDBRANCH  27  32
ENDBRANCH  26  27
ENDBRANCH  23  26
ENDBRANCH  14  17
ENDBRANCH  10  11
ENDBRANCH   6  10
ENDBRANCH   4   6
ENDBRANCH   3   4
ENDBRANCH   2   3
TORSDOF 10
ENDMDL
MODEL      113
REMARK 921   NORMALIZED FREE ENERGY PREDICTED BY IDOCK:   -5.39 KCAL/MOL
REMARK 922        TOTAL FREE ENERGY PREDICTED BY IDOCK:  -10.88 KCAL/MOL
REMARK 923 INTER-LIGAND FREE ENERGY PREDICTED BY IDOCK:   -9.73 KCAL/MOL
REMARK 924 INTRA-LIGAND FREE ENERGY PREDICTED BY IDOCK:   -1.15 KCAL/MOL
REMARK 927      BINDING AFFINITY PREDICTED BY RF-SCORE:    0.00 PKD
ROOT
HETATM    1  C   UNL     1     -11.166   1.704  63.043  1.00  0.00    -0.259 C  
HETATM    2  C   UNL     1      -9.674   1.870  63.270  1.00  0.00    -0.104 C  
ENDROOT
BRANCH   2   3
HETATM    3  O   UNL     1      -9.497   2.609  64.484  1.00  0.00    -0.143 OA 
BRANCH   3   4
HETATM    4  C   UNL     1      -8.898   3.829  64.327  1.00  0.00    -0.120 C  
HETATM    5  O   UNL     1      -9.235   4.681  63.516  1.00  0.00    -0.126 OA 
BRANCH   4   6
HETATM    6  C   UNL     1      -7.766   3.958  65.356  1.00  0.00    -0.082 C  
HETATM    7  N   UNL     1      -6.681   4.786  64.778  1.00  0.00    -0.044 NA 
HETATM    8  H2  UNL     1      -7.015   5.693  64.452  1.00  0.00     0.000 HD 
HETATM    9  H1  UNL     1      -5.929   4.871  65.461  1.00  0.00     0.000 HD 
BRANCH   6  10
HETATM   10  C   UNL     1      -8.295   4.549  66.681  1.00  0.00    -0.106 C  
BRANCH  10  11
HETATM   11  C   UNL     1      -8.311   6.068  66.801  1.00  0.00    -0.106 A  
HETATM   12  C   UNL     1      -9.321   6.874  66.267  1.00  0.00    -0.144 A  
HETATM   13  C   UNL     1      -9.268   8.284  66.390  1.00  0.00    -0.247 A  
HETATM   14  C   UNL     1      -8.207   8.951  67.042  1.00  0.00    -0.106 A  
HETATM   15  C   UNL     1      -7.249   8.110  67.638  1.00  0.00    -0.092 A  
HETATM   16  C   UNL     1      -7.295   6.710  67.514  1.00  0.00    -0.095 A  
BRANCH  14  17
HETATM   17  C   UNL     1      -8.055  10.447  67.008  1.00  0.00    -0.116 A  
HETATM   18  N   UNL     1      -6.794  10.934  67.076  1.00  0.00    -0.092 NA 
HETATM   19  C   UNL     1      -6.636  12.256  67.230  1.00  0.00    -0.146 A  
HETATM   20  N   UNL     1      -7.619  13.148  67.396  1.00  0.00    -0.152 NA 
HETATM   21  N   UNL     1      -5.344  12.735  67.311  1.00  0.00    -0.331 NA 
HETATM   22  H1  UNL     1      -5.224  13.740  67.428  1.00  0.00     0.000 HD 
HETATM   23  C   UNL     1      -8.856  12.653  67.306  1.00  0.00    -0.196 A  
HETATM   24  H2  UNL     1      -4.541  12.108  67.256  1.00  0.00     0.000 HD 
HETATM   25  C   UNL     1      -9.130  11.321  67.063  1.00  0.00    -0.167 A  
BRANCH  23  26
HETATM   26  O   UNL     1      -9.945  13.449  67.610  1.00  0.00    -0.221 OA 
BRANCH  26  27
HETATM   27  C   UNL     1     -10.529  14.229  66.536  1.00  0.00    -0.287 C  
HETATM   28  C   UNL     1     -11.878  13.719  65.971  1.00  0.00    -0.390 C  
HETATM   29  F   UNL     1     -12.229  12.485  66.395  1.00  0.00    -0.457 F  
HETATM   30  F   UNL     1     -11.795  13.654  64.609  1.00  0.00    -0.344 F  
HETATM   31  F   UNL     1     -12.920  14.547  66.228  1.00  0.00    -0.308 F  
BRANCH  27  32
HETATM   32  C   UNL     1     -10.570  15.743  66.912  1.00  0.00    -0.317 A  
HETATM   33  C   UNL     1     -10.303  16.656  65.863  1.00  0.00    -0.355 A  
HETATM   34  C   UNL     1     -10.163  18.026  66.098  1.00  0.00    -0.364 A  
HETATM   35  C   UNL     1     -10.268  18.518  67.390  1.00  0.00    -0.373 A  
HETATM   36  C   UNL     1     -10.627  17.669  68.437  1.00  0.00    -0.318 A  
HETATM   37 CL   UNL     1      -9.964  20.183  67.703  1.00  0.00    -0.550 Cl 
HETATM   38  C   UNL     1     -10.839  16.295  68.199  1.00  0.00    -0.342 A  
BRANCH  38  39
HETATM   39  N   UNL     1     -11.355  15.507  69.269  1.00  0.00    -0.300 NA 
HETATM   40  C   UNL     1     -12.267  14.466  69.240  1.00  0.00    -0.239 A  
HETATM   41  C   UNL     1     -12.587  14.191  70.552  1.00  0.00    -0.410 A  
HETATM   42  C   UNL     1     -11.764  15.045  71.297  1.00  0.00    -0.347 A  
HETATM   43  N   UNL     1     -10.913  15.698  70.521  1.00  0.00    -0.334 NA 
HETATM   44  C   UNL     1     -11.741  15.318  72.756  1.00  0.00    -0.502 C  
ENDBRANCH  38  39
ENDBRANCH  27  32
ENDBRANCH  26  27
ENDBRANCH  23  26
ENDBRANCH  14  17
ENDBRANCH  10  11
ENDBRANCH   6  10
ENDBRANCH   4   6
ENDBRANCH   3   4
ENDBRANCH   2   3
TORSDOF 10
ENDMDL
MODEL      114
REMARK 921   NORMALIZED FREE ENERGY PREDICTED BY IDOCK:   -5.35 KCAL/MOL
REMARK 922        TOTAL FREE ENERGY PREDICTED BY IDOCK:  -10.82 KCAL/MOL
REMARK 923 INTER-LIGAND FREE ENERGY PREDICTED BY IDOCK:  -10.50 KCAL/MOL
REMARK 924 INTRA-LIGAND FREE ENERGY PREDICTED BY IDOCK:   -0.32 KCAL/MOL
REMARK 927      BINDING AFFINITY PREDICTED BY RF-SCORE:    0.00 PKD
ROOT
HETATM    1  C   UNL     1     -11.907   4.802  73.160  1.00  0.00    -0.104 C  
HETATM    2  C   UNL     1     -10.460   5.068  73.535  1.00  0.00    -0.232 C  
ENDROOT
BRANCH   2   3
HETATM    3  O   UNL     1      -9.871   5.840  72.481  1.00  0.00    -0.162 OA 
BRANCH   3   4
HETATM    4  C   UNL     1      -8.796   5.250  71.874  1.00  0.00    -0.135 C  
HETATM    5  O   UNL     1      -7.667   5.192  72.343  1.00  0.00    -0.094 OA 
BRANCH   4   6
HETATM    6  C   UNL     1      -9.252   4.652  70.537  1.00  0.00    -0.132 C  
HETATM    7  N   UNL     1      -9.451   3.193  70.705  1.00  0.00    -0.154 NA 
HETATM    8  H2  UNL     1     -10.092   2.973  71.468  1.00  0.00     0.000 HD 
HETATM    9  H1  UNL     1      -9.754   2.795  69.816  1.00  0.00     0.000 HD 
BRANCH   6  10
HETATM   10  C   UNL     1     -10.533   5.352  70.033  1.00  0.00    -0.373 C  
BRANCH  10  11
HETATM   11  C   UNL     1     -10.346   6.551  69.111  1.00  0.00    -0.226 A  
HETATM   12  C   UNL     1     -10.250   7.868  69.569  1.00  0.00    -0.208 A  
HETATM   13  C   UNL     1     -10.102   8.945  68.660  1.00  0.00    -0.206 A  
HETATM   14  C   UNL     1     -10.051   8.757  67.261  1.00  0.00    -0.301 A  
HETATM   15  C   UNL     1     -10.069   7.416  66.837  1.00  0.00    -0.327 A  
HETATM   16  C   UNL     1     -10.221   6.344  67.734  1.00  0.00    -0.196 A  
BRANCH  14  17
HETATM   17  C   UNL     1     -10.084   9.909  66.293  1.00  0.00    -0.241 A  
HETATM   18  N   UNL     1      -9.725   9.641  65.015  1.00  0.00    -0.246 NA 
HETATM   19  C   UNL     1      -9.570  10.673  64.175  1.00  0.00    -0.300 A  
HETATM   20  N   UNL     1      -9.668  11.968  64.498  1.00  0.00    -0.138 NA 
HETATM   21  N   UNL     1      -9.192  10.385  62.879  1.00  0.00    -0.272 NA 
HETATM   22  H1  UNL     1      -9.074  11.170  62.240  1.00  0.00     0.000 HD 
HETATM   23  C   UNL     1     -10.042  12.212  65.756  1.00  0.00    -0.247 A  
HETATM   24  H2  UNL     1      -9.037   9.424  62.573  1.00  0.00     0.000 HD 
HETATM   25  C   UNL     1     -10.311  11.220  66.680  1.00  0.00    -0.279 A  
BRANCH  23  26
HETATM   26  O   UNL     1     -10.029  13.506  66.245  1.00  0.00    -0.285 OA 
BRANCH  26  27
HETATM   27  C   UNL     1     -10.924  14.466  65.630  1.00  0.00    -0.314 C  
HETATM   28  C   UNL     1     -12.409  14.040  65.507  1.00  0.00    -0.483 C  
HETATM   29  F   UNL     1     -12.640  12.737  65.781  1.00  0.00    -0.496 F  
HETATM   30  F   UNL     1     -12.827  14.248  64.223  1.00  0.00    -0.289 F  
HETATM   31  F   UNL     1     -13.248  14.772  66.280  1.00  0.00     0.163 F  
BRANCH  27  32
HETATM   32  C   UNL     1     -10.756  15.874  66.281  1.00  0.00    -0.261 A  
HETATM   33  C   UNL     1     -10.529  16.952  65.392  1.00  0.00    -0.172 A  
HETATM   34  C   UNL     1     -10.216  18.234  65.853  1.00  0.00    -0.236 A  
HETATM   35  C   UNL     1     -10.103  18.467  67.215  1.00  0.00    -0.352 A  
HETATM   36  C   UNL     1     -10.414  17.459  68.128  1.00  0.00    -0.389 A  
HETATM   37 CL   UNL     1      -9.587  20.007  67.783  1.00  0.00    -0.488 Cl 
HETATM   38  C   UNL     1     -10.800  16.180  67.674  1.00  0.00    -0.297 A  
BRANCH  38  39
HETATM   39  N   UNL     1     -11.257  15.240  68.643  1.00  0.00    -0.279 NA 
HETATM   40  C   UNL     1     -10.996  13.885  68.751  1.00  0.00    -0.263 A  
HETATM   41  C   UNL     1     -11.842  13.401  69.725  1.00  0.00    -0.393 A  
HETATM   42  C   UNL     1     -12.507  14.537  70.204  1.00  0.00    -0.321 A  
HETATM   43  N   UNL     1     -12.021  15.646  69.668  1.00  0.00    -0.364 NA 
HETATM   44  C   UNL     1     -13.639  14.652  71.157  1.00  0.00    -0.404 C  
ENDBRANCH  38  39
ENDBRANCH  27  32
ENDBRANCH  26  27
ENDBRANCH  23  26
ENDBRANCH  14  17
ENDBRANCH  10  11
ENDBRANCH   6  10
ENDBRANCH   4   6
ENDBRANCH   3   4
ENDBRANCH   2   3
TORSDOF 10
ENDMDL
MODEL      115
REMARK 921   NORMALIZED FREE ENERGY PREDICTED BY IDOCK:   -5.31 KCAL/MOL
REMARK 922        TOTAL FREE ENERGY PREDICTED BY IDOCK:  -10.76 KCAL/MOL
REMARK 923 INTER-LIGAND FREE ENERGY PREDICTED BY IDOCK:   -8.71 KCAL/MOL
REMARK 924 INTRA-LIGAND FREE ENERGY PREDICTED BY IDOCK:   -2.05 KCAL/MOL
REMARK 927      BINDING AFFINITY PREDICTED BY RF-SCORE:    0.00 PKD
ROOT
HETATM    1  C   UNL     1     -11.876  12.174  65.464  1.00  0.00    -0.350 C  
HETATM    2  C   UNL     1     -12.544  13.484  65.086  1.00  0.00    -0.436 C  
ENDROOT
BRANCH   2   3
HETATM    3  O   UNL     1     -12.261  14.433  66.121  1.00  0.00    -0.403 OA 
BRANCH   3   4
HETATM    4  C   UNL     1     -11.096  15.131  65.953  1.00  0.00    -0.319 C  
HETATM    5  O   UNL     1     -10.536  15.320  64.881  1.00  0.00    -0.407 OA 
BRANCH   4   6
HETATM    6  C   UNL     1     -10.638  15.660  67.318  1.00  0.00    -0.305 C  
HETATM    7  N   UNL     1     -11.825  15.850  68.185  1.00  0.00    -0.288 NA 
HETATM    8  H2  UNL     1     -12.387  15.003  68.266  1.00  0.00     0.000 HD 
HETATM    9  H1  UNL     1     -11.519  16.202  69.093  1.00  0.00     0.000 HD 
BRANCH   6  10
HETATM   10  C   UNL     1      -9.607  14.705  67.958  1.00  0.00    -0.212 C  
BRANCH  10  11
HETATM   11  C   UNL     1     -10.128  13.366  68.464  1.00  0.00    -0.208 A  
HETATM   12  C   UNL     1     -11.362  13.209  69.102  1.00  0.00    -0.335 A  
HETATM   13  C   UNL     1     -11.781  11.940  69.573  1.00  0.00    -0.410 A  
HETATM   14  C   UNL     1     -10.990  10.779  69.437  1.00  0.00    -0.305 A  
HETATM   15  C   UNL     1      -9.791  10.953  68.720  1.00  0.00    -0.203 A  
HETATM   16  C   UNL     1      -9.368  12.211  68.255  1.00  0.00    -0.198 A  
BRANCH  14  17
HETATM   17  C   UNL     1     -11.349   9.477  70.100  1.00  0.00    -0.199 A  
HETATM   18  N   UNL     1     -12.222   9.541  71.133  1.00  0.00    -0.323 NA 
HETATM   19  C   UNL     1     -12.424   8.431  71.857  1.00  0.00    -0.347 A  
HETATM   20  N   UNL     1     -11.782   7.267  71.701  1.00  0.00    -0.271 NA 
HETATM   21  N   UNL     1     -13.307   8.514  72.914  1.00  0.00    -0.703 NA 
HETATM   22  H1  UNL     1     -13.460   7.670  73.465  1.00  0.00     0.000 HD 
HETATM   23  C   UNL     1     -10.940   7.217  70.665  1.00  0.00    -0.256 A  
HETATM   24  H2  UNL     1     -13.788   9.386  73.136  1.00  0.00     0.000 HD 
HETATM   25  C   UNL     1     -10.724   8.276  69.804  1.00  0.00    -0.221 A  
BRANCH  23  26
HETATM   26  O   UNL     1     -10.113   6.121  70.496  1.00  0.00    -0.180 OA 
BRANCH  26  27
HETATM   27  C   UNL     1      -8.738   6.242  70.939  1.00  0.00    -0.136 C  
HETATM   28  C   UNL     1      -8.039   4.930  71.375  1.00  0.00    -0.110 C  
HETATM   29  F   UNL     1      -8.870   3.872  71.504  1.00  0.00    -0.104 F  
HETATM   30  F   UNL     1      -7.457   5.120  72.596  1.00  0.00    -0.085 F  
HETATM   31  F   UNL     1      -7.030   4.555  70.551  1.00  0.00    -0.034 F  
BRANCH  27  32
HETATM   32  C   UNL     1      -7.895   7.057  69.909  1.00  0.00    -0.114 A  
HETATM   33  C   UNL     1      -6.996   8.008  70.448  1.00  0.00    -0.041 A  
HETATM   34  C   UNL     1      -6.295   8.902  69.635  1.00  0.00    -0.042 A  
HETATM   35  C   UNL     1      -6.488   8.881  68.262  1.00  0.00    -0.059 A  
HETATM   36  C   UNL     1      -7.289   7.898  67.681  1.00  0.00    -0.096 A  
HETATM   37 CL   UNL     1      -5.731  10.066  67.269  1.00  0.00    -0.046 Cl 
HETATM   38  C   UNL     1      -7.947   6.946  68.487  1.00  0.00    -0.120 A  
BRANCH  38  39
HETATM   39  N   UNL     1      -8.621   5.873  67.835  1.00  0.00    -0.106 NA 
HETATM   40  C   UNL     1      -9.823   5.871  67.149  1.00  0.00    -0.143 A  
HETATM   41  C   UNL     1     -10.130   4.552  66.900  1.00  0.00    -0.200 A  
HETATM   42  C   UNL     1      -9.026   3.840  67.389  1.00  0.00    -0.139 A  
HETATM   43  N   UNL     1      -8.061   4.655  67.785  1.00  0.00    -0.096 NA 
HETATM   44  C   UNL     1      -8.820   2.378  67.537  1.00  0.00    -0.162 C  
ENDBRANCH  38  39
ENDBRANCH  27  32
ENDBRANCH  26  27
ENDBRANCH  23  26
ENDBRANCH  14  17
ENDBRANCH  10  11
ENDBRANCH   6  10
ENDBRANCH   4   6
ENDBRANCH   3   4
ENDBRANCH   2   3
TORSDOF 10
ENDMDL
MODEL      116
REMARK 921   NORMALIZED FREE ENERGY PREDICTED BY IDOCK:   -5.29 KCAL/MOL
REMARK 922        TOTAL FREE ENERGY PREDICTED BY IDOCK:  -10.73 KCAL/MOL
REMARK 923 INTER-LIGAND FREE ENERGY PREDICTED BY IDOCK:   -9.54 KCAL/MOL
REMARK 924 INTRA-LIGAND FREE ENERGY PREDICTED BY IDOCK:   -1.19 KCAL/MOL
REMARK 927      BINDING AFFINITY PREDICTED BY RF-SCORE:    0.00 PKD
ROOT
HETATM    1  C   UNL     1     -11.699  12.022  65.708  1.00  0.00    -0.313 C  
HETATM    2  C   UNL     1     -12.098  13.254  64.916  1.00  0.00    -0.397 C  
ENDROOT
BRANCH   2   3
HETATM    3  O   UNL     1     -12.005  14.384  65.791  1.00  0.00    -0.372 OA 
BRANCH   3   4
HETATM    4  C   UNL     1     -10.746  14.903  65.922  1.00  0.00    -0.323 C  
HETATM    5  O   UNL     1      -9.860  14.823  65.080  1.00  0.00    -0.306 OA 
BRANCH   4   6
HETATM    6  C   UNL     1     -10.647  15.623  67.273  1.00  0.00    -0.305 C  
HETATM    7  N   UNL     1     -12.013  15.836  67.807  1.00  0.00    -0.091 NA 
HETATM    8  H2  UNL     1     -12.546  14.968  67.867  1.00  0.00     0.000 HD 
HETATM    9  H1  UNL     1     -11.947  16.315  68.705  1.00  0.00     0.000 HD 
BRANCH   6  10
HETATM   10  C   UNL     1      -9.764  14.825  68.256  1.00  0.00    -0.218 C  
BRANCH  10  11
HETATM   11  C   UNL     1     -10.342  13.526  68.804  1.00  0.00    -0.169 A  
HETATM   12  C   UNL     1     -11.526  13.460  69.545  1.00  0.00    -0.308 A  
HETATM   13  C   UNL     1     -12.000  12.224  70.050  1.00  0.00    -0.379 A  
HETATM   14  C   UNL     1     -11.314  11.007  69.847  1.00  0.00    -0.364 A  
HETATM   15  C   UNL     1     -10.171  11.093  69.031  1.00  0.00    -0.194 A  
HETATM   16  C   UNL     1      -9.693  12.318  68.531  1.00  0.00    -0.142 A  
BRANCH  14  17
HETATM   17  C   UNL     1     -11.715   9.732  70.539  1.00  0.00    -0.268 A  
HETATM   18  N   UNL     1     -12.692   9.826  71.471  1.00  0.00    -0.374 NA 
HETATM   19  C   UNL     1     -12.946   8.750  72.229  1.00  0.00    -0.408 A  
HETATM   20  N   UNL     1     -12.270   7.596  72.202  1.00  0.00    -0.286 NA 
HETATM   21  N   UNL     1     -13.936   8.866  73.183  1.00  0.00    -1.215 NA 
HETATM   22  H1  UNL     1     -14.129   8.047  73.760  1.00  0.00     0.000 HD 
HETATM   23  C   UNL     1     -11.323   7.515  71.263  1.00  0.00    -0.261 A  
HETATM   24  H2  UNL     1     -14.455   9.736  73.307  1.00  0.00     0.000 HD 
HETATM   25  C   UNL     1     -11.040   8.533  70.373  1.00  0.00    -0.246 A  
BRANCH  23  26
HETATM   26  O   UNL     1     -10.462   6.433  71.238  1.00  0.00    -0.208 OA 
BRANCH  26  27
HETATM   27  C   UNL     1      -9.202   6.592  70.541  1.00  0.00    -0.156 C  
HETATM   28  C   UNL     1      -7.918   6.444  71.397  1.00  0.00    -0.105 C  
HETATM   29  F   UNL     1      -8.139   6.411  72.730  1.00  0.00    -0.106 F  
HETATM   30  F   UNL     1      -7.101   7.514  71.164  1.00  0.00    -0.055 F  
HETATM   31  F   UNL     1      -7.180   5.353  71.081  1.00  0.00    -0.066 F  
BRANCH  27  32
HETATM   32  C   UNL     1      -9.167   5.713  69.253  1.00  0.00    -0.139 A  
HETATM   33  C   UNL     1      -8.961   6.398  68.031  1.00  0.00    -0.115 A  
HETATM   34  C   UNL     1      -9.057   5.749  66.797  1.00  0.00    -0.126 A  
HETATM   35  C   UNL     1      -9.380   4.401  66.751  1.00  0.00    -0.162 A  
HETATM   36  C   UNL     1      -9.494   3.666  67.931  1.00  0.00    -0.224 A  
HETATM   37 CL   UNL     1      -9.631   3.629  65.234  1.00  0.00    -0.167 Cl 
HETATM   38  C   UNL     1      -9.330   4.297  69.182  1.00  0.00    -0.161 A  
BRANCH  38  39
HETATM   39  N   UNL     1      -9.301   3.472  70.345  1.00  0.00    -0.154 NA 
HETATM   40  C   UNL     1      -8.501   2.381  70.634  1.00  0.00    -0.050 A  
HETATM   41  C   UNL     1      -9.013   1.814  71.781  1.00  0.00    -0.119 A  
HETATM   42  C   UNL     1     -10.054   2.672  72.157  1.00  0.00    -0.143 A  
HETATM   43  N   UNL     1     -10.099   3.748  71.387  1.00  0.00    -0.099 NA 
HETATM   44  C   UNL     1     -11.073   2.528  73.228  1.00  0.00    -0.250 C  
ENDBRANCH  38  39
ENDBRANCH  27  32
ENDBRANCH  26  27
ENDBRANCH  23  26
ENDBRANCH  14  17
ENDBRANCH  10  11
ENDBRANCH   6  10
ENDBRANCH   4   6
ENDBRANCH   3   4
ENDBRANCH   2   3
TORSDOF 10
ENDMDL
MODEL      117
REMARK 921   NORMALIZED FREE ENERGY PREDICTED BY IDOCK:   -5.29 KCAL/MOL
REMARK 922        TOTAL FREE ENERGY PREDICTED BY IDOCK:  -10.73 KCAL/MOL
REMARK 923 INTER-LIGAND FREE ENERGY PREDICTED BY IDOCK:   -8.18 KCAL/MOL
REMARK 924 INTRA-LIGAND FREE ENERGY PREDICTED BY IDOCK:   -2.55 KCAL/MOL
REMARK 927      BINDING AFFINITY PREDICTED BY RF-SCORE:    0.00 PKD
ROOT
HETATM    1  C   UNL     1     -11.150  15.586  64.633  1.00  0.00    -0.373 C  
HETATM    2  C   UNL     1     -12.451  14.832  64.430  1.00  0.00    -0.252 C  
ENDROOT
BRANCH   2   3
HETATM    3  O   UNL     1     -12.401  13.650  65.238  1.00  0.00    -0.410 OA 
BRANCH   3   4
HETATM    4  C   UNL     1     -12.269  12.483  64.535  1.00  0.00    -0.453 C  
HETATM    5  O   UNL     1     -13.046  12.086  63.677  1.00  0.00    -0.756 OA 
BRANCH   4   6
HETATM    6  C   UNL     1     -10.977  11.784  64.979  1.00  0.00    -0.300 C  
HETATM    7  N   UNL     1      -9.929  12.016  63.958  1.00  0.00    -0.467 NA 
HETATM    8  H2  UNL     1      -9.787  13.007  63.764  1.00  0.00     0.000 HD 
HETATM    9  H1  UNL     1      -9.070  11.551  64.253  1.00  0.00     0.000 HD 
BRANCH   6  10
HETATM   10  C   UNL     1     -10.539  12.279  66.375  1.00  0.00    -0.272 C  
BRANCH  10  11
HETATM   11  C   UNL     1     -10.445  11.233  67.479  1.00  0.00    -0.234 A  
HETATM   12  C   UNL     1      -9.467  10.234  67.514  1.00  0.00    -0.171 A  
HETATM   13  C   UNL     1      -9.446   9.273  68.555  1.00  0.00    -0.150 A  
HETATM   14  C   UNL     1     -10.398   9.262  69.598  1.00  0.00    -0.227 A  
HETATM   15  C   UNL     1     -11.318  10.326  69.580  1.00  0.00    -0.299 A  
HETATM   16  C   UNL     1     -11.347  11.279  68.546  1.00  0.00    -0.341 A  
BRANCH  14  17
HETATM   17  C   UNL     1     -10.488   8.136  70.593  1.00  0.00    -0.210 A  
HETATM   18  N   UNL     1     -10.131   8.420  71.868  1.00  0.00    -0.239 NA 
HETATM   19  C   UNL     1     -10.028   7.403  72.735  1.00  0.00    -0.215 A  
HETATM   20  N   UNL     1     -10.176   6.106  72.441  1.00  0.00    -0.186 NA 
HETATM   21  N   UNL     1      -9.651   7.707  74.027  1.00  0.00    -0.387 NA 
HETATM   22  H1  UNL     1      -9.572   6.933  74.686  1.00  0.00     0.000 HD 
HETATM   23  C   UNL     1     -10.547   5.847  71.185  1.00  0.00    -0.246 A  
HETATM   24  H2  UNL     1      -9.458   8.668  74.312  1.00  0.00     0.000 HD 
HETATM   25  C   UNL     1     -10.766   6.827  70.235  1.00  0.00    -0.284 A  
BRANCH  23  26
HETATM   26  O   UNL     1     -10.584   4.542  70.728  1.00  0.00     0.026 OA 
BRANCH  26  27
HETATM   27  C   UNL     1      -9.320   3.894  70.441  1.00  0.00    -0.161 C  
HETATM   28  C   UNL     1      -9.248   2.372  70.719  1.00  0.00    -0.129 C  
HETATM   29  F   UNL     1     -10.302   1.882  71.410  1.00  0.00    -0.192 F  
HETATM   30  F   UNL     1      -8.136   2.108  71.467  1.00  0.00    -0.045 F  
HETATM   31  F   UNL     1      -9.114   1.621  69.599  1.00  0.00    -0.109 F  
BRANCH  27  32
HETATM   32  C   UNL     1      -8.821   4.265  69.009  1.00  0.00    -0.136 A  
HETATM   33  C   UNL     1      -9.648   3.863  67.933  1.00  0.00    -0.193 A  
HETATM   34  C   UNL     1      -9.245   4.001  66.602  1.00  0.00    -0.173 A  
HETATM   35  C   UNL     1      -7.996   4.529  66.313  1.00  0.00    -0.103 A  
HETATM   36  C   UNL     1      -7.191   5.029  67.336  1.00  0.00    -0.070 A  
HETATM   37 CL   UNL     1      -7.441   4.579  64.685  1.00  0.00    -0.071 Cl 
HETATM   38  C   UNL     1      -7.618   4.958  68.679  1.00  0.00    -0.077 A  
BRANCH  38  39
HETATM   39  N   UNL     1      -6.830   5.622  69.664  1.00  0.00    -0.059 NA 
HETATM   40  C   UNL     1      -5.845   5.118  70.494  1.00  0.00    -0.017 A  
HETATM   41  C   UNL     1      -5.551   6.113  71.401  1.00  0.00    -0.026 A  
HETATM   42  C   UNL     1      -6.335   7.199  70.991  1.00  0.00    -0.036 A  
HETATM   43  N   UNL     1      -6.961   6.943  69.852  1.00  0.00    -0.060 NA 
HETATM   44  C   UNL     1      -6.566   8.513  71.643  1.00  0.00    -0.073 C  
ENDBRANCH  38  39
ENDBRANCH  27  32
ENDBRANCH  26  27
ENDBRANCH  23  26
ENDBRANCH  14  17
ENDBRANCH  10  11
ENDBRANCH   6  10
ENDBRANCH   4   6
ENDBRANCH   3   4
ENDBRANCH   2   3
TORSDOF 10
ENDMDL
MODEL      118
REMARK 921   NORMALIZED FREE ENERGY PREDICTED BY IDOCK:   -5.27 KCAL/MOL
REMARK 922        TOTAL FREE ENERGY PREDICTED BY IDOCK:  -10.70 KCAL/MOL
REMARK 923 INTER-LIGAND FREE ENERGY PREDICTED BY IDOCK:   -8.73 KCAL/MOL
REMARK 924 INTRA-LIGAND FREE ENERGY PREDICTED BY IDOCK:   -1.97 KCAL/MOL
REMARK 927      BINDING AFFINITY PREDICTED BY RF-SCORE:    0.00 PKD
ROOT
HETATM    1  C   UNL     1     -10.750  19.568  65.796  1.00  0.00    -0.490 C  
HETATM    2  C   UNL     1     -10.475  18.754  67.047  1.00  0.00    -0.416 C  
ENDROOT
BRANCH   2   3
HETATM    3  O   UNL     1      -9.711  17.605  66.661  1.00  0.00    -0.276 OA 
BRANCH   3   4
HETATM    4  C   UNL     1      -8.637  17.337  67.465  1.00  0.00    -0.209 C  
HETATM    5  O   UNL     1      -8.566  17.604  68.657  1.00  0.00    -0.290 OA 
BRANCH   4   6
HETATM    6  C   UNL     1      -7.565  16.621  66.633  1.00  0.00    -0.279 C  
HETATM    7  N   UNL     1      -6.955  17.593  65.695  1.00  0.00    -0.364 NA 
HETATM    8  H2  UNL     1      -6.590  18.418  66.171  1.00  0.00     0.000 HD 
HETATM    9  H1  UNL     1      -6.243  17.117  65.141  1.00  0.00     0.000 HD 
BRANCH   6  10
HETATM   10  C   UNL     1      -6.508  15.966  67.548  1.00  0.00    -0.205 C  
BRANCH  10  11
HETATM   11  C   UNL     1      -6.699  14.490  67.876  1.00  0.00    -0.176 A  
HETATM   12  C   UNL     1      -7.812  13.747  67.470  1.00  0.00    -0.189 A  
HETATM   13  C   UNL     1      -7.945  12.382  67.827  1.00  0.00    -0.156 A  
HETATM   14  C   UNL     1      -6.983  11.704  68.607  1.00  0.00    -0.088 A  
HETATM   15  C   UNL     1      -5.838  12.454  68.931  1.00  0.00    -0.066 A  
HETATM   16  C   UNL     1      -5.703  13.811  68.584  1.00  0.00    -0.084 A  
BRANCH  14  17
HETATM   17  C   UNL     1      -7.214  10.316  69.142  1.00  0.00    -0.083 A  
HETATM   18  N   UNL     1      -6.521   9.313  68.553  1.00  0.00    -0.053 NA 
HETATM   19  C   UNL     1      -6.836   8.053  68.882  1.00  0.00    -0.061 A  
HETATM   20  N   UNL     1      -7.832   7.680  69.695  1.00  0.00    -0.106 NA 
HETATM   21  N   UNL     1      -6.130   7.041  68.264  1.00  0.00    -0.032 NA 
HETATM   22  H1  UNL     1      -6.369   6.082  68.514  1.00  0.00     0.000 HD 
HETATM   23  C   UNL     1      -8.490   8.683  70.281  1.00  0.00    -0.132 A  
HETATM   24  H2  UNL     1      -5.397   7.244  67.584  1.00  0.00     0.000 HD 
HETATM   25  C   UNL     1      -8.190  10.016  70.079  1.00  0.00    -0.139 A  
BRANCH  23  26
HETATM   26  O   UNL     1      -9.631   8.425  71.020  1.00  0.00    -0.154 OA 
BRANCH  26  27
HETATM   27  C   UNL     1     -10.896   8.386  70.314  1.00  0.00    -0.239 C  
HETATM   28  C   UNL     1     -12.145   8.027  71.158  1.00  0.00    -0.265 C  
HETATM   29  F   UNL     1     -11.865   7.573  72.400  1.00  0.00    -0.297 F  
HETATM   30  F   UNL     1     -12.839   7.035  70.527  1.00  0.00    -0.306 F  
HETATM   31  F   UNL     1     -13.022   9.052  71.290  1.00  0.00    -0.328 F  
BRANCH  27  32
HETATM   32  C   UNL     1     -11.096   9.682  69.468  1.00  0.00    -0.198 A  
HETATM   33  C   UNL     1     -11.461  10.847  70.184  1.00  0.00    -0.405 A  
HETATM   34  C   UNL     1     -11.814  12.032  69.532  1.00  0.00    -0.390 A  
HETATM   35  C   UNL     1     -11.830  12.077  68.146  1.00  0.00    -0.286 A  
HETATM   36  C   UNL     1     -11.384  10.983  67.404  1.00  0.00    -0.306 A  
HETATM   37 CL   UNL     1     -12.392  13.489  67.338  1.00  0.00    -0.248 Cl 
HETATM   38  C   UNL     1     -10.959   9.806  68.053  1.00  0.00    -0.180 A  
BRANCH  38  39
HETATM   39  N   UNL     1     -10.368   8.782  67.257  1.00  0.00    -0.270 NA 
HETATM   40  C   UNL     1     -10.578   7.415  67.276  1.00  0.00    -0.323 A  
HETATM   41  C   UNL     1      -9.612   6.859  66.466  1.00  0.00    -0.197 A  
HETATM   42  C   UNL     1      -8.927   7.961  65.937  1.00  0.00    -0.123 A  
HETATM   43  N   UNL     1      -9.502   9.102  66.283  1.00  0.00    -0.216 NA 
HETATM   44  C   UNL     1      -7.696   8.013  65.109  1.00  0.00    -0.105 C  
ENDBRANCH  38  39
ENDBRANCH  27  32
ENDBRANCH  26  27
ENDBRANCH  23  26
ENDBRANCH  14  17
ENDBRANCH  10  11
ENDBRANCH   6  10
ENDBRANCH   4   6
ENDBRANCH   3   4
ENDBRANCH   2   3
TORSDOF 10
ENDMDL
MODEL      119
REMARK 921   NORMALIZED FREE ENERGY PREDICTED BY IDOCK:   -5.26 KCAL/MOL
REMARK 922        TOTAL FREE ENERGY PREDICTED BY IDOCK:  -10.68 KCAL/MOL
REMARK 923 INTER-LIGAND FREE ENERGY PREDICTED BY IDOCK:   -8.81 KCAL/MOL
REMARK 924 INTRA-LIGAND FREE ENERGY PREDICTED BY IDOCK:   -1.87 KCAL/MOL
REMARK 927      BINDING AFFINITY PREDICTED BY RF-SCORE:    0.00 PKD
ROOT
HETATM    1  C   UNL     1     -10.577  19.510  66.847  1.00  0.00    -0.602 C  
HETATM    2  C   UNL     1     -10.590  17.993  66.908  1.00  0.00    -0.280 C  
ENDROOT
BRANCH   2   3
HETATM    3  O   UNL     1     -10.675  17.613  68.286  1.00  0.00    -0.360 OA 
BRANCH   3   4
HETATM    4  C   UNL     1     -11.059  16.316  68.498  1.00  0.00    -0.368 C  
HETATM    5  O   UNL     1     -12.161  15.964  68.897  1.00  0.00    -0.315 OA 
BRANCH   4   6
HETATM    6  C   UNL     1      -9.896  15.390  68.119  1.00  0.00    -0.213 C  
HETATM    7  N   UNL     1      -9.168  15.002  69.350  1.00  0.00    -0.396 NA 
HETATM    8  H2  UNL     1      -9.783  14.587  70.051  1.00  0.00     0.000 HD 
HETATM    9  H1  UNL     1      -8.395  14.387  69.098  1.00  0.00     0.000 HD 
BRANCH   6  10
HETATM   10  C   UNL     1     -10.408  14.158  67.342  1.00  0.00    -0.256 C  
BRANCH  10  11
HETATM   11  C   UNL     1      -9.845  12.802  67.749  1.00  0.00    -0.220 A  
HETATM   12  C   UNL     1     -10.511  11.914  68.599  1.00  0.00    -0.231 A  
HETATM   13  C   UNL     1      -9.925  10.676  68.961  1.00  0.00    -0.226 A  
HETATM   14  C   UNL     1      -8.651  10.275  68.502  1.00  0.00    -0.126 A  
HETATM   15  C   UNL     1      -8.042  11.153  67.587  1.00  0.00    -0.117 A  
HETATM   16  C   UNL     1      -8.617  12.385  67.227  1.00  0.00    -0.185 A  
BRANCH  14  17
HETATM   17  C   UNL     1      -7.951   9.054  69.034  1.00  0.00    -0.102 A  
HETATM   18  N   UNL     1      -7.434   8.201  68.119  1.00  0.00    -0.095 NA 
HETATM   19  C   UNL     1      -6.966   7.022  68.551  1.00  0.00    -0.075 A  
HETATM   20  N   UNL     1      -7.025   6.568  69.808  1.00  0.00    -0.064 NA 
HETATM   21  N   UNL     1      -6.453   6.158  67.605  1.00  0.00    -0.044 NA 
HETATM   22  H1  UNL     1      -6.097   5.260  67.933  1.00  0.00     0.000 HD 
HETATM   23  C   UNL     1      -7.520   7.431  70.700  1.00  0.00    -0.078 A  
HETATM   24  H2  UNL     1      -6.431   6.407  66.615  1.00  0.00     0.000 HD 
HETATM   25  C   UNL     1      -7.950   8.703  70.375  1.00  0.00    -0.101 A  
BRANCH  23  26
HETATM   26  O   UNL     1      -7.769   7.021  71.997  1.00  0.00    -0.091 OA 
BRANCH  26  27
HETATM   27  C   UNL     1      -8.887   6.125  72.216  1.00  0.00    -0.137 C  
HETATM   28  C   UNL     1      -8.928   5.398  73.584  1.00  0.00    -0.124 C  
HETATM   29  F   UNL     1      -7.795   5.515  74.311  1.00  0.00    -0.097 F  
HETATM   30  F   UNL     1      -9.119   4.062  73.372  1.00  0.00    -0.101 F  
HETATM   31  F   UNL     1      -9.959   5.786  74.374  1.00  0.00    -0.167 F  
BRANCH  27  32
HETATM   32  C   UNL     1     -10.236   6.830  71.873  1.00  0.00    -0.206 A  
HETATM   33  C   UNL     1     -10.645   7.863  72.751  1.00  0.00    -0.418 A  
HETATM   34  C   UNL     1     -11.899   8.470  72.640  1.00  0.00    -0.311 A  
HETATM   35  C   UNL     1     -12.785   8.048  71.660  1.00  0.00    -0.326 A  
HETATM   36  C   UNL     1     -12.386   7.104  70.714  1.00  0.00    -0.273 A  
HETATM   37 CL   UNL     1     -14.378   8.697  71.604  1.00  0.00    -0.476 Cl 
HETATM   38  C   UNL     1     -11.097   6.534  70.774  1.00  0.00    -0.300 A  
BRANCH  38  39
HETATM   39  N   UNL     1     -10.688   5.697  69.695  1.00  0.00    -0.335 NA 
HETATM   40  C   UNL     1     -10.028   4.481  69.721  1.00  0.00    -0.198 A  
HETATM   41  C   UNL     1      -9.682   4.196  68.419  1.00  0.00    -0.150 A  
HETATM   42  C   UNL     1     -10.244   5.241  67.673  1.00  0.00    -0.170 A  
HETATM   43  N   UNL     1     -10.987   6.032  68.431  1.00  0.00    -0.292 NA 
HETATM   44  C   UNL     1     -10.102   5.572  66.233  1.00  0.00    -0.185 C  
ENDBRANCH  38  39
ENDBRANCH  27  32
ENDBRANCH  26  27
ENDBRANCH  23  26
ENDBRANCH  14  17
ENDBRANCH  10  11
ENDBRANCH   6  10
ENDBRANCH   4   6
ENDBRANCH   3   4
ENDBRANCH   2   3
TORSDOF 10
ENDMDL
MODEL      120
REMARK 921   NORMALIZED FREE ENERGY PREDICTED BY IDOCK:   -5.21 KCAL/MOL
REMARK 922        TOTAL FREE ENERGY PREDICTED BY IDOCK:  -10.60 KCAL/MOL
REMARK 923 INTER-LIGAND FREE ENERGY PREDICTED BY IDOCK:   -8.71 KCAL/MOL
REMARK 924 INTRA-LIGAND FREE ENERGY PREDICTED BY IDOCK:   -1.89 KCAL/MOL
REMARK 927      BINDING AFFINITY PREDICTED BY RF-SCORE:    0.00 PKD
ROOT
HETATM    1  C   UNL     1     -12.068  17.032  74.519  1.00  0.00    -0.090 C  
HETATM    2  C   UNL     1     -12.880  15.966  73.806  1.00  0.00    -0.584 C  
ENDROOT
BRANCH   2   3
HETATM    3  O   UNL     1     -11.961  15.077  73.160  1.00  0.00    -0.348 OA 
BRANCH   3   4
HETATM    4  C   UNL     1     -11.891  15.218  71.800  1.00  0.00    -0.406 C  
HETATM    5  O   UNL     1     -11.519  16.226  71.215  1.00  0.00    -0.423 OA 
BRANCH   4   6
HETATM    6  C   UNL     1     -12.322  13.899  71.146  1.00  0.00    -0.359 C  
HETATM    7  N   UNL     1     -13.590  13.445  71.765  1.00  0.00    -0.366 NA 
HETATM    8  H2  UNL     1     -14.320  14.157  71.722  1.00  0.00     0.000 HD 
HETATM    9  H1  UNL     1     -13.876  12.569  71.329  1.00  0.00     0.000 HD 
BRANCH   6  10
HETATM   10  C   UNL     1     -12.457  14.066  69.616  1.00  0.00    -0.204 C  
BRANCH  10  11
HETATM   11  C   UNL     1     -11.599  13.157  68.745  1.00  0.00    -0.348 A  
HETATM   12  C   UNL     1     -10.900  13.603  67.619  1.00  0.00    -0.268 A  
HETATM   13  C   UNL     1     -10.138  12.704  66.833  1.00  0.00    -0.234 A  
HETATM   14  C   UNL     1     -10.045  11.327  67.128  1.00  0.00    -0.223 A  
HETATM   15  C   UNL     1     -10.693  10.924  68.311  1.00  0.00    -0.244 A  
HETATM   16  C   UNL     1     -11.455  11.811  69.092  1.00  0.00    -0.358 A  
BRANCH  14  17
HETATM   17  C   UNL     1      -9.394  10.345  66.192  1.00  0.00    -0.172 A  
HETATM   18  N   UNL     1      -9.386  10.669  64.878  1.00  0.00    -0.211 NA 
HETATM   19  C   UNL     1      -8.978   9.740  64.002  1.00  0.00    -0.240 A  
HETATM   20  N   UNL     1      -8.640   8.480  64.298  1.00  0.00    -0.051 NA 
HETATM   21  N   UNL     1      -8.988  10.081  62.665  1.00  0.00    -0.243 NA 
HETATM   22  H1  UNL     1      -8.678   9.374  61.999  1.00  0.00     0.000 HD 
HETATM   23  C   UNL     1      -8.634   8.185  65.600  1.00  0.00    -0.158 A  
HETATM   24  H2  UNL     1      -9.294  11.004  62.355  1.00  0.00     0.000 HD 
HETATM   25  C   UNL     1      -8.953   9.093  66.592  1.00  0.00    -0.164 A  
BRANCH  23  26
HETATM   26  O   UNL     1      -8.448   6.878  66.015  1.00  0.00    -0.128 OA 
BRANCH  26  27
HETATM   27  C   UNL     1      -9.616   6.135  66.442  1.00  0.00    -0.127 C  
HETATM   28  C   UNL     1      -9.832   4.750  65.780  1.00  0.00    -0.199 C  
HETATM   29  F   UNL     1      -9.028   4.509  64.721  1.00  0.00    -0.131 F  
HETATM   30  F   UNL     1     -11.116   4.671  65.321  1.00  0.00    -0.332 F  
HETATM   31  F   UNL     1      -9.693   3.712  66.639  1.00  0.00    -0.210 F  
BRANCH  27  32
HETATM   32  C   UNL     1      -9.693   6.072  67.999  1.00  0.00    -0.126 A  
HETATM   33  C   UNL     1     -10.987   6.148  68.567  1.00  0.00    -0.404 A  
HETATM   34  C   UNL     1     -11.181   6.252  69.947  1.00  0.00    -0.498 A  
HETATM   35  C   UNL     1     -10.086   6.302  70.795  1.00  0.00    -0.189 A  
HETATM   36  C   UNL     1      -8.797   6.132  70.287  1.00  0.00    -0.149 A  
HETATM   37 CL   UNL     1     -10.314   6.565  72.480  1.00  0.00    -0.205 Cl 
HETATM   38  C   UNL     1      -8.594   5.956  68.903  1.00  0.00    -0.110 A  
BRANCH  38  39
HETATM   39  N   UNL     1      -7.279   5.631  68.459  1.00  0.00    -0.073 NA 
HETATM   40  C   UNL     1      -6.194   6.458  68.229  1.00  0.00    -0.036 A  
HETATM   41  C   UNL     1      -5.236   5.685  67.611  1.00  0.00    -0.004 A  
HETATM   42  C   UNL     1      -5.791   4.398  67.588  1.00  0.00    -0.023 A  
HETATM   43  N   UNL     1      -6.935   4.351  68.253  1.00  0.00    -0.055 NA 
HETATM   44  C   UNL     1      -5.305   3.159  66.931  1.00  0.00    -0.012 C  
ENDBRANCH  38  39
ENDBRANCH  27  32
ENDBRANCH  26  27
ENDBRANCH  23  26
ENDBRANCH  14  17
ENDBRANCH  10  11
ENDBRANCH   6  10
ENDBRANCH   4   6
ENDBRANCH   3   4
ENDBRANCH   2   3
TORSDOF 10
ENDMDL
MODEL      121
REMARK 921   NORMALIZED FREE ENERGY PREDICTED BY IDOCK:   -5.21 KCAL/MOL
REMARK 922        TOTAL FREE ENERGY PREDICTED BY IDOCK:  -10.59 KCAL/MOL
REMARK 923 INTER-LIGAND FREE ENERGY PREDICTED BY IDOCK:   -9.86 KCAL/MOL
REMARK 924 INTRA-LIGAND FREE ENERGY PREDICTED BY IDOCK:   -0.73 KCAL/MOL
REMARK 927      BINDING AFFINITY PREDICTED BY RF-SCORE:    0.00 PKD
ROOT
HETATM    1  C   UNL     1     -10.085  16.129  66.636  1.00  0.00    -0.283 C  
HETATM    2  C   UNL     1     -10.742  16.142  65.267  1.00  0.00    -0.368 C  
ENDROOT
BRANCH   2   3
HETATM    3  O   UNL     1     -10.583  14.840  64.694  1.00  0.00    -0.374 OA 
BRANCH   3   4
HETATM    4  C   UNL     1     -11.708  14.337  64.098  1.00  0.00    -0.256 C  
HETATM    5  O   UNL     1     -12.744  14.960  63.912  1.00  0.00    -0.789 OA 
BRANCH   4   6
HETATM    6  C   UNL     1     -11.436  12.887  63.677  1.00  0.00    -0.446 C  
HETATM    7  N   UNL     1      -9.990  12.729  63.397  1.00  0.00    -0.602 NA 
HETATM    8  H2  UNL     1      -9.407  13.021  64.181  1.00  0.00     0.000 HD 
HETATM    9  H1  UNL     1      -9.810  11.765  63.117  1.00  0.00     0.000 HD 
BRANCH   6  10
HETATM   10  C   UNL     1     -11.922  11.902  64.763  1.00  0.00    -0.222 C  
BRANCH  10  11
HETATM   11  C   UNL     1     -10.913  11.503  65.834  1.00  0.00    -0.301 A  
HETATM   12  C   UNL     1     -10.095  10.374  65.741  1.00  0.00    -0.329 A  
HETATM   13  C   UNL     1      -9.193  10.041  66.782  1.00  0.00    -0.173 A  
HETATM   14  C   UNL     1      -9.074  10.811  67.959  1.00  0.00    -0.150 A  
HETATM   15  C   UNL     1      -9.851  11.984  67.988  1.00  0.00    -0.199 A  
HETATM   16  C   UNL     1     -10.751  12.316  66.959  1.00  0.00    -0.263 A  
BRANCH  14  17
HETATM   17  C   UNL     1      -8.259  10.357  69.140  1.00  0.00    -0.157 A  
HETATM   18  N   UNL     1      -7.251  11.170  69.533  1.00  0.00    -0.099 NA 
HETATM   19  C   UNL     1      -6.398  10.712  70.460  1.00  0.00    -0.074 A  
HETATM   20  N   UNL     1      -6.403   9.484  70.992  1.00  0.00    -0.116 NA 
HETATM   21  N   UNL     1      -5.368  11.548  70.842  1.00  0.00    -0.177 NA 
HETATM   22  H1  UNL     1      -4.719  11.200  71.547  1.00  0.00     0.000 HD 
HETATM   23  C   UNL     1      -7.416   8.704  70.607  1.00  0.00    -0.074 A  
HETATM   24  H2  UNL     1      -5.259  12.477  70.435  1.00  0.00     0.000 HD 
HETATM   25  C   UNL     1      -8.399   9.107  69.723  1.00  0.00    -0.136 A  
BRANCH  23  26
HETATM   26  O   UNL     1      -7.441   7.370  70.972  1.00  0.00    -0.072 OA 
BRANCH  26  27
HETATM   27  C   UNL     1      -8.293   6.992  72.081  1.00  0.00    -0.104 C  
HETATM   28  C   UNL     1      -7.890   7.537  73.475  1.00  0.00    -0.118 C  
HETATM   29  F   UNL     1      -6.666   8.107  73.516  1.00  0.00    -0.099 F  
HETATM   30  F   UNL     1      -7.869   6.503  74.368  1.00  0.00    -0.106 F  
HETATM   31  F   UNL     1      -8.772   8.432  73.983  1.00  0.00    -0.307 F  
BRANCH  27  32
HETATM   32  C   UNL     1      -9.793   7.262  71.744  1.00  0.00    -0.175 A  
HETATM   33  C   UNL     1     -10.422   8.301  72.472  1.00  0.00    -0.406 A  
HETATM   34  C   UNL     1     -11.795   8.543  72.372  1.00  0.00    -0.437 A  
HETATM   35  C   UNL     1     -12.578   7.742  71.555  1.00  0.00    -0.333 A  
HETATM   36  C   UNL     1     -11.985   6.773  70.746  1.00  0.00    -0.433 A  
HETATM   37 CL   UNL     1     -14.286   7.950  71.530  1.00  0.00    -0.545 Cl 
HETATM   38  C   UNL     1     -10.590   6.566  70.787  1.00  0.00    -0.231 A  
BRANCH  38  39
HETATM   39  N   UNL     1     -10.021   5.676  69.830  1.00  0.00    -0.183 NA 
HETATM   40  C   UNL     1      -9.746   4.324  69.934  1.00  0.00    -0.221 A  
HETATM   41  C   UNL     1      -9.008   3.988  68.820  1.00  0.00    -0.166 A  
HETATM   42  C   UNL     1      -8.963   5.167  68.064  1.00  0.00    -0.110 A  
HETATM   43  N   UNL     1      -9.718   6.115  68.599  1.00  0.00    -0.126 NA 
HETATM   44  C   UNL     1      -8.202   5.484  66.830  1.00  0.00    -0.105 C  
ENDBRANCH  38  39
ENDBRANCH  27  32
ENDBRANCH  26  27
ENDBRANCH  23  26
ENDBRANCH  14  17
ENDBRANCH  10  11
ENDBRANCH   6  10
ENDBRANCH   4   6
ENDBRANCH   3   4
ENDBRANCH   2   3
TORSDOF 10
ENDMDL
MODEL      122
REMARK 921   NORMALIZED FREE ENERGY PREDICTED BY IDOCK:   -5.20 KCAL/MOL
REMARK 922        TOTAL FREE ENERGY PREDICTED BY IDOCK:  -10.59 KCAL/MOL
REMARK 923 INTER-LIGAND FREE ENERGY PREDICTED BY IDOCK:   -9.73 KCAL/MOL
REMARK 924 INTRA-LIGAND FREE ENERGY PREDICTED BY IDOCK:   -0.86 KCAL/MOL
REMARK 927      BINDING AFFINITY PREDICTED BY RF-SCORE:    0.00 PKD
ROOT
HETATM    1  C   UNL     1     -12.395  15.893  74.564  1.00  0.00    -0.752 C  
HETATM    2  C   UNL     1     -12.859  15.738  73.127  1.00  0.00    -0.522 C  
ENDROOT
BRANCH   2   3
HETATM    3  O   UNL     1     -11.897  16.386  72.286  1.00  0.00    -0.534 OA 
BRANCH   3   4
HETATM    4  C   UNL     1     -11.560  15.684  71.160  1.00  0.00    -0.412 C  
HETATM    5  O   UNL     1     -10.441  15.264  70.900  1.00  0.00    -0.128 OA 
BRANCH   4   6
HETATM    6  C   UNL     1     -12.820  15.489  70.306  1.00  0.00    -0.195 C  
HETATM    7  N   UNL     1     -12.418  15.258  68.899  1.00  0.00    -0.532 NA 
HETATM    8  H2  UNL     1     -11.761  14.483  68.804  1.00  0.00     0.000 HD 
HETATM    9  H1  UNL     1     -13.256  15.128  68.332  1.00  0.00     0.000 HD 
BRANCH   6  10
HETATM   10  C   UNL     1     -13.679  14.329  70.856  1.00  0.00    -0.023 C  
BRANCH  10  11
HETATM   11  C   UNL     1     -13.018  12.959  70.937  1.00  0.00    -0.101 A  
HETATM   12  C   UNL     1     -12.111  12.481  69.985  1.00  0.00    -0.337 A  
HETATM   13  C   UNL     1     -11.548  11.187  70.102  1.00  0.00    -0.410 A  
HETATM   14  C   UNL     1     -11.867  10.312  71.164  1.00  0.00    -0.455 A  
HETATM   15  C   UNL     1     -12.718  10.850  72.147  1.00  0.00    -0.016 A  
HETATM   16  C   UNL     1     -13.284  12.133  72.033  1.00  0.00    -0.496 A  
BRANCH  14  17
HETATM   17  C   UNL     1     -11.417   8.876  71.187  1.00  0.00    -0.301 A  
HETATM   18  N   UNL     1     -11.532   8.221  72.365  1.00  0.00    -0.382 NA 
HETATM   19  C   UNL     1     -10.977   7.005  72.467  1.00  0.00    -0.264 A  
HETATM   20  N   UNL     1     -10.248   6.396  71.524  1.00  0.00    -0.192 NA 
HETATM   21  N   UNL     1     -11.090   6.355  73.678  1.00  0.00    -0.420 NA 
HETATM   22  H1  UNL     1     -10.668   5.430  73.756  1.00  0.00     0.000 HD 
HETATM   23  C   UNL     1     -10.163   7.048  70.362  1.00  0.00    -0.196 A  
HETATM   24  H2  UNL     1     -11.578   6.782  74.467  1.00  0.00     0.000 HD 
HETATM   25  C   UNL     1     -10.770   8.266  70.124  1.00  0.00    -0.239 A  
BRANCH  23  26
HETATM   26  O   UNL     1      -9.316   6.590  69.369  1.00  0.00    -0.143 OA 
BRANCH  26  27
HETATM   27  C   UNL     1      -8.190   7.427  69.007  1.00  0.00    -0.128 C  
HETATM   28  C   UNL     1      -6.848   6.698  68.744  1.00  0.00    -0.070 C  
HETATM   29  F   UNL     1      -6.840   5.397  69.107  1.00  0.00    -0.047 F  
HETATM   30  F   UNL     1      -5.860   7.309  69.463  1.00  0.00    -0.021 F  
HETATM   31  F   UNL     1      -6.442   6.761  67.452  1.00  0.00    -0.040 F  
BRANCH  27  32
HETATM   32  C   UNL     1      -8.576   8.406  67.855  1.00  0.00    -0.131 A  
HETATM   33  C   UNL     1      -8.140   9.745  67.998  1.00  0.00    -0.105 A  
HETATM   34  C   UNL     1      -8.544  10.749  67.114  1.00  0.00    -0.128 A  
HETATM   35  C   UNL     1      -9.411  10.445  66.075  1.00  0.00    -0.178 A  
HETATM   36  C   UNL     1      -9.787   9.122  65.840  1.00  0.00    -0.305 A  
HETATM   37 CL   UNL     1     -10.018  11.700  65.067  1.00  0.00    -0.284 Cl 
HETATM   38  C   UNL     1      -9.328   8.089  66.684  1.00  0.00    -0.197 A  
BRANCH  38  39
HETATM   39  N   UNL     1      -9.614   6.745  66.307  1.00  0.00    -0.090 NA 
HETATM   40  C   UNL     1     -10.705   5.953  66.616  1.00  0.00    -0.252 A  
HETATM   41  C   UNL     1     -10.397   4.679  66.191  1.00  0.00    -0.310 A  
HETATM   42  C   UNL     1      -9.151   4.814  65.565  1.00  0.00    -0.152 A  
HETATM   43  N   UNL     1      -8.780   6.082  65.492  1.00  0.00    -0.143 NA 
HETATM   44  C   UNL     1      -8.232   3.777  65.030  1.00  0.00    -0.097 C  
ENDBRANCH  38  39
ENDBRANCH  27  32
ENDBRANCH  26  27
ENDBRANCH  23  26
ENDBRANCH  14  17
ENDBRANCH  10  11
ENDBRANCH   6  10
ENDBRANCH   4   6
ENDBRANCH   3   4
ENDBRANCH   2   3
TORSDOF 10
ENDMDL
MODEL      123
REMARK 921   NORMALIZED FREE ENERGY PREDICTED BY IDOCK:   -5.20 KCAL/MOL
REMARK 922        TOTAL FREE ENERGY PREDICTED BY IDOCK:  -10.58 KCAL/MOL
REMARK 923 INTER-LIGAND FREE ENERGY PREDICTED BY IDOCK:   -8.83 KCAL/MOL
REMARK 924 INTRA-LIGAND FREE ENERGY PREDICTED BY IDOCK:   -1.76 KCAL/MOL
REMARK 927      BINDING AFFINITY PREDICTED BY RF-SCORE:    0.00 PKD
ROOT
HETATM    1  C   UNL     1     -11.747   6.207  72.086  1.00  0.00    -0.361 C  
HETATM    2  C   UNL     1     -10.999   5.160  72.891  1.00  0.00    -0.284 C  
ENDROOT
BRANCH   2   3
HETATM    3  O   UNL     1     -10.420   4.231  71.967  1.00  0.00    -0.137 OA 
BRANCH   3   4
HETATM    4  C   UNL     1      -9.131   3.872  72.251  1.00  0.00    -0.118 C  
HETATM    5  O   UNL     1      -8.263   4.631  72.662  1.00  0.00    -0.104 OA 
BRANCH   4   6
HETATM    6  C   UNL     1      -8.972   2.366  72.003  1.00  0.00    -0.079 C  
HETATM    7  N   UNL     1     -10.316   1.743  71.946  1.00  0.00    -0.114 NA 
HETATM    8  H2  UNL     1     -10.922   2.189  71.257  1.00  0.00     0.000 HD 
HETATM    9  H1  UNL     1     -10.210   0.742  71.781  1.00  0.00     0.000 HD 
BRANCH   6  10
HETATM   10  C   UNL     1      -8.164   2.106  70.713  1.00  0.00    -0.067 C  
BRANCH  10  11
HETATM   11  C   UNL     1      -8.225   3.179  69.632  1.00  0.00    -0.072 A  
HETATM   12  C   UNL     1      -7.167   4.047  69.346  1.00  0.00    -0.050 A  
HETATM   13  C   UNL     1      -7.293   5.041  68.344  1.00  0.00    -0.066 A  
HETATM   14  C   UNL     1      -8.476   5.218  67.594  1.00  0.00    -0.105 A  
HETATM   15  C   UNL     1      -9.492   4.280  67.849  1.00  0.00    -0.216 A  
HETATM   16  C   UNL     1      -9.374   3.294  68.845  1.00  0.00    -0.232 A  
BRANCH  14  17
HETATM   17  C   UNL     1      -8.674   6.388  66.668  1.00  0.00    -0.127 A  
HETATM   18  N   UNL     1      -8.078   6.314  65.455  1.00  0.00    -0.122 NA 
HETATM   19  C   UNL     1      -8.084   7.408  64.682  1.00  0.00    -0.092 A  
HETATM   20  N   UNL     1      -8.568   8.607  65.025  1.00  0.00    -0.180 NA 
HETATM   21  N   UNL     1      -7.461   7.320  63.454  1.00  0.00    -0.093 NA 
HETATM   22  H1  UNL     1      -7.465   8.153  62.865  1.00  0.00     0.000 HD 
HETATM   23  C   UNL     1      -9.170   8.656  66.216  1.00  0.00    -0.202 A  
HETATM   24  H2  UNL     1      -7.012   6.457  63.146  1.00  0.00     0.000 HD 
HETATM   25  C   UNL     1      -9.296   7.565  67.055  1.00  0.00    -0.186 A  
BRANCH  23  26
HETATM   26  O   UNL     1      -9.573   9.872  66.740  1.00  0.00    -0.168 OA 
BRANCH  26  27
HETATM   27  C   UNL     1      -9.016  10.272  68.016  1.00  0.00    -0.132 C  
HETATM   28  C   UNL     1      -8.060  11.491  67.998  1.00  0.00    -0.136 C  
HETATM   29  F   UNL     1      -7.688  11.888  66.761  1.00  0.00    -0.150 F  
HETATM   30  F   UNL     1      -6.914  11.169  68.666  1.00  0.00    -0.063 F  
HETATM   31  F   UNL     1      -8.556  12.578  68.639  1.00  0.00    -0.152 F  
BRANCH  27  32
HETATM   32  C   UNL     1     -10.139  10.406  69.092  1.00  0.00    -0.236 A  
HETATM   33  C   UNL     1      -9.980   9.629  70.264  1.00  0.00    -0.326 A  
HETATM   34  C   UNL     1     -10.983   9.545  71.234  1.00  0.00    -0.440 A  
HETATM   35  C   UNL     1     -12.178  10.222  71.048  1.00  0.00    -0.384 A  
HETATM   36  C   UNL     1     -12.339  11.077  69.957  1.00  0.00    -0.377 A  
HETATM   37 CL   UNL     1     -13.466  10.017  72.171  1.00  0.00    -0.491 Cl 
HETATM   38  C   UNL     1     -11.306  11.223  69.008  1.00  0.00    -0.278 A  
BRANCH  38  39
HETATM   39  N   UNL     1     -11.460  12.224  68.004  1.00  0.00    -0.298 NA 
HETATM   40  C   UNL     1     -11.357  13.600  68.105  1.00  0.00    -0.288 A  
HETATM   41  C   UNL     1     -11.804  14.114  66.908  1.00  0.00    -0.458 A  
HETATM   42  C   UNL     1     -12.070  12.984  66.122  1.00  0.00    -0.409 A  
HETATM   43  N   UNL     1     -11.696  11.871  66.732  1.00  0.00    -0.590 NA 
HETATM   44  C   UNL     1     -12.707  12.878  64.785  1.00  0.00    -0.442 C  
ENDBRANCH  38  39
ENDBRANCH  27  32
ENDBRANCH  26  27
ENDBRANCH  23  26
ENDBRANCH  14  17
ENDBRANCH  10  11
ENDBRANCH   6  10
ENDBRANCH   4   6
ENDBRANCH   3   4
ENDBRANCH   2   3
TORSDOF 10
ENDMDL
MODEL      124
REMARK 921   NORMALIZED FREE ENERGY PREDICTED BY IDOCK:   -5.18 KCAL/MOL
REMARK 922        TOTAL FREE ENERGY PREDICTED BY IDOCK:  -10.55 KCAL/MOL
REMARK 923 INTER-LIGAND FREE ENERGY PREDICTED BY IDOCK:  -10.75 KCAL/MOL
REMARK 924 INTRA-LIGAND FREE ENERGY PREDICTED BY IDOCK:    0.20 KCAL/MOL
REMARK 927      BINDING AFFINITY PREDICTED BY RF-SCORE:    0.00 PKD
ROOT
HETATM    1  C   UNL     1     -11.069   5.783  66.911  1.00  0.00    -0.086 C  
HETATM    2  C   UNL     1     -10.928   7.274  67.161  1.00  0.00    -0.215 C  
ENDROOT
BRANCH   2   3
HETATM    3  O   UNL     1     -10.724   7.463  68.566  1.00  0.00    -0.182 OA 
BRANCH   3   4
HETATM    4  C   UNL     1      -9.482   7.929  68.905  1.00  0.00    -0.150 C  
HETATM    5  O   UNL     1      -8.515   7.965  68.156  1.00  0.00    -0.123 OA 
BRANCH   4   6
HETATM    6  C   UNL     1      -9.521   8.423  70.357  1.00  0.00    -0.168 C  
HETATM    7  N   UNL     1      -8.168   8.885  70.746  1.00  0.00    -0.153 NA 
HETATM    8  H2  UNL     1      -7.798   9.589  70.105  1.00  0.00     0.000 HD 
HETATM    9  H1  UNL     1      -8.195   9.214  71.711  1.00  0.00     0.000 HD 
BRANCH   6  10
HETATM   10  C   UNL     1     -10.579   9.535  70.528  1.00  0.00    -0.358 C  
BRANCH  10  11
HETATM   11  C   UNL     1     -10.563  10.666  69.507  1.00  0.00    -0.265 A  
HETATM   12  C   UNL     1      -9.410  11.378  69.162  1.00  0.00     0.140 A  
HETATM   13  C   UNL     1      -9.462  12.437  68.223  1.00  0.00    -0.203 A  
HETATM   14  C   UNL     1     -10.662  12.837  67.595  1.00  0.00    -0.236 A  
HETATM   15  C   UNL     1     -11.788  12.051  67.901  1.00  0.00    -0.320 A  
HETATM   16  C   UNL     1     -11.742  11.002  68.836  1.00  0.00    -0.400 A  
BRANCH  14  17
HETATM   17  C   UNL     1     -10.752  14.076  66.745  1.00  0.00    -0.285 A  
HETATM   18  N   UNL     1     -11.647  14.056  65.730  1.00  0.00    -0.330 NA 
HETATM   19  C   UNL     1     -11.626  15.066  64.850  1.00  0.00    -0.374 A  
HETATM   20  N   UNL     1     -10.745  16.073  64.836  1.00  0.00    -0.631 NA 
HETATM   21  N   UNL     1     -12.535  15.024  63.814  1.00  0.00    -1.049 NA 
HETATM   22  H1  UNL     1     -12.519  15.793  63.144  1.00  0.00     0.000 HD 
HETATM   23  C   UNL     1      -9.883  16.088  65.856  1.00  0.00    -0.348 A  
HETATM   24  H2  UNL     1     -13.199  14.255  63.721  1.00  0.00     0.000 HD 
HETATM   25  C   UNL     1      -9.875  15.143  66.864  1.00  0.00    -0.243 A  
BRANCH  23  26
HETATM   26  O   UNL     1      -8.835  16.991  65.865  1.00  0.00    -0.518 OA 
BRANCH  26  27
HETATM   27  C   UNL     1      -8.714  17.868  67.012  1.00  0.00    -0.245 C  
HETATM   28  C   UNL     1     -10.035  18.267  67.716  1.00  0.00    -0.332 C  
HETATM   29  F   UNL     1     -11.152  17.931  67.034  1.00  0.00    -0.234 F  
HETATM   30  F   UNL     1     -10.066  19.624  67.870  1.00  0.00    -0.416 F  
HETATM   31  F   UNL     1     -10.156  17.762  68.968  1.00  0.00    -0.325 F  
BRANCH  27  32
HETATM   32  C   UNL     1      -7.643  17.328  68.010  1.00  0.00    -0.197 A  
HETATM   33  C   UNL     1      -7.872  16.033  68.535  1.00  0.00    -0.160 A  
HETATM   34  C   UNL     1      -7.071  15.496  69.546  1.00  0.00    -0.195 A  
HETATM   35  C   UNL     1      -6.032  16.247  70.074  1.00  0.00    -0.167 A  
HETATM   36  C   UNL     1      -5.710  17.486  69.520  1.00  0.00    -0.222 A  
HETATM   37 CL   UNL     1      -5.128  15.645  71.409  1.00  0.00    -0.155 Cl 
HETATM   38  C   UNL     1      -6.468  18.008  68.451  1.00  0.00    -0.203 A  
BRANCH  38  39
HETATM   39  N   UNL     1      -6.002  19.199  67.823  1.00  0.00    -0.200 NA 
HETATM   40  C   UNL     1      -5.909  20.485  68.326  1.00  0.00    -0.283 A  
HETATM   41  C   UNL     1      -5.601  21.301  67.259  1.00  0.00    -0.379 A  
HETATM   42  C   UNL     1      -5.443  20.419  66.182  1.00  0.00    -0.174 A  
HETATM   43  N   UNL     1      -5.515  19.156  66.574  1.00  0.00    -0.154 NA 
HETATM   44  C   UNL     1      -5.245  20.699  64.737  1.00  0.00    -0.215 C  
ENDBRANCH  38  39
ENDBRANCH  27  32
ENDBRANCH  26  27
ENDBRANCH  23  26
ENDBRANCH  14  17
ENDBRANCH  10  11
ENDBRANCH   6  10
ENDBRANCH   4   6
ENDBRANCH   3   4
ENDBRANCH   2   3
TORSDOF 10
ENDMDL
MODEL      125
REMARK 921   NORMALIZED FREE ENERGY PREDICTED BY IDOCK:   -5.15 KCAL/MOL
REMARK 922        TOTAL FREE ENERGY PREDICTED BY IDOCK:  -10.50 KCAL/MOL
REMARK 923 INTER-LIGAND FREE ENERGY PREDICTED BY IDOCK:   -8.83 KCAL/MOL
REMARK 924 INTRA-LIGAND FREE ENERGY PREDICTED BY IDOCK:   -1.67 KCAL/MOL
REMARK 927      BINDING AFFINITY PREDICTED BY RF-SCORE:    0.00 PKD
ROOT
HETATM    1  C   UNL     1      -8.787   2.275  67.115  1.00  0.00    -0.153 C  
HETATM    2  C   UNL     1      -8.551   1.819  68.543  1.00  0.00    -0.064 C  
ENDROOT
BRANCH   2   3
HETATM    3  O   UNL     1      -7.172   2.050  68.853  1.00  0.00    -0.043 OA 
BRANCH   3   4
HETATM    4  C   UNL     1      -6.890   3.315  69.291  1.00  0.00    -0.041 C  
HETATM    5  O   UNL     1      -6.411   4.208  68.605  1.00  0.00    -0.034 OA 
BRANCH   4   6
HETATM    6  C   UNL     1      -7.306   3.430  70.764  1.00  0.00    -0.037 C  
HETATM    7  N   UNL     1      -6.226   4.109  71.518  1.00  0.00    -0.017 NA 
HETATM    8  H2  UNL     1      -5.977   5.012  71.113  1.00  0.00     0.000 HD 
HETATM    9  H1  UNL     1      -6.503   4.185  72.497  1.00  0.00     0.000 HD 
BRANCH   6  10
HETATM   10  C   UNL     1      -8.653   4.172  70.896  1.00  0.00    -0.106 C  
BRANCH  10  11
HETATM   11  C   UNL     1      -8.891   5.345  69.953  1.00  0.00    -0.140 A  
HETATM   12  C   UNL     1      -9.854   5.338  68.940  1.00  0.00    -0.230 A  
HETATM   13  C   UNL     1     -10.011   6.451  68.077  1.00  0.00    -0.144 A  
HETATM   14  C   UNL     1      -9.212   7.611  68.181  1.00  0.00    -0.138 A  
HETATM   15  C   UNL     1      -8.308   7.620  69.258  1.00  0.00    -0.134 A  
HETATM   16  C   UNL     1      -8.145   6.517  70.115  1.00  0.00    -0.121 A  
BRANCH  14  17
HETATM   17  C   UNL     1      -9.251   8.709  67.153  1.00  0.00    -0.144 A  
HETATM   18  N   UNL     1      -8.058   9.190  66.729  1.00  0.00    -0.111 NA 
HETATM   19  C   UNL     1      -8.058  10.283  65.954  1.00  0.00    -0.143 A  
HETATM   20  N   UNL     1      -9.135  10.999  65.610  1.00  0.00    -0.203 NA 
HETATM   21  N   UNL     1      -6.834  10.768  65.541  1.00  0.00    -0.350 NA 
HETATM   22  H1  UNL     1      -6.834  11.600  64.952  1.00  0.00     0.000 HD 
HETATM   23  C   UNL     1     -10.303  10.499  66.020  1.00  0.00    -0.211 A  
HETATM   24  H2  UNL     1      -5.963  10.313  65.815  1.00  0.00     0.000 HD 
HETATM   25  C   UNL     1     -10.422   9.332  66.750  1.00  0.00    -0.263 A  
BRANCH  23  26
HETATM   26  O   UNL     1     -11.467  11.229  65.854  1.00  0.00    -0.127 OA 
BRANCH  26  27
HETATM   27  C   UNL     1     -11.374  12.672  65.950  1.00  0.00    -0.334 C  
HETATM   28  C   UNL     1     -12.305  13.485  65.015  1.00  0.00    -0.428 C  
HETATM   29  F   UNL     1     -12.922  12.747  64.066  1.00  0.00    -0.328 F  
HETATM   30  F   UNL     1     -11.564  14.426  64.357  1.00  0.00    -0.373 F  
HETATM   31  F   UNL     1     -13.263  14.180  65.675  1.00  0.00    -0.568 F  
BRANCH  27  32
HETATM   32  C   UNL     1     -11.467  13.135  67.437  1.00  0.00    -0.375 A  
HETATM   33  C   UNL     1     -12.031  12.209  68.348  1.00  0.00    -0.257 A  
HETATM   34  C   UNL     1     -12.306  12.554  69.674  1.00  0.00    -0.035 A  
HETATM   35  C   UNL     1     -12.043  13.840  70.120  1.00  0.00    -0.359 A  
HETATM   36  C   UNL     1     -11.398  14.753  69.286  1.00  0.00    -0.317 A  
HETATM   37 CL   UNL     1     -12.503  14.309  71.710  1.00  0.00    -0.410 Cl 
HETATM   38  C   UNL     1     -11.052  14.393  67.966  1.00  0.00    -0.272 A  
BRANCH  38  39
HETATM   39  N   UNL     1     -10.258  15.307  67.214  1.00  0.00    -0.245 NA 
HETATM   40  C   UNL     1      -8.998  15.140  66.667  1.00  0.00    -0.287 A  
HETATM   41  C   UNL     1      -8.594  16.383  66.229  1.00  0.00    -0.375 A  
HETATM   42  C   UNL     1      -9.698  17.212  66.470  1.00  0.00    -0.287 A  
HETATM   43  N   UNL     1     -10.741  16.518  66.897  1.00  0.00    -0.235 NA 
HETATM   44  C   UNL     1      -9.833  18.685  66.343  1.00  0.00    -0.390 C  
ENDBRANCH  38  39
ENDBRANCH  27  32
ENDBRANCH  26  27
ENDBRANCH  23  26
ENDBRANCH  14  17
ENDBRANCH  10  11
ENDBRANCH   6  10
ENDBRANCH   4   6
ENDBRANCH   3   4
ENDBRANCH   2   3
TORSDOF 10
ENDMDL
MODEL      126
REMARK 921   NORMALIZED FREE ENERGY PREDICTED BY IDOCK:   -5.14 KCAL/MOL
REMARK 922        TOTAL FREE ENERGY PREDICTED BY IDOCK:  -10.48 KCAL/MOL
REMARK 923 INTER-LIGAND FREE ENERGY PREDICTED BY IDOCK:  -10.65 KCAL/MOL
REMARK 924 INTRA-LIGAND FREE ENERGY PREDICTED BY IDOCK:    0.17 KCAL/MOL
REMARK 927      BINDING AFFINITY PREDICTED BY RF-SCORE:    0.00 PKD
ROOT
HETATM    1  C   UNL     1     -13.086  10.888  71.877  1.00  0.00    -0.537 C  
HETATM    2  C   UNL     1     -13.396   9.536  71.261  1.00  0.00    -0.314 C  
ENDROOT
BRANCH   2   3
HETATM    3  O   UNL     1     -12.637   8.549  71.970  1.00  0.00    -0.324 OA 
BRANCH   3   4
HETATM    4  C   UNL     1     -12.727   7.283  71.457  1.00  0.00    -0.384 C  
HETATM    5  O   UNL     1     -13.617   6.885  70.717  1.00  0.00     0.089 OA 
BRANCH   4   6
HETATM    6  C   UNL     1     -11.517   6.471  71.936  1.00  0.00    -0.301 C  
HETATM    7  N   UNL     1     -11.971   5.470  72.930  1.00  0.00    -0.530 NA 
HETATM    8  H2  UNL     1     -12.720   4.877  72.571  1.00  0.00     0.000 HD 
HETATM    9  H1  UNL     1     -11.166   4.930  73.248  1.00  0.00     0.000 HD 
BRANCH   6  10
HETATM   10  C   UNL     1     -10.795   5.809  70.742  1.00  0.00    -0.330 C  
BRANCH  10  11
HETATM   11  C   UNL     1     -10.440   6.709  69.565  1.00  0.00    -0.253 A  
HETATM   12  C   UNL     1      -9.894   7.988  69.709  1.00  0.00    -0.183 A  
HETATM   13  C   UNL     1      -9.607   8.788  68.576  1.00  0.00    -0.158 A  
HETATM   14  C   UNL     1      -9.858   8.354  67.256  1.00  0.00    -0.264 A  
HETATM   15  C   UNL     1     -10.331   7.034  67.140  1.00  0.00    -0.351 A  
HETATM   16  C   UNL     1     -10.622   6.237  68.262  1.00  0.00    -0.318 A  
BRANCH  14  17
HETATM   17  C   UNL     1      -9.730   9.271  66.069  1.00  0.00    -0.289 A  
HETATM   18  N   UNL     1      -9.393   8.697  64.890  1.00  0.00     0.286 NA 
HETATM   19  C   UNL     1      -9.097   9.502  63.860  1.00  0.00    -0.126 A  
HETATM   20  N   UNL     1      -9.031  10.838  63.904  1.00  0.00    -0.177 NA 
HETATM   21  N   UNL     1      -8.743   8.903  62.668  1.00  0.00    -0.386 NA 
HETATM   22  H1  UNL     1      -8.517   9.515  61.885  1.00  0.00     0.000 HD 
HETATM   23  C   UNL     1      -9.386  11.386  65.069  1.00  0.00    -0.138 A  
HETATM   24  H2  UNL     1      -8.709   7.888  62.575  1.00  0.00     0.000 HD 
HETATM   25  C   UNL     1      -9.792  10.652  66.167  1.00  0.00    -0.268 A  
BRANCH  23  26
HETATM   26  O   UNL     1      -9.213  12.742  65.278  1.00  0.00     0.273 OA 
BRANCH  26  27
HETATM   27  C   UNL     1     -10.401  13.550  65.465  1.00  0.00    -0.300 C  
HETATM   28  C   UNL     1     -11.662  13.112  64.678  1.00  0.00    -0.361 C  
HETATM   29  F   UNL     1     -11.432  12.166  63.741  1.00  0.00    -0.388 F  
HETATM   30  F   UNL     1     -12.176  14.194  64.022  1.00  0.00    -0.476 F  
HETATM   31  F   UNL     1     -12.666  12.663  65.470  1.00  0.00    -0.508 F  
BRANCH  27  32
HETATM   32  C   UNL     1     -10.688  13.769  66.983  1.00  0.00    -0.283 A  
HETATM   33  C   UNL     1     -11.391  12.732  67.643  1.00  0.00    -0.359 A  
HETATM   34  C   UNL     1     -11.839  12.869  68.960  1.00  0.00    -0.352 A  
HETATM   35  C   UNL     1     -11.612  14.053  69.645  1.00  0.00    -0.289 A  
HETATM   36  C   UNL     1     -10.840  15.061  69.068  1.00  0.00    -0.242 A  
HETATM   37 CL   UNL     1     -12.277  14.277  71.217  1.00  0.00    -0.416 Cl 
HETATM   38  C   UNL     1     -10.323  14.905  67.765  1.00  0.00    -0.244 A  
BRANCH  38  39
HETATM   39  N   UNL     1      -9.414  15.894  67.287  1.00  0.00    -0.211 NA 
HETATM   40  C   UNL     1      -9.002  16.164  65.994  1.00  0.00    -0.298 A  
HETATM   41  C   UNL     1      -7.964  17.064  66.094  1.00  0.00    -0.299 A  
HETATM   42  C   UNL     1      -7.878  17.344  67.465  1.00  0.00    -0.197 A  
HETATM   43  N   UNL     1      -8.863  16.771  68.139  1.00  0.00    -0.217 NA 
HETATM   44  C   UNL     1      -6.871  18.131  68.219  1.00  0.00    -0.229 C  
ENDBRANCH  38  39
ENDBRANCH  27  32
ENDBRANCH  26  27
ENDBRANCH  23  26
ENDBRANCH  14  17
ENDBRANCH  10  11
ENDBRANCH   6  10
ENDBRANCH   4   6
ENDBRANCH   3   4
ENDBRANCH   2   3
TORSDOF 10
ENDMDL
MODEL      127
REMARK 921   NORMALIZED FREE ENERGY PREDICTED BY IDOCK:   -5.09 KCAL/MOL
REMARK 922        TOTAL FREE ENERGY PREDICTED BY IDOCK:  -10.40 KCAL/MOL
REMARK 923 INTER-LIGAND FREE ENERGY PREDICTED BY IDOCK:   -8.91 KCAL/MOL
REMARK 924 INTRA-LIGAND FREE ENERGY PREDICTED BY IDOCK:   -1.49 KCAL/MOL
REMARK 927      BINDING AFFINITY PREDICTED BY RF-SCORE:    0.00 PKD
ROOT
HETATM    1  C   UNL     1     -12.204  12.713  63.210  1.00  0.00    -0.512 C  
HETATM    2  C   UNL     1     -12.038  13.031  64.685  1.00  0.00    -0.409 C  
ENDROOT
BRANCH   2   3
HETATM    3  O   UNL     1     -12.726  14.260  64.947  1.00  0.00    -0.637 OA 
BRANCH   3   4
HETATM    4  C   UNL     1     -12.029  15.388  64.606  1.00  0.00    -0.176 C  
HETATM    5  O   UNL     1     -12.351  16.175  63.726  1.00  0.00    -0.864 OA 
BRANCH   4   6
HETATM    6  C   UNL     1     -10.809  15.511  65.528  1.00  0.00    -0.361 C  
HETATM    7  N   UNL     1     -10.259  16.882  65.421  1.00  0.00    -0.623 NA 
HETATM    8  H2  UNL     1     -10.962  17.599  65.608  1.00  0.00     0.000 HD 
HETATM    9  H1  UNL     1      -9.449  16.964  66.034  1.00  0.00     0.000 HD 
BRANCH   6  10
HETATM   10  C   UNL     1     -11.185  15.155  66.983  1.00  0.00    -0.308 C  
BRANCH  10  11
HETATM   11  C   UNL     1     -10.595  13.872  67.555  1.00  0.00    -0.256 A  
HETATM   12  C   UNL     1      -9.233  13.561  67.509  1.00  0.00    -0.219 A  
HETATM   13  C   UNL     1      -8.747  12.339  68.036  1.00  0.00    -0.181 A  
HETATM   14  C   UNL     1      -9.595  11.373  68.621  1.00  0.00    -0.179 A  
HETATM   15  C   UNL     1     -10.947  11.749  68.725  1.00  0.00    -0.281 A  
HETATM   16  C   UNL     1     -11.435  12.959  68.199  1.00  0.00    -0.354 A  
BRANCH  14  17
HETATM   17  C   UNL     1      -9.108  10.003  69.008  1.00  0.00    -0.171 A  
HETATM   18  N   UNL     1      -8.629   9.223  68.011  1.00  0.00    -0.121 NA 
HETATM   19  C   UNL     1      -8.357   7.941  68.289  1.00  0.00    -0.124 A  
HETATM   20  N   UNL     1      -8.583   7.327  69.456  1.00  0.00    -0.134 NA 
HETATM   21  N   UNL     1      -7.881   7.155  67.259  1.00  0.00    -0.109 NA 
HETATM   22  H1  UNL     1      -7.674   6.180  67.470  1.00  0.00     0.000 HD 
HETATM   23  C   UNL     1      -9.037   8.117  70.433  1.00  0.00    -0.150 A  
HETATM   24  H2  UNL     1      -7.741   7.536  66.322  1.00  0.00     0.000 HD 
HETATM   25  C   UNL     1      -9.269   9.470  70.277  1.00  0.00    -0.303 A  
BRANCH  23  26
HETATM   26  O   UNL     1      -9.449   7.567  71.634  1.00  0.00    -0.149 OA 
BRANCH  26  27
HETATM   27  C   UNL     1      -8.665   6.476  72.178  1.00  0.00    -0.131 C  
HETATM   28  C   UNL     1      -7.794   6.805  73.416  1.00  0.00    -0.091 C  
HETATM   29  F   UNL     1      -7.699   8.124  73.695  1.00  0.00    -0.164 F  
HETATM   30  F   UNL     1      -6.521   6.360  73.196  1.00  0.00    -0.063 F  
HETATM   31  F   UNL     1      -8.202   6.180  74.547  1.00  0.00    -0.118 F  
BRANCH  27  32
HETATM   32  C   UNL     1      -9.553   5.210  72.389  1.00  0.00    -0.176 A  
HETATM   33  C   UNL     1     -10.681   5.368  73.230  1.00  0.00    -0.320 A  
HETATM   34  C   UNL     1     -11.469   4.281  73.618  1.00  0.00    -0.206 A  
HETATM   35  C   UNL     1     -11.139   3.004  73.190  1.00  0.00    -0.058 A  
HETATM   36  C   UNL     1     -10.096   2.816  72.283  1.00  0.00    -0.225 A  
HETATM   37 CL   UNL     1     -12.024   1.648  73.772  1.00  0.00    -0.255 Cl 
HETATM   38  C   UNL     1      -9.338   3.915  71.830  1.00  0.00    -0.134 A  
BRANCH  38  39
HETATM   39  N   UNL     1      -8.392   3.687  70.788  1.00  0.00    -0.068 NA 
HETATM   40  C   UNL     1      -7.009   3.706  70.830  1.00  0.00    -0.033 A  
HETATM   41  C   UNL     1      -6.577   3.637  69.524  1.00  0.00    -0.034 A  
HETATM   42  C   UNL     1      -7.753   3.493  68.776  1.00  0.00    -0.052 A  
HETATM   43  N   UNL     1      -8.811   3.351  69.559  1.00  0.00    -0.081 NA 
HETATM   44  C   UNL     1      -7.959   3.506  67.306  1.00  0.00    -0.082 C  
ENDBRANCH  38  39
ENDBRANCH  27  32
ENDBRANCH  26  27
ENDBRANCH  23  26
ENDBRANCH  14  17
ENDBRANCH  10  11
ENDBRANCH   6  10
ENDBRANCH   4   6
ENDBRANCH   3   4
ENDBRANCH   2   3
TORSDOF 10
ENDMDL
MODEL      128
REMARK 921   NORMALIZED FREE ENERGY PREDICTED BY IDOCK:   -5.07 KCAL/MOL
REMARK 922        TOTAL FREE ENERGY PREDICTED BY IDOCK:  -10.38 KCAL/MOL
REMARK 923 INTER-LIGAND FREE ENERGY PREDICTED BY IDOCK:   -9.08 KCAL/MOL
REMARK 924 INTRA-LIGAND FREE ENERGY PREDICTED BY IDOCK:   -1.30 KCAL/MOL
REMARK 927      BINDING AFFINITY PREDICTED BY RF-SCORE:    0.00 PKD
ROOT
HETATM    1  C   UNL     1      -9.052   3.309  68.992  1.00  0.00    -0.207 C  
HETATM    2  C   UNL     1      -7.871   3.206  68.045  1.00  0.00    -0.066 C  
ENDROOT
BRANCH   2   3
HETATM    3  O   UNL     1      -7.495   4.536  67.669  1.00  0.00    -0.072 OA 
BRANCH   3   4
HETATM    4  C   UNL     1      -6.228   4.650  67.165  1.00  0.00    -0.036 C  
HETATM    5  O   UNL     1      -5.252   4.028  67.564  1.00  0.00    -0.010 OA 
BRANCH   4   6
HETATM    6  C   UNL     1      -6.248   5.654  66.005  1.00  0.00    -0.034 C  
HETATM    7  N   UNL     1      -5.199   5.282  65.027  1.00  0.00    -0.009 NA 
HETATM    8  H2  UNL     1      -5.290   4.317  64.707  1.00  0.00     0.000 HD 
HETATM    9  H1  UNL     1      -5.213   5.950  64.256  1.00  0.00     0.000 HD 
BRANCH   6  10
HETATM   10  C   UNL     1      -7.647   5.710  65.354  1.00  0.00    -0.083 C  
BRANCH  10  11
HETATM   11  C   UNL     1      -8.385   7.041  65.416  1.00  0.00    -0.121 A  
HETATM   12  C   UNL     1      -9.331   7.355  66.397  1.00  0.00    -0.206 A  
HETATM   13  C   UNL     1     -10.002   8.602  66.387  1.00  0.00    -0.331 A  
HETATM   14  C   UNL     1      -9.769   9.584  65.399  1.00  0.00    -0.314 A  
HETATM   15  C   UNL     1      -8.756   9.272  64.474  1.00  0.00    -0.218 A  
HETATM   16  C   UNL     1      -8.089   8.033  64.476  1.00  0.00    -0.132 A  
BRANCH  14  17
HETATM   17  C   UNL     1     -10.614  10.823  65.281  1.00  0.00    -0.160 A  
HETATM   18  N   UNL     1     -11.003  11.178  64.034  1.00  0.00    -0.307 NA 
HETATM   19  C   UNL     1     -11.600  12.368  63.875  1.00  0.00    -0.441 A  
HETATM   20  N   UNL     1     -11.788  13.284  64.832  1.00  0.00    -0.345 NA 
HETATM   21  N   UNL     1     -11.980  12.721  62.596  1.00  0.00    -0.249 NA 
HETATM   22  H1  UNL     1     -12.434  13.626  62.475  1.00  0.00     0.000 HD 
HETATM   23  C   UNL     1     -11.416  12.908  66.058  1.00  0.00    -0.340 A  
HETATM   24  H2  UNL     1     -11.813  12.101  61.803  1.00  0.00     0.000 HD 
HETATM   25  C   UNL     1     -10.871  11.672  66.346  1.00  0.00    -0.333 A  
BRANCH  23  26
HETATM   26  O   UNL     1     -11.423  13.823  67.096  1.00  0.00    -0.310 OA 
BRANCH  26  27
HETATM   27  C   UNL     1     -10.802  13.428  68.344  1.00  0.00    -0.264 C  
HETATM   28  C   UNL     1      -9.255  13.493  68.395  1.00  0.00    -0.159 C  
HETATM   29  F   UNL     1      -8.667  13.691  67.194  1.00  0.00    -0.188 F  
HETATM   30  F   UNL     1      -8.774  12.307  68.873  1.00  0.00    -0.067 F  
HETATM   31  F   UNL     1      -8.780  14.440  69.241  1.00  0.00    -0.103 F  
BRANCH  27  32
HETATM   32  C   UNL     1     -11.472  14.159  69.550  1.00  0.00    -0.334 A  
HETATM   33  C   UNL     1     -12.042  13.331  70.546  1.00  0.00    -0.391 A  
HETATM   34  C   UNL     1     -12.798  13.857  71.597  1.00  0.00    -0.432 A  
HETATM   35  C   UNL     1     -13.020  15.224  71.669  1.00  0.00    -0.408 A  
HETATM   36  C   UNL     1     -12.396  16.084  70.765  1.00  0.00    -0.199 A  
HETATM   37 CL   UNL     1     -14.060  15.863  72.882  1.00  0.00    -0.508 Cl 
HETATM   38  C   UNL     1     -11.574  15.569  69.742  1.00  0.00    -0.334 A  
BRANCH  38  39
HETATM   39  N   UNL     1     -10.839  16.497  68.948  1.00  0.00    -0.324 NA 
HETATM   40  C   UNL     1     -11.154  17.056  67.722  1.00  0.00    -0.090 A  
HETATM   41  C   UNL     1     -10.024  17.715  67.290  1.00  0.00    -0.322 A  
HETATM   42  C   UNL     1      -9.116  17.577  68.348  1.00  0.00    -0.276 A  
HETATM   43  N   UNL     1      -9.678  16.997  69.397  1.00  0.00    -0.064 NA 
HETATM   44  C   UNL     1      -7.681  17.948  68.431  1.00  0.00    -0.292 C  
ENDBRANCH  38  39
ENDBRANCH  27  32
ENDBRANCH  26  27
ENDBRANCH  23  26
ENDBRANCH  14  17
ENDBRANCH  10  11
ENDBRANCH   6  10
ENDBRANCH   4   6
ENDBRANCH   3   4
ENDBRANCH   2   3
TORSDOF 10
ENDMDL
MODEL      129
REMARK 921   NORMALIZED FREE ENERGY PREDICTED BY IDOCK:   -5.03 KCAL/MOL
REMARK 922        TOTAL FREE ENERGY PREDICTED BY IDOCK:  -10.31 KCAL/MOL
REMARK 923 INTER-LIGAND FREE ENERGY PREDICTED BY IDOCK:   -8.72 KCAL/MOL
REMARK 924 INTRA-LIGAND FREE ENERGY PREDICTED BY IDOCK:   -1.59 KCAL/MOL
REMARK 927      BINDING AFFINITY PREDICTED BY RF-SCORE:    0.00 PKD
ROOT
HETATM    1  C   UNL     1     -14.290  15.569  71.976  1.00  0.00    -0.600 C  
HETATM    2  C   UNL     1     -12.851  15.742  71.523  1.00  0.00    -0.449 C  
ENDROOT
BRANCH   2   3
HETATM    3  O   UNL     1     -12.843  15.761  70.091  1.00  0.00    -0.293 OA 
BRANCH   3   4
HETATM    4  C   UNL     1     -11.598  15.839  69.528  1.00  0.00    -0.363 C  
HETATM    5  O   UNL     1     -10.929  16.859  69.438  1.00  0.00    -0.256 OA 
BRANCH   4   6
HETATM    6  C   UNL     1     -11.178  14.437  69.067  1.00  0.00    -0.264 C  
HETATM    7  N   UNL     1      -9.748  14.229  69.398  1.00  0.00    -0.398 NA 
HETATM    8  H2  UNL     1      -9.551  14.389  70.386  1.00  0.00     0.000 HD 
HETATM    9  H1  UNL     1      -9.469  13.297  69.091  1.00  0.00     0.000 HD 
BRANCH   6  10
HETATM   10  C   UNL     1     -12.079  13.358  69.706  1.00  0.00    -0.374 C  
BRANCH  10  11
HETATM   11  C   UNL     1     -11.719  11.904  69.425  1.00  0.00    -0.401 A  
HETATM   12  C   UNL     1     -11.740  10.902  70.399  1.00  0.00    -0.444 A  
HETATM   13  C   UNL     1     -11.371   9.571  70.082  1.00  0.00    -0.241 A  
HETATM   14  C   UNL     1     -10.959   9.185  68.788  1.00  0.00    -0.011 A  
HETATM   15  C   UNL     1     -11.026  10.196  67.812  1.00  0.00    -0.338 A  
HETATM   16  C   UNL     1     -11.387  11.520  68.123  1.00  0.00    -0.367 A  
BRANCH  14  17
HETATM   17  C   UNL     1     -10.390   7.822  68.497  1.00  0.00    -0.197 A  
HETATM   18  N   UNL     1     -10.836   7.201  67.380  1.00  0.00    -0.288 NA 
HETATM   19  C   UNL     1     -10.488   5.921  67.190  1.00  0.00    -0.272 A  
HETATM   20  N   UNL     1      -9.790   5.163  68.044  1.00  0.00    -0.146 NA 
HETATM   21  N   UNL     1     -10.962   5.297  66.053  1.00  0.00    -0.775 NA 
HETATM   22  H1  UNL     1     -10.697   4.323  65.908  1.00  0.00     0.000 HD 
HETATM   23  C   UNL     1      -9.342   5.799  69.129  1.00  0.00    -0.123 A  
HETATM   24  H2  UNL     1     -11.553   5.791  65.384  1.00  0.00     0.000 HD 
HETATM   25  C   UNL     1      -9.570   7.138  69.380  1.00  0.00    -0.153 A  
BRANCH  23  26
HETATM   26  O   UNL     1      -8.741   5.086  70.151  1.00  0.00    -0.105 OA 
BRANCH  26  27
HETATM   27  C   UNL     1      -9.261   5.264  71.492  1.00  0.00    -0.146 C  
HETATM   28  C   UNL     1      -9.737   3.982  72.221  1.00  0.00    -0.156 C  
HETATM   29  F   UNL     1      -9.820   2.890  71.429  1.00  0.00    -0.219 F  
HETATM   30  F   UNL     1     -10.990   4.195  72.723  1.00  0.00    -0.245 F  
HETATM   31  F   UNL     1      -8.973   3.651  73.290  1.00  0.00    -0.095 F  
BRANCH  27  32
HETATM   32  C   UNL     1      -8.279   6.115  72.357  1.00  0.00    -0.108 A  
HETATM   33  C   UNL     1      -8.871   7.064  73.224  1.00  0.00    -0.155 A  
HETATM   34  C   UNL     1      -8.104   7.988  73.939  1.00  0.00    -0.288 A  
HETATM   35  C   UNL     1      -6.725   7.998  73.792  1.00  0.00    -0.115 A  
HETATM   36  C   UNL     1      -6.094   7.018  73.025  1.00  0.00    -0.056 A  
HETATM   37 CL   UNL     1      -5.787   9.217  74.565  1.00  0.00    -0.136 Cl 
HETATM   38  C   UNL     1      -6.855   6.038  72.354  1.00  0.00    -0.074 A  
BRANCH  38  39
HETATM   39  N   UNL     1      -6.154   4.972  71.717  1.00  0.00    -0.027 NA 
HETATM   40  C   UNL     1      -5.506   4.947  70.495  1.00  0.00    -0.008 A  
HETATM   41  C   UNL     1      -5.181   3.631  70.252  1.00  0.00    -0.004 A  
HETATM   42  C   UNL     1      -5.589   2.953  71.408  1.00  0.00    -0.008 A  
HETATM   43  N   UNL     1      -6.009   3.794  72.341  1.00  0.00    -0.008 NA 
HETATM   44  C   UNL     1      -5.637   1.497  71.697  1.00  0.00    -0.008 C  
ENDBRANCH  38  39
ENDBRANCH  27  32
ENDBRANCH  26  27
ENDBRANCH  23  26
ENDBRANCH  14  17
ENDBRANCH  10  11
ENDBRANCH   6  10
ENDBRANCH   4   6
ENDBRANCH   3   4
ENDBRANCH   2   3
TORSDOF 10
ENDMDL
MODEL      130
REMARK 921   NORMALIZED FREE ENERGY PREDICTED BY IDOCK:   -5.03 KCAL/MOL
REMARK 922        TOTAL FREE ENERGY PREDICTED BY IDOCK:  -10.31 KCAL/MOL
REMARK 923 INTER-LIGAND FREE ENERGY PREDICTED BY IDOCK:   -8.16 KCAL/MOL
REMARK 924 INTRA-LIGAND FREE ENERGY PREDICTED BY IDOCK:   -2.14 KCAL/MOL
REMARK 927      BINDING AFFINITY PREDICTED BY RF-SCORE:    0.00 PKD
ROOT
HETATM    1  C   UNL     1      -7.470  18.234  68.532  1.00  0.00    -0.300 C  
HETATM    2  C   UNL     1      -8.391  19.369  68.123  1.00  0.00    -0.328 C  
ENDROOT
BRANCH   2   3
HETATM    3  O   UNL     1      -9.735  18.875  68.161  1.00  0.00    -0.313 OA 
BRANCH   3   4
HETATM    4  C   UNL     1     -10.373  18.859  66.950  1.00  0.00    -0.406 C  
HETATM    5  O   UNL     1     -10.740  19.851  66.335  1.00  0.00    -0.454 OA 
BRANCH   4   6
HETATM    6  C   UNL     1     -10.513  17.403  66.487  1.00  0.00    -0.264 C  
HETATM    7  N   UNL     1      -9.381  17.071  65.591  1.00  0.00    -0.487 NA 
HETATM    8  H2  UNL     1      -8.476  17.255  66.024  1.00  0.00     0.000 HD 
HETATM    9  H1  UNL     1      -9.475  16.103  65.283  1.00  0.00     0.000 HD 
BRANCH   6  10
HETATM   10  C   UNL     1     -10.587  16.448  67.698  1.00  0.00    -0.313 C  
BRANCH  10  11
HETATM   11  C   UNL     1     -10.161  15.004  67.465  1.00  0.00    -0.234 A  
HETATM   12  C   UNL     1      -8.990  14.450  67.991  1.00  0.00    -0.183 A  
HETATM   13  C   UNL     1      -8.635  13.106  67.718  1.00  0.00    -0.188 A  
HETATM   14  C   UNL     1      -9.422  12.261  66.906  1.00  0.00    -0.217 A  
HETATM   15  C   UNL     1     -10.633  12.821  66.458  1.00  0.00    -0.270 A  
HETATM   16  C   UNL     1     -10.988  14.156  66.722  1.00  0.00    -0.300 A  
BRANCH  14  17
HETATM   17  C   UNL     1      -8.952  10.902  66.465  1.00  0.00    -0.168 A  
HETATM   18  N   UNL     1      -9.010  10.638  65.139  1.00  0.00    -0.193 NA 
HETATM   19  C   UNL     1      -8.770   9.382  64.735  1.00  0.00    -0.197 A  
HETATM   20  N   UNL     1      -8.546   8.332  65.533  1.00  0.00    -0.164 NA 
HETATM   21  N   UNL     1      -8.846   9.126  63.381  1.00  0.00    -0.418 NA 
HETATM   22  H1  UNL     1      -8.664   8.171  63.074  1.00  0.00     0.000 HD 
HETATM   23  C   UNL     1      -8.473   8.616  66.836  1.00  0.00    -0.112 A  
HETATM   24  H2  UNL     1      -9.074   9.863  62.713  1.00  0.00     0.000 HD 
HETATM   25  C   UNL     1      -8.618   9.889  67.351  1.00  0.00    -0.125 A  
BRANCH  23  26
HETATM   26  O   UNL     1      -8.396   7.593  67.765  1.00  0.00    -0.117 OA 
BRANCH  26  27
HETATM   27  C   UNL     1      -9.514   7.420  68.669  1.00  0.00    -0.139 C  
HETATM   28  C   UNL     1     -10.499   6.271  68.334  1.00  0.00    -0.227 C  
HETATM   29  F   UNL     1     -10.316   5.720  67.114  1.00  0.00    -0.162 F  
HETATM   30  F   UNL     1     -11.775   6.758  68.355  1.00  0.00    -0.088 F  
HETATM   31  F   UNL     1     -10.484   5.264  69.241  1.00  0.00    -0.285 F  
BRANCH  27  32
HETATM   32  C   UNL     1      -9.026   7.378  70.151  1.00  0.00    -0.148 A  
HETATM   33  C   UNL     1      -9.759   8.161  71.075  1.00  0.00    -0.193 A  
HETATM   34  C   UNL     1      -9.337   8.327  72.397  1.00  0.00    -0.338 A  
HETATM   35  C   UNL     1      -8.162   7.729  72.825  1.00  0.00    -0.126 A  
HETATM   36  C   UNL     1      -7.463   6.870  71.977  1.00  0.00    -0.092 A  
HETATM   37 CL   UNL     1      -7.569   8.038  74.411  1.00  0.00    -0.228 Cl 
HETATM   38  C   UNL     1      -7.917   6.640  70.662  1.00  0.00    -0.111 A  
BRANCH  38  39
HETATM   39  N   UNL     1      -7.256   5.636  69.895  1.00  0.00    -0.067 NA 
HETATM   40  C   UNL     1      -5.991   5.641  69.336  1.00  0.00    -0.020 A  
HETATM   41  C   UNL     1      -5.919   4.532  68.522  1.00  0.00    -0.026 A  
HETATM   42  C   UNL     1      -7.141   3.876  68.719  1.00  0.00    -0.051 A  
HETATM   43  N   UNL     1      -7.854   4.456  69.671  1.00  0.00    -0.057 NA 
HETATM   44  C   UNL     1      -7.719   2.700  68.021  1.00  0.00    -0.055 C  
ENDBRANCH  38  39
ENDBRANCH  27  32
ENDBRANCH  26  27
ENDBRANCH  23  26
ENDBRANCH  14  17
ENDBRANCH  10  11
ENDBRANCH   6  10
ENDBRANCH   4   6
ENDBRANCH   3   4
ENDBRANCH   2   3
TORSDOF 10
ENDMDL
MODEL      131
REMARK 921   NORMALIZED FREE ENERGY PREDICTED BY IDOCK:   -5.03 KCAL/MOL
REMARK 922        TOTAL FREE ENERGY PREDICTED BY IDOCK:  -10.30 KCAL/MOL
REMARK 923 INTER-LIGAND FREE ENERGY PREDICTED BY IDOCK:   -8.26 KCAL/MOL
REMARK 924 INTRA-LIGAND FREE ENERGY PREDICTED BY IDOCK:   -2.05 KCAL/MOL
REMARK 927      BINDING AFFINITY PREDICTED BY RF-SCORE:    0.00 PKD
ROOT
HETATM    1  C   UNL     1      -7.267  18.614  68.567  1.00  0.00    -0.314 C  
HETATM    2  C   UNL     1      -8.240  19.765  68.390  1.00  0.00    -0.261 C  
ENDROOT
BRANCH   2   3
HETATM    3  O   UNL     1      -9.562  19.216  68.346  1.00  0.00    -0.332 OA 
BRANCH   3   4
HETATM    4  C   UNL     1     -10.147  19.234  67.109  1.00  0.00    -0.377 C  
HETATM    5  O   UNL     1     -10.379  20.241  66.454  1.00  0.00    -0.409 OA 
BRANCH   4   6
HETATM    6  C   UNL     1     -10.426  17.789  66.676  1.00  0.00    -0.300 C  
HETATM    7  N   UNL     1      -9.312  17.318  65.820  1.00  0.00    -0.508 NA 
HETATM    8  H2  UNL     1      -8.403  17.419  66.273  1.00  0.00     0.000 HD 
HETATM    9  H1  UNL     1      -9.498  16.358  65.532  1.00  0.00     0.000 HD 
BRANCH   6  10
HETATM   10  C   UNL     1     -10.630  16.878  67.906  1.00  0.00    -0.361 C  
BRANCH  10  11
HETATM   11  C   UNL     1      -9.908  15.536  67.898  1.00  0.00    -0.216 A  
HETATM   12  C   UNL     1      -8.714  15.297  68.584  1.00  0.00    -0.182 A  
HETATM   13  C   UNL     1      -8.077  14.033  68.518  1.00  0.00    -0.139 A  
HETATM   14  C   UNL     1      -8.596  12.959  67.762  1.00  0.00    -0.185 A  
HETATM   15  C   UNL     1      -9.838  13.205  67.149  1.00  0.00    -0.235 A  
HETATM   16  C   UNL     1     -10.472  14.459  67.207  1.00  0.00    -0.269 A  
BRANCH  14  17
HETATM   17  C   UNL     1      -7.826  11.685  67.540  1.00  0.00    -0.137 A  
HETATM   18  N   UNL     1      -6.793  11.741  66.668  1.00  0.00    -0.048 NA 
HETATM   19  C   UNL     1      -6.204  10.591  66.314  1.00  0.00    -0.105 A  
HETATM   20  N   UNL     1      -6.590   9.366  66.689  1.00  0.00    -0.067 NA 
HETATM   21  N   UNL     1      -5.161  10.663  65.414  1.00  0.00    -0.110 NA 
HETATM   22  H1  UNL     1      -4.713   9.787  65.144  1.00  0.00     0.000 HD 
HETATM   23  C   UNL     1      -7.597   9.331  67.565  1.00  0.00    -0.088 A  
HETATM   24  H2  UNL     1      -4.849  11.557  65.033  1.00  0.00     0.000 HD 
HETATM   25  C   UNL     1      -8.217  10.462  68.061  1.00  0.00    -0.114 A  
BRANCH  23  26
HETATM   26  O   UNL     1      -8.178   8.123  67.907  1.00  0.00    -0.125 OA 
BRANCH  26  27
HETATM   27  C   UNL     1      -9.569   8.136  68.311  1.00  0.00    -0.144 C  
HETATM   28  C   UNL     1     -10.615   8.253  67.174  1.00  0.00    -0.270 C  
HETATM   29  F   UNL     1     -10.092   8.557  65.965  1.00  0.00    -0.333 F  
HETATM   30  F   UNL     1     -11.497   9.250  67.479  1.00  0.00    -0.026 F  
HETATM   31  F   UNL     1     -11.373   7.140  67.019  1.00  0.00    -0.419 F  
BRANCH  27  32
HETATM   32  C   UNL     1      -9.873   6.956  69.286  1.00  0.00    -0.159 A  
HETATM   33  C   UNL     1     -10.763   7.236  70.351  1.00  0.00    -0.253 A  
HETATM   34  C   UNL     1     -11.001   6.314  71.374  1.00  0.00    -0.327 A  
HETATM   35  C   UNL     1     -10.341   5.094  71.368  1.00  0.00    -0.203 A  
HETATM   36  C   UNL     1      -9.533   4.738  70.288  1.00  0.00    -0.243 A  
HETATM   37 CL   UNL     1     -10.527   4.010  72.692  1.00  0.00    -0.239 Cl 
HETATM   38  C   UNL     1      -9.341   5.634  69.216  1.00  0.00    -0.121 A  
BRANCH  38  39
HETATM   39  N   UNL     1      -8.636   5.160  68.071  1.00  0.00    -0.103 NA 
HETATM   40  C   UNL     1      -7.276   4.993  67.876  1.00  0.00    -0.067 A  
HETATM   41  C   UNL     1      -7.104   4.717  66.538  1.00  0.00    -0.075 A  
HETATM   42  C   UNL     1      -8.407   4.651  66.026  1.00  0.00    -0.114 A  
HETATM   43  N   UNL     1      -9.311   4.746  66.988  1.00  0.00    -0.127 NA 
HETATM   44  C   UNL     1      -8.878   4.523  64.624  1.00  0.00    -0.151 C  
ENDBRANCH  38  39
ENDBRANCH  27  32
ENDBRANCH  26  27
ENDBRANCH  23  26
ENDBRANCH  14  17
ENDBRANCH  10  11
ENDBRANCH   6  10
ENDBRANCH   4   6
ENDBRANCH   3   4
ENDBRANCH   2   3
TORSDOF 10
ENDMDL
MODEL      132
REMARK 921   NORMALIZED FREE ENERGY PREDICTED BY IDOCK:   -5.03 KCAL/MOL
REMARK 922        TOTAL FREE ENERGY PREDICTED BY IDOCK:  -10.30 KCAL/MOL
REMARK 923 INTER-LIGAND FREE ENERGY PREDICTED BY IDOCK:   -8.34 KCAL/MOL
REMARK 924 INTRA-LIGAND FREE ENERGY PREDICTED BY IDOCK:   -1.97 KCAL/MOL
REMARK 927      BINDING AFFINITY PREDICTED BY RF-SCORE:    0.00 PKD
ROOT
HETATM    1  C   UNL     1      -8.560   5.323  65.238  1.00  0.00    -0.150 C  
HETATM    2  C   UNL     1      -7.401   4.639  65.939  1.00  0.00    -0.077 C  
ENDROOT
BRANCH   2   3
HETATM    3  O   UNL     1      -7.826   3.320  66.302  1.00  0.00    -0.077 OA 
BRANCH   3   4
HETATM    4  C   UNL     1      -7.908   3.098  67.650  1.00  0.00    -0.075 C  
HETATM    5  O   UNL     1      -6.957   3.076  68.419  1.00  0.00    -0.047 OA 
BRANCH   4   6
HETATM    6  C   UNL     1      -9.383   2.917  68.031  1.00  0.00    -0.205 C  
HETATM    7  N   UNL     1      -9.777   1.510  67.781  1.00  0.00    -0.402 NA 
HETATM    8  H2  UNL     1      -9.168   0.845  68.259  1.00  0.00     0.000 HD 
HETATM    9  H1  UNL     1     -10.757   1.390  68.035  1.00  0.00     0.000 HD 
BRANCH   6  10
HETATM   10  C   UNL     1      -9.624   3.329  69.500  1.00  0.00    -0.127 C  
BRANCH  10  11
HETATM   11  C   UNL     1      -9.870   4.808  69.770  1.00  0.00    -0.288 A  
HETATM   12  C   UNL     1      -9.310   5.499  70.849  1.00  0.00    -0.191 A  
HETATM   13  C   UNL     1      -9.595   6.870  71.062  1.00  0.00    -0.172 A  
HETATM   14  C   UNL     1     -10.454   7.607  70.218  1.00  0.00    -0.224 A  
HETATM   15  C   UNL     1     -10.938   6.907  69.097  1.00  0.00    -0.240 A  
HETATM   16  C   UNL     1     -10.661   5.545  68.884  1.00  0.00    -0.258 A  
BRANCH  14  17
HETATM   17  C   UNL     1     -10.905   9.005  70.550  1.00  0.00    -0.251 A  
HETATM   18  N   UNL     1     -12.018   9.121  71.310  1.00  0.00    -0.308 NA 
HETATM   19  C   UNL     1     -12.545  10.343  71.473  1.00  0.00    -0.439 A  
HETATM   20  N   UNL     1     -12.113  11.466  70.889  1.00  0.00    -0.330 NA 
HETATM   21  N   UNL     1     -13.688  10.444  72.240  1.00  0.00    -0.447 NA 
HETATM   22  H1  UNL     1     -14.089  11.373  72.363  1.00  0.00     0.000 HD 
HETATM   23  C   UNL     1     -11.002  11.335  70.159  1.00  0.00     0.197 A  
HETATM   24  H2  UNL     1     -14.114   9.621  72.668  1.00  0.00     0.000 HD 
HETATM   25  C   UNL     1     -10.330  10.139  69.998  1.00  0.00    -0.301 A  
BRANCH  23  26
HETATM   26  O   UNL     1     -10.549  12.392  69.389  1.00  0.00     0.036 OA 
BRANCH  26  27
HETATM   27  C   UNL     1     -11.542  13.263  68.793  1.00  0.00    -0.312 C  
HETATM   28  C   UNL     1     -11.603  14.712  69.340  1.00  0.00    -0.305 C  
HETATM   29  F   UNL     1     -10.877  14.914  70.461  1.00  0.00    -0.258 F  
HETATM   30  F   UNL     1     -12.897  15.016  69.653  1.00  0.00    -0.194 F  
HETATM   31  F   UNL     1     -11.223  15.648  68.436  1.00  0.00    -0.281 F  
BRANCH  27  32
HETATM   32  C   UNL     1     -11.457  13.214  67.236  1.00  0.00    -0.375 A  
HETATM   33  C   UNL     1     -12.647  13.521  66.533  1.00  0.00    -0.181 A  
HETATM   34  C   UNL     1     -12.744  13.369  65.147  1.00  0.00    -0.459 A  
HETATM   35  C   UNL     1     -11.660  12.888  64.430  1.00  0.00    -0.363 A  
HETATM   36  C   UNL     1     -10.439  12.666  65.067  1.00  0.00    -0.331 A  
HETATM   37 CL   UNL     1     -11.817  12.571  62.745  1.00  0.00     0.250 Cl 
HETATM   38  C   UNL     1     -10.310  12.883  66.455  1.00  0.00    -0.268 A  
BRANCH  38  39
HETATM   39  N   UNL     1      -9.006  12.793  67.023  1.00  0.00    -0.216 NA 
HETATM   40  C   UNL     1      -8.170  13.797  67.480  1.00  0.00    -0.188 A  
HETATM   41  C   UNL     1      -6.950  13.206  67.730  1.00  0.00    -0.145 A  
HETATM   42  C   UNL     1      -7.167  11.844  67.483  1.00  0.00    -0.125 A  
HETATM   43  N   UNL     1      -8.442  11.594  67.230  1.00  0.00    -0.150 NA 
HETATM   44  C   UNL     1      -6.204  10.715  67.442  1.00  0.00    -0.057 C  
ENDBRANCH  38  39
ENDBRANCH  27  32
ENDBRANCH  26  27
ENDBRANCH  23  26
ENDBRANCH  14  17
ENDBRANCH  10  11
ENDBRANCH   6  10
ENDBRANCH   4   6
ENDBRANCH   3   4
ENDBRANCH   2   3
TORSDOF 10
ENDMDL
MODEL      133
REMARK 921   NORMALIZED FREE ENERGY PREDICTED BY IDOCK:   -5.02 KCAL/MOL
REMARK 922        TOTAL FREE ENERGY PREDICTED BY IDOCK:  -10.30 KCAL/MOL
REMARK 923 INTER-LIGAND FREE ENERGY PREDICTED BY IDOCK:   -8.46 KCAL/MOL
REMARK 924 INTRA-LIGAND FREE ENERGY PREDICTED BY IDOCK:   -1.84 KCAL/MOL
REMARK 927      BINDING AFFINITY PREDICTED BY RF-SCORE:    0.00 PKD
ROOT
HETATM    1  C   UNL     1      -8.282  19.500  68.651  1.00  0.00    -0.369 C  
HETATM    2  C   UNL     1      -9.777  19.279  68.799  1.00  0.00    -0.446 C  
ENDROOT
BRANCH   2   3
HETATM    3  O   UNL     1     -10.161  18.257  67.872  1.00  0.00    -0.346 OA 
BRANCH   3   4
HETATM    4  C   UNL     1     -10.325  18.688  66.583  1.00  0.00    -0.415 C  
HETATM    5  O   UNL     1     -10.806  19.765  66.256  1.00  0.00    -0.429 OA 
BRANCH   4   6
HETATM    6  C   UNL     1      -9.776  17.617  65.632  1.00  0.00     0.295 C  
HETATM    7  N   UNL     1      -8.666  16.900  66.302  1.00  0.00    -0.381 NA 
HETATM    8  H2  UNL     1      -8.942  16.513  67.205  1.00  0.00     0.000 HD 
HETATM    9  H1  UNL     1      -8.301  16.188  65.670  1.00  0.00     0.000 HD 
BRANCH   6  10
HETATM   10  C   UNL     1     -10.898  16.653  65.188  1.00  0.00    -0.199 C  
BRANCH  10  11
HETATM   11  C   UNL     1     -10.863  15.242  65.763  1.00  0.00    -0.363 A  
HETATM   12  C   UNL     1     -11.272  14.928  67.063  1.00  0.00    -0.344 A  
HETATM   13  C   UNL     1     -11.192  13.600  67.549  1.00  0.00    -0.316 A  
HETATM   14  C   UNL     1     -10.697  12.533  66.769  1.00  0.00    -0.261 A  
HETATM   15  C   UNL     1     -10.369  12.865  65.441  1.00  0.00    -0.310 A  
HETATM   16  C   UNL     1     -10.441  14.182  64.955  1.00  0.00    -0.461 A  
BRANCH  14  17
HETATM   17  C   UNL     1     -10.437  11.167  67.344  1.00  0.00    -0.220 A  
HETATM   18  N   UNL     1     -10.350  11.081  68.692  1.00  0.00    -0.185 NA 
HETATM   19  C   UNL     1      -9.943   9.920  69.224  1.00  0.00    -0.207 A  
HETATM   20  N   UNL     1      -9.540   8.843  68.540  1.00  0.00    -0.155 NA 
HETATM   21  N   UNL     1      -9.846   9.851  70.599  1.00  0.00    -0.347 NA 
HETATM   22  H1  UNL     1      -9.537   8.968  71.004  1.00  0.00     0.000 HD 
HETATM   23  C   UNL     1      -9.653   8.940  67.213  1.00  0.00    -0.164 A  
HETATM   24  H2  UNL     1     -10.076  10.652  71.188  1.00  0.00     0.000 HD 
HETATM   25  C   UNL     1     -10.142  10.058  66.566  1.00  0.00    -0.296 A  
BRANCH  23  26
HETATM   26  O   UNL     1      -9.129   7.951  66.398  1.00  0.00    -0.162 OA 
BRANCH  26  27
HETATM   27  C   UNL     1      -9.192   6.584  66.874  1.00  0.00    -0.140 C  
HETATM   28  C   UNL     1     -10.606   5.958  66.981  1.00  0.00    -0.305 C  
HETATM   29  F   UNL     1     -11.618   6.840  66.833  1.00  0.00    -0.421 F  
HETATM   30  F   UNL     1     -10.753   5.398  68.218  1.00  0.00    -0.248 F  
HETATM   31  F   UNL     1     -10.817   4.947  66.103  1.00  0.00    -0.330 F  
BRANCH  27  32
HETATM   32  C   UNL     1      -8.193   5.678  66.089  1.00  0.00    -0.110 A  
HETATM   33  C   UNL     1      -7.744   6.176  64.842  1.00  0.00    -0.101 A  
HETATM   34  C   UNL     1      -6.968   5.400  63.977  1.00  0.00    -0.048 A  
HETATM   35  C   UNL     1      -6.636   4.100  64.327  1.00  0.00    -0.043 A  
HETATM   36  C   UNL     1      -6.974   3.605  65.586  1.00  0.00    -0.058 A  
HETATM   37 CL   UNL     1      -5.796   3.097  63.209  1.00  0.00    -0.013 Cl 
HETATM   38  C   UNL     1      -7.697   4.404  66.496  1.00  0.00    -0.094 A  
BRANCH  38  39
HETATM   39  N   UNL     1      -7.878   3.908  67.821  1.00  0.00    -0.077 NA 
HETATM   40  C   UNL     1      -8.456   2.727  68.251  1.00  0.00    -0.077 A  
HETATM   41  C   UNL     1      -8.575   2.826  69.620  1.00  0.00    -0.116 A  
HETATM   42  C   UNL     1      -7.969   4.050  69.934  1.00  0.00    -0.055 A  
HETATM   43  N   UNL     1      -7.406   4.599  68.869  1.00  0.00    -0.056 NA 
HETATM   44  C   UNL     1      -7.903   4.781  71.224  1.00  0.00    -0.088 C  
ENDBRANCH  38  39
ENDBRANCH  27  32
ENDBRANCH  26  27
ENDBRANCH  23  26
ENDBRANCH  14  17
ENDBRANCH  10  11
ENDBRANCH   6  10
ENDBRANCH   4   6
ENDBRANCH   3   4
ENDBRANCH   2   3
TORSDOF 10
ENDMDL
MODEL      134
REMARK 921   NORMALIZED FREE ENERGY PREDICTED BY IDOCK:   -5.01 KCAL/MOL
REMARK 922        TOTAL FREE ENERGY PREDICTED BY IDOCK:  -10.28 KCAL/MOL
REMARK 923 INTER-LIGAND FREE ENERGY PREDICTED BY IDOCK:   -8.24 KCAL/MOL
REMARK 924 INTRA-LIGAND FREE ENERGY PREDICTED BY IDOCK:   -2.04 KCAL/MOL
REMARK 927      BINDING AFFINITY PREDICTED BY RF-SCORE:    0.00 PKD
ROOT
HETATM    1  C   UNL     1      -6.004  19.569  65.022  1.00  0.00    -0.282 C  
HETATM    2  C   UNL     1      -6.536  18.347  65.749  1.00  0.00    -0.270 C  
ENDROOT
BRANCH   2   3
HETATM    3  O   UNL     1      -7.127  18.792  66.975  1.00  0.00    -0.202 OA 
BRANCH   3   4
HETATM    4  C   UNL     1      -8.450  19.128  66.882  1.00  0.00    -0.294 C  
HETATM    5  O   UNL     1      -9.001  19.548  65.873  1.00  0.00    -0.406 OA 
BRANCH   4   6
HETATM    6  C   UNL     1      -9.123  18.860  68.234  1.00  0.00    -0.323 C  
HETATM    7  N   UNL     1      -9.345  20.150  68.928  1.00  0.00     0.055 NA 
HETATM    8  H2  UNL     1      -9.871  20.813  68.357  1.00  0.00     0.000 HD 
HETATM    9  H1  UNL     1      -9.793  19.971  69.827  1.00  0.00     0.000 HD 
BRANCH   6  10
HETATM   10  C   UNL     1     -10.440  18.076  68.044  1.00  0.00    -0.388 C  
BRANCH  10  11
HETATM   11  C   UNL     1     -10.375  16.813  67.194  1.00  0.00    -0.297 A  
HETATM   12  C   UNL     1     -11.125  16.626  66.029  1.00  0.00     0.249 A  
HETATM   13  C   UNL     1     -11.039  15.418  65.294  1.00  0.00    -0.367 A  
HETATM   14  C   UNL     1     -10.213  14.344  65.691  1.00  0.00    -0.371 A  
HETATM   15  C   UNL     1      -9.411  14.592  66.820  1.00  0.00    -0.284 A  
HETATM   16  C   UNL     1      -9.496  15.788  67.556  1.00  0.00    -0.218 A  
BRANCH  14  17
HETATM   17  C   UNL     1     -10.264  12.998  65.020  1.00  0.00    -0.269 A  
HETATM   18  N   UNL     1     -11.260  12.802  64.124  1.00  0.00    -0.362 NA 
HETATM   19  C   UNL     1     -11.442  11.564  63.645  1.00  0.00    -0.278 A  
HETATM   20  N   UNL     1     -10.771  10.470  64.026  1.00  0.00     0.209 NA 
HETATM   21  N   UNL     1     -12.468  11.377  62.742  1.00  0.00    -0.741 NA 
HETATM   22  H1  UNL     1     -12.607  10.435  62.378  1.00  0.00     0.000 HD 
HETATM   23  C   UNL     1      -9.780  10.687  64.895  1.00  0.00    -0.284 A  
HETATM   24  H2  UNL     1     -13.066  12.151  62.450  1.00  0.00     0.000 HD 
HETATM   25  C   UNL     1      -9.452  11.936  65.384  1.00  0.00    -0.123 A  
BRANCH  23  26
HETATM   26  O   UNL     1      -9.118   9.618  65.472  1.00  0.00    -0.174 OA 
BRANCH  26  27
HETATM   27  C   UNL     1      -9.573   9.168  66.772  1.00  0.00    -0.195 C  
HETATM   28  C   UNL     1      -9.923   7.663  66.896  1.00  0.00    -0.255 C  
HETATM   29  F   UNL     1      -9.976   7.006  65.717  1.00  0.00     0.107 F  
HETATM   30  F   UNL     1     -11.156   7.538  67.469  1.00  0.00    -0.273 F  
HETATM   31  F   UNL     1      -9.080   6.977  67.705  1.00  0.00    -0.127 F  
BRANCH  27  32
HETATM   32  C   UNL     1      -8.605   9.653  67.895  1.00  0.00    -0.122 A  
HETATM   33  C   UNL     1      -7.234   9.350  67.714  1.00  0.00    -0.083 A  
HETATM   34  C   UNL     1      -6.287   9.596  68.713  1.00  0.00    -0.046 A  
HETATM   35  C   UNL     1      -6.689  10.134  69.925  1.00  0.00    -0.110 A  
HETATM   36  C   UNL     1      -8.012  10.537  70.110  1.00  0.00     0.411 A  
HETATM   37 CL   UNL     1      -5.552  10.314  71.205  1.00  0.00    -0.082 Cl 
HETATM   38  C   UNL     1      -8.962  10.358  69.083  1.00  0.00    -0.179 A  
BRANCH  38  39
HETATM   39  N   UNL     1     -10.255  10.929  69.266  1.00  0.00    -0.201 NA 
HETATM   40  C   UNL     1     -10.831  12.027  68.652  1.00  0.00    -0.237 A  
HETATM   41  C   UNL     1     -12.001  12.286  69.331  1.00  0.00    -0.318 A  
HETATM   42  C   UNL     1     -12.093  11.252  70.272  1.00  0.00    -0.373 A  
HETATM   43  N   UNL     1     -11.132  10.356  70.103  1.00  0.00    -0.300 NA 
HETATM   44  C   UNL     1     -13.053  11.056  71.387  1.00  0.00    -0.441 C  
ENDBRANCH  38  39
ENDBRANCH  27  32
ENDBRANCH  26  27
ENDBRANCH  23  26
ENDBRANCH  14  17
ENDBRANCH  10  11
ENDBRANCH   6  10
ENDBRANCH   4   6
ENDBRANCH   3   4
ENDBRANCH   2   3
TORSDOF 10
ENDMDL
MODEL      135
REMARK 921   NORMALIZED FREE ENERGY PREDICTED BY IDOCK:   -5.01 KCAL/MOL
REMARK 922        TOTAL FREE ENERGY PREDICTED BY IDOCK:  -10.27 KCAL/MOL
REMARK 923 INTER-LIGAND FREE ENERGY PREDICTED BY IDOCK:   -8.48 KCAL/MOL
REMARK 924 INTRA-LIGAND FREE ENERGY PREDICTED BY IDOCK:   -1.79 KCAL/MOL
REMARK 927      BINDING AFFINITY PREDICTED BY RF-SCORE:    0.00 PKD
ROOT
HETATM    1  C   UNL     1      -9.570  19.237  68.550  1.00  0.00    -0.465 C  
HETATM    2  C   UNL     1      -8.483  18.445  67.844  1.00  0.00    -0.261 C  
ENDROOT
BRANCH   2   3
HETATM    3  O   UNL     1      -8.932  18.182  66.510  1.00  0.00    -0.276 OA 
BRANCH   3   4
HETATM    4  C   UNL     1      -9.112  16.857  66.219  1.00  0.00    -0.267 C  
HETATM    5  O   UNL     1      -8.260  15.988  66.338  1.00  0.00    -0.291 OA 
BRANCH   4   6
HETATM    6  C   UNL     1     -10.560  16.647  65.756  1.00  0.00    -0.268 C  
HETATM    7  N   UNL     1     -10.980  17.812  64.942  1.00  0.00    -0.691 NA 
HETATM    8  H2  UNL     1     -10.345  17.991  64.163  1.00  0.00     0.000 HD 
HETATM    9  H1  UNL     1     -11.942  17.672  64.634  1.00  0.00     0.000 HD 
BRANCH   6  10
HETATM   10  C   UNL     1     -10.699  15.321  64.977  1.00  0.00    -0.461 C  
BRANCH  10  11
HETATM   11  C   UNL     1     -10.867  14.051  65.801  1.00  0.00    -0.291 A  
HETATM   12  C   UNL     1     -11.549  14.007  67.020  1.00  0.00    -0.394 A  
HETATM   13  C   UNL     1     -11.651  12.799  67.753  1.00  0.00    -0.405 A  
HETATM   14  C   UNL     1     -11.073  11.589  67.309  1.00  0.00    -0.351 A  
HETATM   15  C   UNL     1     -10.463  11.647  66.043  1.00  0.00    -0.294 A  
HETATM   16  C   UNL     1     -10.356  12.845  65.313  1.00  0.00    -0.315 A  
BRANCH  14  17
HETATM   17  C   UNL     1     -11.019  10.358  68.173  1.00  0.00    -0.281 A  
HETATM   18  N   UNL     1     -11.315  10.520  69.484  1.00  0.00    -0.260 NA 
HETATM   19  C   UNL     1     -11.102   9.486  70.310  1.00  0.00    -0.271 A  
HETATM   20  N   UNL     1     -10.550   8.315  69.973  1.00  0.00    -0.233 NA 
HETATM   21  N   UNL     1     -11.396   9.671  71.646  1.00  0.00    -0.347 NA 
HETATM   22  H1  UNL     1     -11.234   8.885  72.275  1.00  0.00     0.000 HD 
HETATM   23  C   UNL     1     -10.284   8.166  68.673  1.00  0.00    -0.207 A  
HETATM   24  H2  UNL     1     -11.761  10.559  71.991  1.00  0.00     0.000 HD 
HETATM   25  C   UNL     1     -10.545   9.135  67.724  1.00  0.00    -0.289 A  
BRANCH  23  26
HETATM   26  O   UNL     1      -9.578   7.062  68.232  1.00  0.00    -0.134 OA 
BRANCH  26  27
HETATM   27  C   UNL     1      -8.403   7.296  67.416  1.00  0.00    -0.119 C  
HETATM   28  C   UNL     1      -7.098   7.647  68.174  1.00  0.00    -0.081 C  
HETATM   29  F   UNL     1      -7.271   7.913  69.487  1.00  0.00    -0.071 F  
HETATM   30  F   UNL     1      -6.547   8.766  67.618  1.00  0.00    -0.057 F  
HETATM   31  F   UNL     1      -6.142   6.690  68.077  1.00  0.00    -0.023 F  
BRANCH  27  32
HETATM   32  C   UNL     1      -8.206   6.141  66.385  1.00  0.00    -0.113 A  
HETATM   33  C   UNL     1      -8.136   6.522  65.024  1.00  0.00    -0.127 A  
HETATM   34  C   UNL     1      -8.110   5.576  63.995  1.00  0.00    -0.123 A  
HETATM   35  C   UNL     1      -8.173   4.225  64.300  1.00  0.00    -0.098 A  
HETATM   36  C   UNL     1      -8.145   3.804  65.630  1.00  0.00    -0.093 A  
HETATM   37 CL   UNL     1      -8.277   3.062  63.036  1.00  0.00    -0.073 Cl 
HETATM   38  C   UNL     1      -8.100   4.748  66.676  1.00  0.00    -0.107 A  
BRANCH  38  39
HETATM   39  N   UNL     1      -7.913   4.263  68.004  1.00  0.00    -0.086 NA 
HETATM   40  C   UNL     1      -8.853   3.941  68.967  1.00  0.00    -0.102 A  
HETATM   41  C   UNL     1      -8.157   3.729  70.137  1.00  0.00    -0.054 A  
HETATM   42  C   UNL     1      -6.811   3.858  69.768  1.00  0.00    -0.041 A  
HETATM   43  N   UNL     1      -6.679   4.005  68.459  1.00  0.00    -0.045 NA 
HETATM   44  C   UNL     1      -5.587   3.878  70.609  1.00  0.00    -0.013 C  
ENDBRANCH  38  39
ENDBRANCH  27  32
ENDBRANCH  26  27
ENDBRANCH  23  26
ENDBRANCH  14  17
ENDBRANCH  10  11
ENDBRANCH   6  10
ENDBRANCH   4   6
ENDBRANCH   3   4
ENDBRANCH   2   3
TORSDOF 10
ENDMDL
MODEL      136
REMARK 921   NORMALIZED FREE ENERGY PREDICTED BY IDOCK:   -4.93 KCAL/MOL
REMARK 922        TOTAL FREE ENERGY PREDICTED BY IDOCK:  -10.15 KCAL/MOL
REMARK 923 INTER-LIGAND FREE ENERGY PREDICTED BY IDOCK:   -9.73 KCAL/MOL
REMARK 924 INTRA-LIGAND FREE ENERGY PREDICTED BY IDOCK:   -0.42 KCAL/MOL
REMARK 927      BINDING AFFINITY PREDICTED BY RF-SCORE:    0.00 PKD
ROOT
HETATM    1  C   UNL     1     -11.803  14.972  67.996  1.00  0.00    -0.266 C  
HETATM    2  C   UNL     1     -11.350  14.975  66.547  1.00  0.00    -0.280 C  
ENDROOT
BRANCH   2   3
HETATM    3  O   UNL     1     -12.108  13.977  65.852  1.00  0.00    -0.384 OA 
BRANCH   3   4
HETATM    4  C   UNL     1     -12.145  14.133  64.493  1.00  0.00    -0.468 C  
HETATM    5  O   UNL     1     -12.718  15.040  63.903  1.00  0.00    -0.775 OA 
BRANCH   4   6
HETATM    6  C   UNL     1     -11.324  13.010  63.846  1.00  0.00    -0.410 C  
HETATM    7  N   UNL     1      -9.882  13.305  64.017  1.00  0.00    -0.686 NA 
HETATM    8  H2  UNL     1      -9.630  13.458  64.994  1.00  0.00     0.000 HD 
HETATM    9  H1  UNL     1      -9.337  12.558  63.587  1.00  0.00     0.000 HD 
BRANCH   6  10
HETATM   10  C   UNL     1     -11.705  11.639  64.446  1.00  0.00    -0.226 C  
BRANCH  10  11
HETATM   11  C   UNL     1     -10.849  11.128  65.599  1.00  0.00    -0.206 A  
HETATM   12  C   UNL     1      -9.693  10.363  65.421  1.00  0.00    -0.325 A  
HETATM   13  C   UNL     1      -8.952   9.896  66.534  1.00  0.00    -0.166 A  
HETATM   14  C   UNL     1      -9.333  10.163  67.868  1.00  0.00    -0.151 A  
HETATM   15  C   UNL     1     -10.453  11.002  68.012  1.00  0.00    -0.219 A  
HETATM   16  C   UNL     1     -11.195  11.465  66.911  1.00  0.00    -0.331 A  
BRANCH  14  17
HETATM   17  C   UNL     1      -8.657   9.513  69.044  1.00  0.00    -0.133 A  
HETATM   18  N   UNL     1      -7.707  10.239  69.679  1.00  0.00    -0.157 NA 
HETATM   19  C   UNL     1      -6.964   9.627  70.611  1.00  0.00    -0.110 A  
HETATM   20  N   UNL     1      -7.022   8.329  70.931  1.00  0.00    -0.042 NA 
HETATM   21  N   UNL     1      -5.991  10.377  71.241  1.00  0.00    -0.324 NA 
HETATM   22  H1  UNL     1      -5.426   9.911  71.950  1.00  0.00     0.000 HD 
HETATM   23  C   UNL     1      -7.977   7.634  70.309  1.00  0.00    -0.101 A  
HETATM   24  H2  UNL     1      -5.844  11.359  71.006  1.00  0.00     0.000 HD 
HETATM   25  C   UNL     1      -8.854   8.187  69.396  1.00  0.00    -0.143 A  
BRANCH  23  26
HETATM   26  O   UNL     1      -8.035   6.258  70.446  1.00  0.00    -0.107 OA 
BRANCH  26  27
HETATM   27  C   UNL     1      -9.301   5.608  70.175  1.00  0.00    -0.154 C  
HETATM   28  C   UNL     1      -9.334   4.068  70.347  1.00  0.00    -0.160 C  
HETATM   29  F   UNL     1      -8.118   3.500  70.506  1.00  0.00    -0.051 F  
HETATM   30  F   UNL     1      -9.882   3.507  69.229  1.00  0.00    -0.245 F  
HETATM   31  F   UNL     1     -10.113   3.654  71.375  1.00  0.00    -0.249 F  
BRANCH  27  32
HETATM   32  C   UNL     1     -10.462   6.320  70.936  1.00  0.00    -0.274 A  
HETATM   33  C   UNL     1     -11.644   6.558  70.193  1.00  0.00    -0.466 A  
HETATM   34  C   UNL     1     -12.698   7.316  70.710  1.00  0.00    -0.106 A  
HETATM   35  C   UNL     1     -12.591   7.873  71.975  1.00  0.00    -0.296 A  
HETATM   36  C   UNL     1     -11.487   7.583  72.778  1.00  0.00    -0.352 A  
HETATM   37 CL   UNL     1     -13.826   8.917  72.563  1.00  0.00    -0.494 Cl 
HETATM   38  C   UNL     1     -10.449   6.761  72.293  1.00  0.00    -0.208 A  
BRANCH  38  39
HETATM   39  N   UNL     1      -9.426   6.371  73.206  1.00  0.00    -0.138 NA 
HETATM   40  C   UNL     1      -8.452   7.136  73.821  1.00  0.00    -0.147 A  
HETATM   41  C   UNL     1      -7.590   6.253  74.434  1.00  0.00    -0.092 A  
HETATM   42  C   UNL     1      -8.165   4.995  74.211  1.00  0.00    -0.099 A  
HETATM   43  N   UNL     1      -9.349   5.100  73.627  1.00  0.00    -0.132 NA 
HETATM   44  C   UNL     1      -7.639   3.638  74.502  1.00  0.00    -0.062 C  
ENDBRANCH  38  39
ENDBRANCH  27  32
ENDBRANCH  26  27
ENDBRANCH  23  26
ENDBRANCH  14  17
ENDBRANCH  10  11
ENDBRANCH   6  10
ENDBRANCH   4   6
ENDBRANCH   3   4
ENDBRANCH   2   3
TORSDOF 10
ENDMDL
MODEL      137
REMARK 921   NORMALIZED FREE ENERGY PREDICTED BY IDOCK:   -4.91 KCAL/MOL
REMARK 922        TOTAL FREE ENERGY PREDICTED BY IDOCK:  -10.12 KCAL/MOL
REMARK 923 INTER-LIGAND FREE ENERGY PREDICTED BY IDOCK:   -8.81 KCAL/MOL
REMARK 924 INTRA-LIGAND FREE ENERGY PREDICTED BY IDOCK:   -1.32 KCAL/MOL
REMARK 927      BINDING AFFINITY PREDICTED BY RF-SCORE:    0.00 PKD
ROOT
HETATM    1  C   UNL     1     -12.091  17.166  74.451  1.00  0.00    -0.002 C  
HETATM    2  C   UNL     1     -12.766  15.841  74.146  1.00  0.00    -0.533 C  
ENDROOT
BRANCH   2   3
HETATM    3  O   UNL     1     -11.834  15.034  73.416  1.00  0.00    -0.352 OA 
BRANCH   3   4
HETATM    4  C   UNL     1     -11.952  15.115  72.055  1.00  0.00    -0.403 C  
HETATM    5  O   UNL     1     -11.668  16.096  71.381  1.00  0.00    -0.443 OA 
BRANCH   4   6
HETATM    6  C   UNL     1     -12.461  13.768  71.524  1.00  0.00    -0.274 C  
HETATM    7  N   UNL     1     -13.582  13.306  72.376  1.00  0.00    -0.598 NA 
HETATM    8  H2  UNL     1     -14.326  14.001  72.450  1.00  0.00     0.000 HD 
HETATM    9  H1  UNL     1     -13.920  12.411  72.022  1.00  0.00     0.000 HD 
BRANCH   6  10
HETATM   10  C   UNL     1     -12.876  13.887  70.042  1.00  0.00     0.045 C  
BRANCH  10  11
HETATM   11  C   UNL     1     -12.017  13.149  69.023  1.00  0.00    -0.329 A  
HETATM   12  C   UNL     1     -11.439  13.765  67.909  1.00  0.00    -0.347 A  
HETATM   13  C   UNL     1     -10.670  13.020  66.982  1.00  0.00    -0.270 A  
HETATM   14  C   UNL     1     -10.450  11.632  67.120  1.00  0.00    -0.252 A  
HETATM   15  C   UNL     1     -10.975  11.056  68.291  1.00  0.00    -0.287 A  
HETATM   16  C   UNL     1     -11.744  11.791  69.212  1.00  0.00    -0.398 A  
BRANCH  14  17
HETATM   17  C   UNL     1      -9.795  10.810  66.042  1.00  0.00    -0.235 A  
HETATM   18  N   UNL     1     -10.159  11.078  64.766  1.00  0.00    -0.283 NA 
HETATM   19  C   UNL     1      -9.734  10.249  63.803  1.00  0.00    -0.235 A  
HETATM   20  N   UNL     1      -9.033   9.124  63.990  1.00  0.00    -0.083 NA 
HETATM   21  N   UNL     1     -10.123  10.527  62.509  1.00  0.00    -0.752 NA 
HETATM   22  H1  UNL     1      -9.800   9.897  61.776  1.00  0.00     0.000 HD 
HETATM   23  C   UNL     1      -8.667   8.888  65.252  1.00  0.00    -0.186 A  
HETATM   24  H2  UNL     1     -10.711  11.333  62.293  1.00  0.00     0.000 HD 
HETATM   25  C   UNL     1      -8.977   9.723  66.308  1.00  0.00    -0.180 A  
BRANCH  23  26
HETATM   26  O   UNL     1      -8.072   7.684  65.587  1.00  0.00    -0.112 OA 
BRANCH  26  27
HETATM   27  C   UNL     1      -7.508   6.891  64.514  1.00  0.00    -0.099 C  
HETATM   28  C   UNL     1      -5.981   6.634  64.577  1.00  0.00    -0.035 C  
HETATM   29  F   UNL     1      -5.330   7.374  65.502  1.00  0.00    -0.026 F  
HETATM   30  F   UNL     1      -5.426   6.946  63.369  1.00  0.00    -0.028 F  
HETATM   31  F   UNL     1      -5.658   5.336  64.796  1.00  0.00    -0.015 F  
BRANCH  27  32
HETATM   32  C   UNL     1      -8.327   5.579  64.307  1.00  0.00    -0.107 A  
HETATM   33  C   UNL     1      -8.245   4.985  63.024  1.00  0.00    -0.106 A  
HETATM   34  C   UNL     1      -9.043   3.896  62.664  1.00  0.00    -0.102 A  
HETATM   35  C   UNL     1      -9.959   3.384  63.571  1.00  0.00    -0.164 A  
HETATM   36  C   UNL     1     -10.004   3.876  64.876  1.00  0.00    -0.198 A  
HETATM   37 CL   UNL     1     -11.037   2.132  63.089  1.00  0.00    -0.254 Cl 
HETATM   38  C   UNL     1      -9.153   4.929  65.271  1.00  0.00    -0.153 A  
BRANCH  38  39
HETATM   39  N   UNL     1      -9.130   5.284  66.652  1.00  0.00    -0.119 NA 
HETATM   40  C   UNL     1      -8.209   4.962  67.632  1.00  0.00    -0.105 A  
HETATM   41  C   UNL     1      -8.755   5.366  68.830  1.00  0.00    -0.099 A  
HETATM   42  C   UNL     1      -9.955   5.993  68.471  1.00  0.00    -0.142 A  
HETATM   43  N   UNL     1     -10.078   6.088  67.156  1.00  0.00    -0.153 NA 
HETATM   44  C   UNL     1     -11.055   6.511  69.322  1.00  0.00    -0.393 C  
ENDBRANCH  38  39
ENDBRANCH  27  32
ENDBRANCH  26  27
ENDBRANCH  23  26
ENDBRANCH  14  17
ENDBRANCH  10  11
ENDBRANCH   6  10
ENDBRANCH   4   6
ENDBRANCH   3   4
ENDBRANCH   2   3
TORSDOF 10
ENDMDL
MODEL      138
REMARK 921   NORMALIZED FREE ENERGY PREDICTED BY IDOCK:   -4.90 KCAL/MOL
REMARK 922        TOTAL FREE ENERGY PREDICTED BY IDOCK:  -10.10 KCAL/MOL
REMARK 923 INTER-LIGAND FREE ENERGY PREDICTED BY IDOCK:   -9.24 KCAL/MOL
REMARK 924 INTRA-LIGAND FREE ENERGY PREDICTED BY IDOCK:   -0.86 KCAL/MOL
REMARK 927      BINDING AFFINITY PREDICTED BY RF-SCORE:    0.00 PKD
ROOT
HETATM    1  C   UNL     1      -5.311  18.571  70.257  1.00  0.00    -0.236 C  
HETATM    2  C   UNL     1      -6.099  19.850  70.474  1.00  0.00    -0.296 C  
ENDROOT
BRANCH   2   3
HETATM    3  O   UNL     1      -6.486  20.347  69.187  1.00  0.00    -0.297 OA 
BRANCH   3   4
HETATM    4  C   UNL     1      -7.512  19.661  68.596  1.00  0.00    -0.333 C  
HETATM    5  O   UNL     1      -8.476  19.190  69.184  1.00  0.00    -0.248 OA 
BRANCH   4   6
HETATM    6  C   UNL     1      -7.266  19.617  67.082  1.00  0.00    -0.214 C  
HETATM    7  N   UNL     1      -6.442  20.785  66.693  1.00  0.00    -0.252 NA 
HETATM    8  H2  UNL     1      -5.574  20.844  67.226  1.00  0.00     0.000 HD 
HETATM    9  H1  UNL     1      -6.279  20.755  65.686  1.00  0.00     0.000 HD 
BRANCH   6  10
HETATM   10  C   UNL     1      -6.602  18.283  66.675  1.00  0.00    -0.224 C  
BRANCH  10  11
HETATM   11  C   UNL     1      -7.489  17.045  66.665  1.00  0.00    -0.300 A  
HETATM   12  C   UNL     1      -7.065  15.788  67.108  1.00  0.00    -0.225 A  
HETATM   13  C   UNL     1      -7.929  14.667  67.051  1.00  0.00    -0.106 A  
HETATM   14  C   UNL     1      -9.245  14.747  66.544  1.00  0.00    -0.304 A  
HETATM   15  C   UNL     1      -9.669  16.038  66.181  1.00  0.00    -0.353 A  
HETATM   16  C   UNL     1      -8.813  17.154  66.231  1.00  0.00    -0.266 A  
BRANCH  14  17
HETATM   17  C   UNL     1     -10.092  13.526  66.309  1.00  0.00    -0.298 A  
HETATM   18  N   UNL     1     -11.241  13.705  65.615  1.00  0.00    -0.296 NA 
HETATM   19  C   UNL     1     -12.101  12.680  65.544  1.00  0.00    -0.458 A  
HETATM   20  N   UNL     1     -11.967  11.501  66.162  1.00  0.00    -0.112 NA 
HETATM   21  N   UNL     1     -13.273  12.882  64.845  1.00  0.00    -0.728 NA 
HETATM   22  H1  UNL     1     -13.928  12.103  64.791  1.00  0.00     0.000 HD 
HETATM   23  C   UNL     1     -10.819  11.335  66.825  1.00  0.00    -0.282 A  
HETATM   24  H2  UNL     1     -13.477  13.777  64.398  1.00  0.00     0.000 HD 
HETATM   25  C   UNL     1      -9.827  12.295  66.888  1.00  0.00    -0.216 A  
BRANCH  23  26
HETATM   26  O   UNL     1     -10.634  10.220  67.624  1.00  0.00    -0.223 OA 
BRANCH  26  27
HETATM   27  C   UNL     1      -9.303   9.651  67.686  1.00  0.00    -0.126 C  
HETATM   28  C   UNL     1      -8.383  10.174  68.817  1.00  0.00    -0.122 C  
HETATM   29  F   UNL     1      -8.859  11.261  69.464  1.00  0.00     0.051 F  
HETATM   30  F   UNL     1      -7.180  10.536  68.282  1.00  0.00    -0.077 F  
HETATM   31  F   UNL     1      -8.093   9.239  69.755  1.00  0.00    -0.085 F  
BRANCH  27  32
HETATM   32  C   UNL     1      -9.366   8.093  67.637  1.00  0.00    -0.160 A  
HETATM   33  C   UNL     1      -8.699   7.472  66.553  1.00  0.00    -0.151 A  
HETATM   34  C   UNL     1      -8.804   6.100  66.312  1.00  0.00    -0.150 A  
HETATM   35  C   UNL     1      -9.593   5.314  67.138  1.00  0.00    -0.141 A  
HETATM   36  C   UNL     1     -10.188   5.865  68.272  1.00  0.00    -0.226 A  
HETATM   37 CL   UNL     1      -9.833   3.650  66.768  1.00  0.00    -0.095 Cl 
HETATM   38  C   UNL     1     -10.031   7.237  68.564  1.00  0.00    -0.162 A  
BRANCH  38  39
HETATM   39  N   UNL     1     -10.526   7.712  69.814  1.00  0.00    -0.227 NA 
HETATM   40  C   UNL     1     -10.227   7.296  71.099  1.00  0.00    -0.190 A  
HETATM   41  C   UNL     1     -11.126   7.924  71.933  1.00  0.00    -0.317 A  
HETATM   42  C   UNL     1     -11.864   8.759  71.083  1.00  0.00    -0.295 A  
HETATM   43  N   UNL     1     -11.378   8.748  69.851  1.00  0.00    -0.050 NA 
HETATM   44  C   UNL     1     -13.067   9.583  71.360  1.00  0.00    -0.449 C  
ENDBRANCH  38  39
ENDBRANCH  27  32
ENDBRANCH  26  27
ENDBRANCH  23  26
ENDBRANCH  14  17
ENDBRANCH  10  11
ENDBRANCH   6  10
ENDBRANCH   4   6
ENDBRANCH   3   4
ENDBRANCH   2   3
TORSDOF 10
ENDMDL
MODEL      139
REMARK 921   NORMALIZED FREE ENERGY PREDICTED BY IDOCK:   -4.89 KCAL/MOL
REMARK 922        TOTAL FREE ENERGY PREDICTED BY IDOCK:  -10.09 KCAL/MOL
REMARK 923 INTER-LIGAND FREE ENERGY PREDICTED BY IDOCK:   -8.75 KCAL/MOL
REMARK 924 INTRA-LIGAND FREE ENERGY PREDICTED BY IDOCK:   -1.34 KCAL/MOL
REMARK 927      BINDING AFFINITY PREDICTED BY RF-SCORE:    0.00 PKD
ROOT
HETATM    1  C   UNL     1     -10.437  18.498  66.004  1.00  0.00    -0.433 C  
HETATM    2  C   UNL     1     -10.280  17.027  66.344  1.00  0.00    -0.326 C  
ENDROOT
BRANCH   2   3
HETATM    3  O   UNL     1     -10.069  16.316  65.118  1.00  0.00    -0.518 OA 
BRANCH   3   4
HETATM    4  C   UNL     1     -11.189  15.720  64.604  1.00  0.00    -0.363 C  
HETATM    5  O   UNL     1     -11.828  16.130  63.644  1.00  0.00    -0.783 OA 
BRANCH   4   6
HETATM    6  C   UNL     1     -11.482  14.447  65.408  1.00  0.00    -0.344 C  
HETATM    7  N   UNL     1     -12.887  14.039  65.171  1.00  0.00    -0.745 NA 
HETATM    8  H2  UNL     1     -13.098  13.930  64.179  1.00  0.00     0.000 HD 
HETATM    9  H1  UNL     1     -13.081  13.193  65.706  1.00  0.00     0.000 HD 
BRANCH   6  10
HETATM   10  C   UNL     1     -10.488  13.325  65.036  1.00  0.00    -0.367 C  
BRANCH  10  11
HETATM   11  C   UNL     1      -9.914  12.503  66.184  1.00  0.00    -0.267 A  
HETATM   12  C   UNL     1     -10.334  11.206  66.490  1.00  0.00    -0.290 A  
HETATM   13  C   UNL     1      -9.779  10.501  67.587  1.00  0.00    -0.187 A  
HETATM   14  C   UNL     1      -8.791  11.059  68.427  1.00  0.00    -0.151 A  
HETATM   15  C   UNL     1      -8.331  12.333  68.046  1.00  0.00    -0.165 A  
HETATM   16  C   UNL     1      -8.882  13.039  66.961  1.00  0.00    -0.213 A  
BRANCH  14  17
HETATM   17  C   UNL     1      -8.340  10.388  69.696  1.00  0.00    -0.068 A  
HETATM   18  N   UNL     1      -7.142  10.771  70.196  1.00  0.00    -0.180 NA 
HETATM   19  C   UNL     1      -6.632  10.069  71.218  1.00  0.00     0.329 A  
HETATM   20  N   UNL     1      -7.166   8.966  71.754  1.00  0.00    -0.285 NA 
HETATM   21  N   UNL     1      -5.404  10.464  71.708  1.00  0.00    -0.272 NA 
HETATM   22  H1  UNL     1      -5.016   9.930  72.485  1.00  0.00     0.000 HD 
HETATM   23  C   UNL     1      -8.357   8.615  71.262  1.00  0.00    -0.168 A  
HETATM   24  H2  UNL     1      -4.904  11.259  71.309  1.00  0.00     0.000 HD 
HETATM   25  C   UNL     1      -9.011   9.319  70.269  1.00  0.00    -0.261 A  
BRANCH  23  26
HETATM   26  O   UNL     1      -8.933   7.413  71.632  1.00  0.00    -0.124 OA 
BRANCH  26  27
HETATM   27  C   UNL     1      -8.087   6.433  72.282  1.00  0.00    -0.107 C  
HETATM   28  C   UNL     1      -8.362   6.174  73.784  1.00  0.00    -0.113 C  
HETATM   29  F   UNL     1      -9.207   7.060  74.356  1.00  0.00    -0.209 F  
HETATM   30  F   UNL     1      -7.186   6.257  74.474  1.00  0.00    -0.091 F  
HETATM   31  F   UNL     1      -8.842   4.933  74.041  1.00  0.00    -0.113 F  
BRANCH  27  32
HETATM   32  C   UNL     1      -8.026   5.115  71.448  1.00  0.00    -0.112 A  
HETATM   33  C   UNL     1      -7.010   4.196  71.803  1.00  0.00    -0.037 A  
HETATM   34  C   UNL     1      -6.755   3.051  71.043  1.00  0.00    -0.032 A  
HETATM   35  C   UNL     1      -7.496   2.805  69.898  1.00  0.00    -0.044 A  
HETATM   36  C   UNL     1      -8.570   3.631  69.566  1.00  0.00    -0.109 A  
HETATM   37 CL   UNL     1      -7.099   1.471  68.886  1.00  0.00    -0.036 Cl 
HETATM   38  C   UNL     1      -8.881   4.752  70.365  1.00  0.00    -0.103 A  
BRANCH  38  39
HETATM   39  N   UNL     1     -10.078   5.467  70.071  1.00  0.00    -0.219 NA 
HETATM   40  C   UNL     1     -10.496   6.040  68.883  1.00  0.00    -0.248 A  
HETATM   41  C   UNL     1     -11.612   6.790  69.182  1.00  0.00    -0.016 A  
HETATM   42  C   UNL     1     -11.843   6.543  70.542  1.00  0.00    -0.328 A  
HETATM   43  N   UNL     1     -11.022   5.617  71.013  1.00  0.00    -0.221 NA 
HETATM   44  C   UNL     1     -12.813   7.167  71.477  1.00  0.00    -0.434 C  
ENDBRANCH  38  39
ENDBRANCH  27  32
ENDBRANCH  26  27
ENDBRANCH  23  26
ENDBRANCH  14  17
ENDBRANCH  10  11
ENDBRANCH   6  10
ENDBRANCH   4   6
ENDBRANCH   3   4
ENDBRANCH   2   3
TORSDOF 10
ENDMDL
MODEL      140
REMARK 921   NORMALIZED FREE ENERGY PREDICTED BY IDOCK:   -4.87 KCAL/MOL
REMARK 922        TOTAL FREE ENERGY PREDICTED BY IDOCK:  -10.06 KCAL/MOL
REMARK 923 INTER-LIGAND FREE ENERGY PREDICTED BY IDOCK:   -8.55 KCAL/MOL
REMARK 924 INTRA-LIGAND FREE ENERGY PREDICTED BY IDOCK:   -1.51 KCAL/MOL
REMARK 927      BINDING AFFINITY PREDICTED BY RF-SCORE:    0.00 PKD
ROOT
HETATM    1  C   UNL     1     -11.268   8.382  70.178  1.00  0.00    -0.136 C  
HETATM    2  C   UNL     1     -11.697   6.985  70.588  1.00  0.00    -0.338 C  
ENDROOT
BRANCH   2   3
HETATM    3  O   UNL     1     -11.072   6.057  69.693  1.00  0.00    -0.369 OA 
BRANCH   3   4
HETATM    4  C   UNL     1     -10.011   5.377  70.227  1.00  0.00    -0.230 C  
HETATM    5  O   UNL     1      -9.744   5.310  71.419  1.00  0.00    -0.153 OA 
BRANCH   4   6
HETATM    6  C   UNL     1      -9.243   4.692  69.088  1.00  0.00    -0.128 C  
HETATM    7  N   UNL     1     -10.095   4.670  67.876  1.00  0.00    -0.073 NA 
HETATM    8  H2  UNL     1     -10.427   5.599  67.617  1.00  0.00     0.000 HD 
HETATM    9  H1  UNL     1      -9.584   4.214  67.120  1.00  0.00     0.000 HD 
BRANCH   6  10
HETATM   10  C   UNL     1      -7.897   5.404  68.831  1.00  0.00    -0.083 C  
BRANCH  10  11
HETATM   11  C   UNL     1      -7.921   6.927  68.776  1.00  0.00    -0.120 A  
HETATM   12  C   UNL     1      -8.477   7.652  67.718  1.00  0.00    -0.122 A  
HETATM   13  C   UNL     1      -8.447   9.069  67.712  1.00  0.00    -0.117 A  
HETATM   14  C   UNL     1      -7.857   9.821  68.752  1.00  0.00    -0.082 A  
HETATM   15  C   UNL     1      -7.378   9.066  69.838  1.00  0.00    -0.060 A  
HETATM   16  C   UNL     1      -7.401   7.660  69.847  1.00  0.00    -0.081 A  
BRANCH  14  17
HETATM   17  C   UNL     1      -7.658  11.309  68.656  1.00  0.00    -0.129 A  
HETATM   18  N   UNL     1      -6.493  11.801  69.139  1.00  0.00    -0.088 NA 
HETATM   19  C   UNL     1      -6.362  13.131  69.233  1.00  0.00    -0.106 A  
HETATM   20  N   UNL     1      -7.310  14.034  68.958  1.00  0.00    -0.110 NA 
HETATM   21  N   UNL     1      -5.174  13.617  69.740  1.00  0.00    -0.085 NA 
HETATM   22  H1  UNL     1      -5.073  14.629  69.811  1.00  0.00     0.000 HD 
HETATM   23  C   UNL     1      -8.445  13.531  68.463  1.00  0.00    -0.092 A  
HETATM   24  H2  UNL     1      -4.424  12.988  70.031  1.00  0.00     0.000 HD 
HETATM   25  C   UNL     1      -8.653  12.183  68.245  1.00  0.00    -0.175 A  
BRANCH  23  26
HETATM   26  O   UNL     1      -9.546  14.350  68.284  1.00  0.00    -0.199 OA 
BRANCH  26  27
HETATM   27  C   UNL     1      -9.691  15.010  67.003  1.00  0.00    -0.236 C  
HETATM   28  C   UNL     1     -10.713  14.386  66.019  1.00  0.00    -0.302 C  
HETATM   29  F   UNL     1     -11.173  13.172  66.391  1.00  0.00    -0.286 F  
HETATM   30  F   UNL     1     -10.115  14.220  64.802  1.00  0.00    -0.427 F  
HETATM   31  F   UNL     1     -11.791  15.175  65.785  1.00  0.00    -0.264 F  
BRANCH  27  32
HETATM   32  C   UNL     1      -9.903  16.545  67.193  1.00  0.00    -0.255 A  
HETATM   33  C   UNL     1      -9.494  17.371  66.119  1.00  0.00    -0.192 A  
HETATM   34  C   UNL     1      -9.492  18.765  66.222  1.00  0.00    -0.288 A  
HETATM   35  C   UNL     1      -9.880  19.369  67.408  1.00  0.00    -0.345 A  
HETATM   36  C   UNL     1     -10.382  18.598  68.456  1.00  0.00    -0.311 A  
HETATM   37 CL   UNL     1      -9.752  21.076  67.586  1.00  0.00    -0.351 Cl 
HETATM   38  C   UNL     1     -10.455  17.194  68.337  1.00  0.00    -0.376 A  
BRANCH  38  39
HETATM   39  N   UNL     1     -11.120  16.472  69.371  1.00  0.00    -0.293 NA 
HETATM   40  C   UNL     1     -11.960  15.376  69.284  1.00  0.00    -0.310 A  
HETATM   41  C   UNL     1     -12.501  15.198  70.539  1.00  0.00    -0.429 A  
HETATM   42  C   UNL     1     -11.869  16.166  71.330  1.00  0.00    -0.430 A  
HETATM   43  N   UNL     1     -10.923  16.801  70.656  1.00  0.00     0.075 NA 
HETATM   44  C   UNL     1     -12.126  16.568  72.736  1.00  0.00    -0.457 C  
ENDBRANCH  38  39
ENDBRANCH  27  32
ENDBRANCH  26  27
ENDBRANCH  23  26
ENDBRANCH  14  17
ENDBRANCH  10  11
ENDBRANCH   6  10
ENDBRANCH   4   6
ENDBRANCH   3   4
ENDBRANCH   2   3
TORSDOF 10
ENDMDL
MODEL      141
REMARK 921   NORMALIZED FREE ENERGY PREDICTED BY IDOCK:   -4.86 KCAL/MOL
REMARK 922        TOTAL FREE ENERGY PREDICTED BY IDOCK:  -10.04 KCAL/MOL
REMARK 923 INTER-LIGAND FREE ENERGY PREDICTED BY IDOCK:   -9.64 KCAL/MOL
REMARK 924 INTRA-LIGAND FREE ENERGY PREDICTED BY IDOCK:   -0.40 KCAL/MOL
REMARK 927      BINDING AFFINITY PREDICTED BY RF-SCORE:    0.00 PKD
ROOT
HETATM    1  C   UNL     1     -10.737   2.603  74.265  1.00  0.00    -0.204 C  
HETATM    2  C   UNL     1     -10.652   4.075  73.905  1.00  0.00    -0.222 C  
ENDROOT
BRANCH   2   3
HETATM    3  O   UNL     1     -11.766   4.381  73.058  1.00  0.00    -0.099 OA 
BRANCH   3   4
HETATM    4  C   UNL     1     -11.769   5.655  72.557  1.00  0.00    -0.197 C  
HETATM    5  O   UNL     1     -12.695   6.169  71.945  1.00  0.00    -0.094 OA 
BRANCH   4   6
HETATM    6  C   UNL     1     -10.440   6.330  72.921  1.00  0.00    -0.218 C  
HETATM    7  N   UNL     1      -9.407   5.922  71.939  1.00  0.00    -0.151 NA 
HETATM    8  H2  UNL     1      -9.688   6.112  70.977  1.00  0.00     0.000 HD 
HETATM    9  H1  UNL     1      -8.524   6.371  72.182  1.00  0.00     0.000 HD 
BRANCH   6  10
HETATM   10  C   UNL     1     -10.603   7.864  72.979  1.00  0.00    -0.406 C  
BRANCH  10  11
HETATM   11  C   UNL     1     -10.014   8.665  71.824  1.00  0.00    -0.371 A  
HETATM   12  C   UNL     1      -8.694   8.529  71.385  1.00  0.00    -0.237 A  
HETATM   13  C   UNL     1      -8.196   9.321  70.321  1.00  0.00    -0.187 A  
HETATM   14  C   UNL     1      -8.986  10.284  69.656  1.00  0.00    -0.140 A  
HETATM   15  C   UNL     1     -10.331  10.341  70.067  1.00  0.00    -0.255 A  
HETATM   16  C   UNL     1     -10.829   9.561  71.125  1.00  0.00    -0.425 A  
BRANCH  14  17
HETATM   17  C   UNL     1      -8.407  11.251  68.659  1.00  0.00    -0.146 A  
HETATM   18  N   UNL     1      -7.064  11.223  68.492  1.00  0.00    -0.076 NA 
HETATM   19  C   UNL     1      -6.501  12.187  67.751  1.00  0.00    -0.095 A  
HETATM   20  N   UNL     1      -7.138  13.231  67.209  1.00  0.00    -0.088 NA 
HETATM   21  N   UNL     1      -5.130  12.153  67.601  1.00  0.00    -0.073 NA 
HETATM   22  H1  UNL     1      -4.701  12.886  67.037  1.00  0.00     0.000 HD 
HETATM   23  C   UNL     1      -8.464  13.231  67.367  1.00  0.00    -0.206 A  
HETATM   24  H2  UNL     1      -4.566  11.422  68.037  1.00  0.00     0.000 HD 
HETATM   25  C   UNL     1      -9.154  12.240  68.038  1.00  0.00    -0.191 A  
BRANCH  23  26
HETATM   26  O   UNL     1      -9.209  14.332  66.982  1.00  0.00    -0.218 OA 
BRANCH  26  27
HETATM   27  C   UNL     1      -9.458  15.356  67.976  1.00  0.00    -0.201 C  
HETATM   28  C   UNL     1      -9.626  16.803  67.447  1.00  0.00    -0.236 C  
HETATM   29  F   UNL     1      -9.293  16.962  66.147  1.00  0.00    -0.271 F  
HETATM   30  F   UNL     1      -8.815  17.636  68.162  1.00  0.00    -0.239 F  
HETATM   31  F   UNL     1     -10.879  17.296  67.608  1.00  0.00    -0.352 F  
BRANCH  27  32
HETATM   32  C   UNL     1     -10.615  14.929  68.932  1.00  0.00    -0.247 A  
HETATM   33  C   UNL     1     -10.543  15.414  70.260  1.00  0.00    -0.299 A  
HETATM   34  C   UNL     1     -11.432  14.987  71.249  1.00  0.00    -0.359 A  
HETATM   35  C   UNL     1     -12.406  14.049  70.942  1.00  0.00    -0.372 A  
HETATM   36  C   UNL     1     -12.575  13.619  69.626  1.00  0.00     0.014 A  
HETATM   37 CL   UNL     1     -13.416  13.419  72.185  1.00  0.00    -0.598 Cl 
HETATM   38  C   UNL     1     -11.727  14.097  68.605  1.00  0.00    -0.350 A  
BRANCH  38  39
HETATM   39  N   UNL     1     -12.043  13.748  67.259  1.00  0.00    -0.385 NA 
HETATM   40  C   UNL     1     -12.147  12.500  66.671  1.00  0.00    -0.142 A  
HETATM   41  C   UNL     1     -12.260  12.715  65.315  1.00  0.00    -0.532 A  
HETATM   42  C   UNL     1     -12.303  14.110  65.187  1.00  0.00    -0.451 A  
HETATM   43  N   UNL     1     -12.346  14.704  66.369  1.00  0.00    -0.173 NA 
HETATM   44  C   UNL     1     -12.278  14.959  63.969  1.00  0.00    -0.151 C  
ENDBRANCH  38  39
ENDBRANCH  27  32
ENDBRANCH  26  27
ENDBRANCH  23  26
ENDBRANCH  14  17
ENDBRANCH  10  11
ENDBRANCH   6  10
ENDBRANCH   4   6
ENDBRANCH   3   4
ENDBRANCH   2   3
TORSDOF 10
ENDMDL
MODEL      142
REMARK 921   NORMALIZED FREE ENERGY PREDICTED BY IDOCK:   -4.86 KCAL/MOL
REMARK 922        TOTAL FREE ENERGY PREDICTED BY IDOCK:  -10.03 KCAL/MOL
REMARK 923 INTER-LIGAND FREE ENERGY PREDICTED BY IDOCK:   -8.09 KCAL/MOL
REMARK 924 INTRA-LIGAND FREE ENERGY PREDICTED BY IDOCK:   -1.95 KCAL/MOL
REMARK 927      BINDING AFFINITY PREDICTED BY RF-SCORE:    0.00 PKD
ROOT
HETATM    1  C   UNL     1      -8.560  16.341  66.328  1.00  0.00    -0.374 C  
HETATM    2  C   UNL     1      -9.923  16.877  65.930  1.00  0.00    -0.252 C  
ENDROOT
BRANCH   2   3
HETATM    3  O   UNL     1     -10.870  15.811  66.070  1.00  0.00    -0.317 OA 
BRANCH   3   4
HETATM    4  C   UNL     1     -11.389  15.350  64.891  1.00  0.00    -0.363 C  
HETATM    5  O   UNL     1     -11.538  16.020  63.877  1.00  0.00    -0.630 OA 
BRANCH   4   6
HETATM    6  C   UNL     1     -11.715  13.859  65.046  1.00  0.00    -0.359 C  
HETATM    7  N   UNL     1     -12.740  13.483  64.044  1.00  0.00    -0.642 NA 
HETATM    8  H2  UNL     1     -12.460  13.723  63.093  1.00  0.00     0.000 HD 
HETATM    9  H1  UNL     1     -12.957  12.492  64.148  1.00  0.00     0.000 HD 
BRANCH   6  10
HETATM   10  C   UNL     1     -10.438  13.002  64.911  1.00  0.00    -0.358 C  
BRANCH  10  11
HETATM   11  C   UNL     1      -9.911  12.344  66.180  1.00  0.00    -0.263 A  
HETATM   12  C   UNL     1      -8.678  12.660  66.758  1.00  0.00    -0.135 A  
HETATM   13  C   UNL     1      -8.230  11.995  67.926  1.00  0.00    -0.153 A  
HETATM   14  C   UNL     1      -8.985  10.985  68.562  1.00  0.00    -0.163 A  
HETATM   15  C   UNL     1     -10.254  10.747  68.004  1.00  0.00    -0.203 A  
HETATM   16  C   UNL     1     -10.701  11.400  66.842  1.00  0.00    -0.308 A  
BRANCH  14  17
HETATM   17  C   UNL     1      -8.430  10.152  69.686  1.00  0.00    -0.157 A  
HETATM   18  N   UNL     1      -7.088   9.974  69.707  1.00  0.00    -0.101 NA 
HETATM   19  C   UNL     1      -6.583   9.095  70.584  1.00  0.00    -0.071 A  
HETATM   20  N   UNL     1      -7.292   8.312  71.405  1.00  0.00    -0.075 NA 
HETATM   21  N   UNL     1      -5.215   8.915  70.584  1.00  0.00    -0.020 NA 
HETATM   22  H1  UNL     1      -4.830   8.247  71.251  1.00  0.00     0.000 HD 
HETATM   23  C   UNL     1      -8.612   8.517  71.384  1.00  0.00    -0.175 A  
HETATM   24  H2  UNL     1      -4.611   9.431  69.943  1.00  0.00     0.000 HD 
HETATM   25  C   UNL     1      -9.227   9.458  70.582  1.00  0.00    -0.303 A  
BRANCH  23  26
HETATM   26  O   UNL     1      -9.456   7.666  72.076  1.00  0.00    -0.147 OA 
BRANCH  26  27
HETATM   27  C   UNL     1      -9.389   6.253  71.765  1.00  0.00    -0.150 C  
HETATM   28  C   UNL     1     -10.276   5.316  72.624  1.00  0.00    -0.184 C  
HETATM   29  F   UNL     1     -10.827   5.910  73.706  1.00  0.00    -0.258 F  
HETATM   30  F   UNL     1      -9.512   4.285  73.092  1.00  0.00    -0.118 F  
HETATM   31  F   UNL     1     -11.280   4.731  71.927  1.00  0.00    -0.097 F  
BRANCH  27  32
HETATM   32  C   UNL     1      -9.574   6.014  70.234  1.00  0.00    -0.194 A  
HETATM   33  C   UNL     1     -10.745   6.556  69.652  1.00  0.00    -0.323 A  
HETATM   34  C   UNL     1     -11.102   6.287  68.328  1.00  0.00    -0.364 A  
HETATM   35  C   UNL     1     -10.306   5.455  67.556  1.00  0.00    -0.190 A  
HETATM   36  C   UNL     1      -9.094   4.980  68.057  1.00  0.00    -0.128 A  
HETATM   37 CL   UNL     1     -10.809   5.013  65.970  1.00  0.00    -0.271 Cl 
HETATM   38  C   UNL     1      -8.690   5.302  69.369  1.00  0.00    -0.100 A  
BRANCH  38  39
HETATM   39  N   UNL     1      -7.376   4.923  69.773  1.00  0.00    -0.055 NA 
HETATM   40  C   UNL     1      -6.150   5.277  69.238  1.00  0.00    -0.025 A  
HETATM   41  C   UNL     1      -5.210   4.479  69.853  1.00  0.00     0.000 A  
HETATM   42  C   UNL     1      -5.941   3.744  70.796  1.00  0.00    -0.014 A  
HETATM   43  N   UNL     1      -7.201   4.147  70.853  1.00  0.00    -0.040 NA 
HETATM   44  C   UNL     1      -5.519   2.620  71.669  1.00  0.00    -0.008 C  
ENDBRANCH  38  39
ENDBRANCH  27  32
ENDBRANCH  26  27
ENDBRANCH  23  26
ENDBRANCH  14  17
ENDBRANCH  10  11
ENDBRANCH   6  10
ENDBRANCH   4   6
ENDBRANCH   3   4
ENDBRANCH   2   3
TORSDOF 10
ENDMDL
MODEL      143
REMARK 921   NORMALIZED FREE ENERGY PREDICTED BY IDOCK:   -4.82 KCAL/MOL
REMARK 922        TOTAL FREE ENERGY PREDICTED BY IDOCK:   -9.97 KCAL/MOL
REMARK 923 INTER-LIGAND FREE ENERGY PREDICTED BY IDOCK:   -7.91 KCAL/MOL
REMARK 924 INTRA-LIGAND FREE ENERGY PREDICTED BY IDOCK:   -2.06 KCAL/MOL
REMARK 927      BINDING AFFINITY PREDICTED BY RF-SCORE:    0.00 PKD
ROOT
HETATM    1  C   UNL     1     -10.287  17.977  69.087  1.00  0.00    -0.071 C  
HETATM    2  C   UNL     1      -9.109  17.398  68.324  1.00  0.00    -0.272 C  
ENDROOT
BRANCH   2   3
HETATM    3  O   UNL     1      -9.362  17.580  66.926  1.00  0.00    -0.253 OA 
BRANCH   3   4
HETATM    4  C   UNL     1      -9.248  16.444  66.172  1.00  0.00    -0.330 C  
HETATM    5  O   UNL     1      -8.212  15.817  65.996  1.00  0.00    -0.049 OA 
BRANCH   4   6
HETATM    6  C   UNL     1     -10.632  16.077  65.621  1.00  0.00    -0.377 C  
HETATM    7  N   UNL     1     -11.064  17.125  64.666  1.00  0.00    -1.007 NA 
HETATM    8  H2  UNL     1     -10.380  17.282  63.925  1.00  0.00     0.000 HD 
HETATM    9  H1  UNL     1     -11.984  16.880  64.300  1.00  0.00     0.000 HD 
BRANCH   6  10
HETATM   10  C   UNL     1     -10.607  14.678  64.967  1.00  0.00    -0.461 C  
BRANCH  10  11
HETATM   11  C   UNL     1     -10.722  13.479  65.900  1.00  0.00    -0.279 A  
HETATM   12  C   UNL     1     -10.910  13.589  67.280  1.00  0.00    -0.285 A  
HETATM   13  C   UNL     1     -10.985  12.436  68.099  1.00  0.00    -0.263 A  
HETATM   14  C   UNL     1     -10.867  11.127  67.582  1.00  0.00    -0.295 A  
HETATM   15  C   UNL     1     -10.759  11.046  66.181  1.00  0.00    -0.257 A  
HETATM   16  C   UNL     1     -10.680  12.188  65.364  1.00  0.00    -0.323 A  
BRANCH  14  17
HETATM   17  C   UNL     1     -10.758   9.917  68.470  1.00  0.00    -0.226 A  
HETATM   18  N   UNL     1     -10.270  10.118  69.716  1.00  0.00    -0.246 NA 
HETATM   19  C   UNL     1      -9.992   9.042  70.465  1.00  0.00    -0.215 A  
HETATM   20  N   UNL     1     -10.084   7.768  70.070  1.00  0.00    -0.198 NA 
HETATM   21  N   UNL     1      -9.484   9.263  71.729  1.00  0.00    -0.251 NA 
HETATM   22  H1  UNL     1      -9.272   8.445  72.299  1.00  0.00     0.000 HD 
HETATM   23  C   UNL     1     -10.585   7.589  68.845  1.00  0.00    -0.169 A  
HETATM   24  H2  UNL     1      -9.326  10.209  72.080  1.00  0.00     0.000 HD 
HETATM   25  C   UNL     1     -10.985   8.625  68.023  1.00  0.00     0.091 A  
BRANCH  23  26
HETATM   26  O   UNL     1     -10.586   6.329  68.273  1.00  0.00    -0.201 OA 
BRANCH  26  27
HETATM   27  C   UNL     1      -9.321   5.628  68.189  1.00  0.00    -0.111 C  
HETATM   28  C   UNL     1      -9.236   4.268  68.928  1.00  0.00    -0.145 C  
HETATM   29  F   UNL     1     -10.280   4.015  69.748  1.00  0.00    -0.241 F  
HETATM   30  F   UNL     1      -8.115   4.254  69.708  1.00  0.00    -0.059 F  
HETATM   31  F   UNL     1      -9.108   3.206  68.095  1.00  0.00    -0.132 F  
BRANCH  27  32
HETATM   32  C   UNL     1      -8.837   5.535  66.708  1.00  0.00    -0.114 A  
HETATM   33  C   UNL     1      -9.438   4.529  65.914  1.00  0.00    -0.171 A  
HETATM   34  C   UNL     1      -8.991   4.245  64.621  1.00  0.00    -0.146 A  
HETATM   35  C   UNL     1      -7.918   4.948  64.094  1.00  0.00    -0.105 A  
HETATM   36  C   UNL     1      -7.360   6.012  64.803  1.00  0.00    -0.074 A  
HETATM   37 CL   UNL     1      -7.277   4.513  62.557  1.00  0.00    -0.038 Cl 
HETATM   38  C   UNL     1      -7.850   6.353  66.081  1.00  0.00    -0.102 A  
BRANCH  38  39
HETATM   39  N   UNL     1      -7.353   7.542  66.690  1.00  0.00    -0.089 NA 
HETATM   40  C   UNL     1      -6.842   7.737  67.961  1.00  0.00    -0.072 A  
HETATM   41  C   UNL     1      -6.704   9.098  68.122  1.00  0.00    -0.061 A  
HETATM   42  C   UNL     1      -7.069   9.634  66.880  1.00  0.00    -0.086 A  
HETATM   43  N   UNL     1      -7.286   8.682  65.986  1.00  0.00    -0.083 NA 
HETATM   44  C   UNL     1      -7.260  11.047  66.467  1.00  0.00    -0.143 C  
ENDBRANCH  38  39
ENDBRANCH  27  32
ENDBRANCH  26  27
ENDBRANCH  23  26
ENDBRANCH  14  17
ENDBRANCH  10  11
ENDBRANCH   6  10
ENDBRANCH   4   6
ENDBRANCH   3   4
ENDBRANCH   2   3
TORSDOF 10
ENDMDL
MODEL      144
REMARK 921   NORMALIZED FREE ENERGY PREDICTED BY IDOCK:   -4.81 KCAL/MOL
REMARK 922        TOTAL FREE ENERGY PREDICTED BY IDOCK:   -9.96 KCAL/MOL
REMARK 923 INTER-LIGAND FREE ENERGY PREDICTED BY IDOCK:   -7.39 KCAL/MOL
REMARK 924 INTRA-LIGAND FREE ENERGY PREDICTED BY IDOCK:   -2.57 KCAL/MOL
REMARK 927      BINDING AFFINITY PREDICTED BY RF-SCORE:    0.00 PKD
ROOT
HETATM    1  C   UNL     1     -10.665  19.705  66.216  1.00  0.00    -0.524 C  
HETATM    2  C   UNL     1     -10.363  18.275  66.627  1.00  0.00    -0.381 C  
ENDROOT
BRANCH   2   3
HETATM    3  O   UNL     1     -10.055  17.535  65.440  1.00  0.00    -0.526 OA 
BRANCH   3   4
HETATM    4  C   UNL     1     -10.938  16.531  65.149  1.00  0.00    -0.191 C  
HETATM    5  O   UNL     1     -11.708  16.524  64.198  1.00  0.00    -0.998 OA 
BRANCH   4   6
HETATM    6  C   UNL     1     -10.774  15.414  66.188  1.00  0.00    -0.314 C  
HETATM    7  N   UNL     1     -12.115  14.948  66.611  1.00  0.00    -0.188 NA 
HETATM    8  H2  UNL     1     -12.695  14.662  65.821  1.00  0.00     0.000 HD 
HETATM    9  H1  UNL     1     -12.006  14.205  67.302  1.00  0.00     0.000 HD 
BRANCH   6  10
HETATM   10  C   UNL     1      -9.918  14.261  65.621  1.00  0.00    -0.346 C  
BRANCH  10  11
HETATM   11  C   UNL     1      -9.331  13.277  66.626  1.00  0.00    -0.247 A  
HETATM   12  C   UNL     1      -8.416  13.642  67.618  1.00  0.00    -0.183 A  
HETATM   13  C   UNL     1      -7.886  12.677  68.510  1.00  0.00    -0.104 A  
HETATM   14  C   UNL     1      -8.237  11.310  68.446  1.00  0.00    -0.149 A  
HETATM   15  C   UNL     1      -9.219  10.989  67.491  1.00  0.00    -0.149 A  
HETATM   16  C   UNL     1      -9.745  11.942  66.601  1.00  0.00    -0.220 A  
BRANCH  14  17
HETATM   17  C   UNL     1      -7.536  10.260  69.265  1.00  0.00    -0.125 A  
HETATM   18  N   UNL     1      -6.927  10.678  70.400  1.00  0.00    -0.251 NA 
HETATM   19  C   UNL     1      -6.146   9.807  71.053  1.00  0.00    -0.069 A  
HETATM   20  N   UNL     1      -5.848   8.567  70.650  1.00  0.00    -0.031 NA 
HETATM   21  N   UNL     1      -5.522  10.252  72.201  1.00  0.00    -0.305 NA 
HETATM   22  H1  UNL     1      -4.928   9.589  72.698  1.00  0.00     0.000 HD 
HETATM   23  C   UNL     1      -6.474   8.165  69.540  1.00  0.00    -0.034 A  
HETATM   24  H2  UNL     1      -5.650  11.206  72.539  1.00  0.00     0.000 HD 
HETATM   25  C   UNL     1      -7.365   8.953  68.838  1.00  0.00    -0.075 A  
BRANCH  23  26
HETATM   26  O   UNL     1      -6.131   6.963  68.948  1.00  0.00    -0.025 OA 
BRANCH  26  27
HETATM   27  C   UNL     1      -7.175   6.232  68.259  1.00  0.00    -0.085 C  
HETATM   28  C   UNL     1      -6.797   5.621  66.885  1.00  0.00    -0.063 C  
HETATM   29  F   UNL     1      -5.608   6.042  66.398  1.00  0.00    -0.011 F  
HETATM   30  F   UNL     1      -7.742   5.974  65.965  1.00  0.00    -0.087 F  
HETATM   31  F   UNL     1      -6.780   4.266  66.881  1.00  0.00    -0.046 F  
BRANCH  27  32
HETATM   32  C   UNL     1      -7.844   5.193  69.212  1.00  0.00    -0.080 A  
HETATM   33  C   UNL     1      -7.040   4.096  69.607  1.00  0.00    -0.046 A  
HETATM   34  C   UNL     1      -7.562   3.024  70.335  1.00  0.00    -0.043 A  
HETATM   35  C   UNL     1      -8.907   3.011  70.671  1.00  0.00    -0.084 A  
HETATM   36  C   UNL     1      -9.712   4.114  70.389  1.00  0.00    -0.271 A  
HETATM   37 CL   UNL     1      -9.585   1.633  71.449  1.00  0.00    -0.193 Cl 
HETATM   38  C   UNL     1      -9.178   5.233  69.715  1.00  0.00    -0.126 A  
BRANCH  38  39
HETATM   39  N   UNL     1     -10.000   6.391  69.593  1.00  0.00    -0.161 NA 
HETATM   40  C   UNL     1     -10.783   6.811  68.532  1.00  0.00    -0.231 A  
HETATM   41  C   UNL     1     -11.200   8.088  68.836  1.00  0.00     0.409 A  
HETATM   42  C   UNL     1     -10.699   8.320  70.124  1.00  0.00    -0.239 A  
HETATM   43  N   UNL     1     -10.134   7.234  70.627  1.00  0.00    -0.194 NA 
HETATM   44  C   UNL     1     -10.694   9.561  70.938  1.00  0.00    -0.403 C  
ENDBRANCH  38  39
ENDBRANCH  27  32
ENDBRANCH  26  27
ENDBRANCH  23  26
ENDBRANCH  14  17
ENDBRANCH  10  11
ENDBRANCH   6  10
ENDBRANCH   4   6
ENDBRANCH   3   4
ENDBRANCH   2   3
TORSDOF 10
ENDMDL
MODEL      145
REMARK 921   NORMALIZED FREE ENERGY PREDICTED BY IDOCK:   -4.80 KCAL/MOL
REMARK 922        TOTAL FREE ENERGY PREDICTED BY IDOCK:   -9.94 KCAL/MOL
REMARK 923 INTER-LIGAND FREE ENERGY PREDICTED BY IDOCK:   -8.94 KCAL/MOL
REMARK 924 INTRA-LIGAND FREE ENERGY PREDICTED BY IDOCK:   -1.00 KCAL/MOL
REMARK 927      BINDING AFFINITY PREDICTED BY RF-SCORE:    0.00 PKD
ROOT
HETATM    1  C   UNL     1      -9.789  15.528  69.546  1.00  0.00    -0.284 C  
HETATM    2  C   UNL     1     -10.076  16.810  68.785  1.00  0.00    -0.286 C  
ENDROOT
BRANCH   2   3
HETATM    3  O   UNL     1     -11.071  16.517  67.797  1.00  0.00    -0.289 OA 
BRANCH   3   4
HETATM    4  C   UNL     1     -10.583  16.337  66.532  1.00  0.00    -0.256 C  
HETATM    5  O   UNL     1     -10.012  17.193  65.869  1.00  0.00    -0.478 OA 
BRANCH   4   6
HETATM    6  C   UNL     1     -10.841  14.886  66.106  1.00  0.00    -0.327 C  
HETATM    7  N   UNL     1     -11.516  14.882  64.787  1.00  0.00    -0.467 NA 
HETATM    8  H2  UNL     1     -10.996  15.407  64.083  1.00  0.00     0.000 HD 
HETATM    9  H1  UNL     1     -11.687  13.917  64.504  1.00  0.00     0.000 HD 
BRANCH   6  10
HETATM   10  C   UNL     1      -9.523  14.081  66.079  1.00  0.00    -0.164 C  
BRANCH  10  11
HETATM   11  C   UNL     1      -9.605  12.610  66.468  1.00  0.00    -0.248 A  
HETATM   12  C   UNL     1      -9.605  11.565  65.539  1.00  0.00    -0.252 A  
HETATM   13  C   UNL     1      -9.708  10.216  65.961  1.00  0.00    -0.285 A  
HETATM   14  C   UNL     1      -9.824   9.852  67.321  1.00  0.00    -0.228 A  
HETATM   15  C   UNL     1      -9.740  10.919  68.235  1.00  0.00    -0.171 A  
HETATM   16  C   UNL     1      -9.642  12.259  67.821  1.00  0.00    -0.200 A  
BRANCH  14  17
HETATM   17  C   UNL     1     -10.121   8.442  67.754  1.00  0.00    -0.207 A  
HETATM   18  N   UNL     1     -10.232   7.515  66.774  1.00  0.00    -0.269 NA 
HETATM   19  C   UNL     1     -10.672   6.294  67.109  1.00  0.00    -0.359 A  
HETATM   20  N   UNL     1     -11.087   5.917  68.324  1.00  0.00    -0.179 NA 
HETATM   21  N   UNL     1     -10.793   5.363  66.098  1.00  0.00    -0.715 NA 
HETATM   22  H1  UNL     1     -11.128   4.434  66.352  1.00  0.00     0.000 HD 
HETATM   23  C   UNL     1     -10.951   6.838  69.281  1.00  0.00    -0.259 A  
HETATM   24  H2  UNL     1     -10.556   5.595  65.132  1.00  0.00     0.000 HD 
HETATM   25  C   UNL     1     -10.428   8.098  69.061  1.00  0.00    -0.211 A  
BRANCH  23  26
HETATM   26  O   UNL     1     -11.482   6.616  70.539  1.00  0.00    -0.326 OA 
BRANCH  26  27
HETATM   27  C   UNL     1     -10.595   6.101  71.563  1.00  0.00    -0.239 C  
HETATM   28  C   UNL     1     -11.264   5.338  72.733  1.00  0.00    -0.284 C  
HETATM   29  F   UNL     1     -12.611   5.445  72.770  1.00  0.00    -0.252 F  
HETATM   30  F   UNL     1     -10.801   5.841  73.916  1.00  0.00    -0.267 F  
HETATM   31  F   UNL     1     -10.962   4.017  72.762  1.00  0.00    -0.240 F  
BRANCH  27  32
HETATM   32  C   UNL     1      -9.417   5.303  70.923  1.00  0.00    -0.216 A  
HETATM   33  C   UNL     1      -9.756   4.079  70.297  1.00  0.00    -0.263 A  
HETATM   34  C   UNL     1      -8.779   3.201  69.819  1.00  0.00    -0.129 A  
HETATM   35  C   UNL     1      -7.438   3.515  69.970  1.00  0.00    -0.044 A  
HETATM   36  C   UNL     1      -7.061   4.753  70.491  1.00  0.00    -0.048 A  
HETATM   37 CL   UNL     1      -6.231   2.379  69.505  1.00  0.00    -0.024 Cl 
HETATM   38  C   UNL     1      -8.040   5.677  70.913  1.00  0.00    -0.118 A  
BRANCH  38  39
HETATM   39  N   UNL     1      -7.606   6.982  71.289  1.00  0.00    -0.085 NA 
HETATM   40  C   UNL     1      -7.209   8.043  70.496  1.00  0.00    -0.052 A  
HETATM   41  C   UNL     1      -6.687   8.993  71.346  1.00  0.00    -0.076 A  
HETATM   42  C   UNL     1      -6.889   8.461  72.627  1.00  0.00    -0.082 A  
HETATM   43  N   UNL     1      -7.593   7.342  72.581  1.00  0.00    -0.082 NA 
HETATM   44  C   UNL     1      -6.419   8.947  73.949  1.00  0.00     0.022 C  
ENDBRANCH  38  39
ENDBRANCH  27  32
ENDBRANCH  26  27
ENDBRANCH  23  26
ENDBRANCH  14  17
ENDBRANCH  10  11
ENDBRANCH   6  10
ENDBRANCH   4   6
ENDBRANCH   3   4
ENDBRANCH   2   3
TORSDOF 10
ENDMDL
MODEL      146
REMARK 921   NORMALIZED FREE ENERGY PREDICTED BY IDOCK:   -4.78 KCAL/MOL
REMARK 922        TOTAL FREE ENERGY PREDICTED BY IDOCK:   -9.91 KCAL/MOL
REMARK 923 INTER-LIGAND FREE ENERGY PREDICTED BY IDOCK:   -8.05 KCAL/MOL
REMARK 924 INTRA-LIGAND FREE ENERGY PREDICTED BY IDOCK:   -1.86 KCAL/MOL
REMARK 927      BINDING AFFINITY PREDICTED BY RF-SCORE:    0.00 PKD
ROOT
HETATM    1  C   UNL     1      -8.499   2.517  68.977  1.00  0.00    -0.100 C  
HETATM    2  C   UNL     1      -8.089   2.083  70.373  1.00  0.00    -0.041 C  
ENDROOT
BRANCH   2   3
HETATM    3  O   UNL     1      -6.736   2.505  70.582  1.00  0.00    -0.031 OA 
BRANCH   3   4
HETATM    4  C   UNL     1      -6.607   3.732  71.174  1.00  0.00    -0.030 C  
HETATM    5  O   UNL     1      -6.174   4.737  70.626  1.00  0.00    -0.017 OA 
BRANCH   4   6
HETATM    6  C   UNL     1      -7.124   3.640  72.616  1.00  0.00    -0.045 C  
HETATM    7  N   UNL     1      -6.140   4.276  73.523  1.00  0.00    -0.022 NA 
HETATM    8  H2  UNL     1      -5.921   5.234  73.250  1.00  0.00     0.000 HD 
HETATM    9  H1  UNL     1      -6.484   4.214  74.481  1.00  0.00     0.000 HD 
BRANCH   6  10
HETATM   10  C   UNL     1      -8.521   4.288  72.739  1.00  0.00    -0.101 C  
BRANCH  10  11
HETATM   11  C   UNL     1      -8.758   5.571  71.952  1.00  0.00    -0.135 A  
HETATM   12  C   UNL     1      -9.584   5.645  70.827  1.00  0.00    -0.213 A  
HETATM   13  C   UNL     1      -9.746   6.863  70.121  1.00  0.00    -0.175 A  
HETATM   14  C   UNL     1      -9.087   8.053  70.499  1.00  0.00    -0.153 A  
HETATM   15  C   UNL     1      -8.327   7.967  71.680  1.00  0.00    -0.137 A  
HETATM   16  C   UNL     1      -8.160   6.759  72.381  1.00  0.00    -0.102 A  
BRANCH  14  17
HETATM   17  C   UNL     1      -9.110   9.292  69.645  1.00  0.00    -0.167 A  
HETATM   18  N   UNL     1      -7.912   9.844  69.340  1.00  0.00    -0.121 NA 
HETATM   19  C   UNL     1      -7.905  11.041  68.737  1.00  0.00    -0.138 A  
HETATM   20  N   UNL     1      -8.981  11.787  68.466  1.00  0.00    -0.165 NA 
HETATM   21  N   UNL     1      -6.676  11.596  68.444  1.00  0.00    -0.061 NA 
HETATM   22  H1  UNL     1      -6.670  12.507  67.985  1.00  0.00     0.000 HD 
HETATM   23  C   UNL     1     -10.154  11.218  68.755  1.00  0.00    -0.194 A  
HETATM   24  H2  UNL     1      -5.807  11.115  68.678  1.00  0.00     0.000 HD 
HETATM   25  C   UNL     1     -10.277   9.954  69.298  1.00  0.00    -0.222 A  
BRANCH  23  26
HETATM   26  O   UNL     1     -11.323  11.951  68.659  1.00  0.00    -0.228 OA 
BRANCH  26  27
HETATM   27  C   UNL     1     -11.205  13.385  68.485  1.00  0.00    -0.283 C  
HETATM   28  C   UNL     1     -11.962  13.996  67.279  1.00  0.00    -0.413 C  
HETATM   29  F   UNL     1     -12.451  13.085  66.408  1.00  0.00    -0.425 F  
HETATM   30  F   UNL     1     -11.105  14.791  66.571  1.00  0.00    -0.309 F  
HETATM   31  F   UNL     1     -12.989  14.806  67.637  1.00  0.00     0.429 F  
BRANCH  27  32
HETATM   32  C   UNL     1     -11.508  14.131  69.822  1.00  0.00    -0.309 A  
HETATM   33  C   UNL     1     -12.372  13.469  70.727  1.00  0.00    -0.440 A  
HETATM   34  C   UNL     1     -12.838  14.091  71.888  1.00  0.00    -0.421 A  
HETATM   35  C   UNL     1     -12.467  15.398  72.166  1.00  0.00    -0.373 A  
HETATM   36  C   UNL     1     -11.541  16.053  71.354  1.00  0.00    -0.520 A  
HETATM   37 CL   UNL     1     -13.144  16.214  73.522  1.00  0.00    -0.646 Cl 
HETATM   38  C   UNL     1     -11.010  15.409  70.216  1.00  0.00    -0.315 A  
BRANCH  38  39
HETATM   39  N   UNL     1      -9.954  16.061  69.515  1.00  0.00    -0.265 NA 
HETATM   40  C   UNL     1      -9.974  17.233  68.780  1.00  0.00    -0.325 A  
HETATM   41  C   UNL     1      -8.759  17.310  68.134  1.00  0.00    -0.243 A  
HETATM   42  C   UNL     1      -8.046  16.198  68.603  1.00  0.00    -0.203 A  
HETATM   43  N   UNL     1      -8.710  15.563  69.555  1.00  0.00    -0.260 NA 
HETATM   44  C   UNL     1      -6.731  15.656  68.176  1.00  0.00    -0.133 C  
ENDBRANCH  38  39
ENDBRANCH  27  32
ENDBRANCH  26  27
ENDBRANCH  23  26
ENDBRANCH  14  17
ENDBRANCH  10  11
ENDBRANCH   6  10
ENDBRANCH   4   6
ENDBRANCH   3   4
ENDBRANCH   2   3
TORSDOF 10
ENDMDL
MODEL      147
REMARK 921   NORMALIZED FREE ENERGY PREDICTED BY IDOCK:   -4.78 KCAL/MOL
REMARK 922        TOTAL FREE ENERGY PREDICTED BY IDOCK:   -9.91 KCAL/MOL
REMARK 923 INTER-LIGAND FREE ENERGY PREDICTED BY IDOCK:   -9.68 KCAL/MOL
REMARK 924 INTRA-LIGAND FREE ENERGY PREDICTED BY IDOCK:   -0.23 KCAL/MOL
REMARK 927      BINDING AFFINITY PREDICTED BY RF-SCORE:    0.00 PKD
ROOT
HETATM    1  C   UNL     1      -9.460  17.170  66.619  1.00  0.00    -0.279 C  
HETATM    2  C   UNL     1     -10.759  16.799  65.926  1.00  0.00    -0.163 C  
ENDROOT
BRANCH   2   3
HETATM    3  O   UNL     1     -10.569  15.529  65.292  1.00  0.00    -0.370 OA 
BRANCH   3   4
HETATM    4  C   UNL     1     -11.632  15.098  64.546  1.00  0.00    -0.329 C  
HETATM    5  O   UNL     1     -12.408  15.825  63.941  1.00  0.00    -0.728 OA 
BRANCH   4   6
HETATM    6  C   UNL     1     -11.661  13.564  64.570  1.00  0.00    -0.397 C  
HETATM    7  N   UNL     1     -12.517  13.081  63.461  1.00  0.00    -0.737 NA 
HETATM    8  H2  UNL     1     -12.225  13.450  62.555  1.00  0.00     0.000 HD 
HETATM    9  H1  UNL     1     -12.536  12.061  63.477  1.00  0.00     0.000 HD 
BRANCH   6  10
HETATM   10  C   UNL     1     -10.231  12.988  64.485  1.00  0.00    -0.331 C  
BRANCH  10  11
HETATM   11  C   UNL     1     -10.023  11.577  65.019  1.00  0.00    -0.305 A  
HETATM   12  C   UNL     1      -9.515  10.526  64.249  1.00  0.00    -0.337 A  
HETATM   13  C   UNL     1      -9.367   9.228  64.795  1.00  0.00    -0.080 A  
HETATM   14  C   UNL     1      -9.725   8.918  66.126  1.00  0.00    -0.338 A  
HETATM   15  C   UNL     1     -10.156  10.012  66.899  1.00  0.00    -0.287 A  
HETATM   16  C   UNL     1     -10.309  11.302  66.360  1.00  0.00    -0.291 A  
BRANCH  14  17
HETATM   17  C   UNL     1      -9.745   7.506  66.646  1.00  0.00    -0.203 A  
HETATM   18  N   UNL     1      -9.609   6.518  65.731  1.00  0.00     0.210 NA 
HETATM   19  C   UNL     1      -9.802   5.255  66.135  1.00  0.00    -0.165 A  
HETATM   20  N   UNL     1     -10.192   4.874  67.357  1.00  0.00    -0.152 NA 
HETATM   21  N   UNL     1      -9.673   4.259  65.189  1.00  0.00    -0.185 NA 
HETATM   22  H1  UNL     1      -9.821   3.298  65.496  1.00  0.00     0.000 HD 
HETATM   23  C   UNL     1     -10.302   5.861  68.251  1.00  0.00    -0.214 A  
HETATM   24  H2  UNL     1      -9.439   4.476  64.219  1.00  0.00     0.000 HD 
HETATM   25  C   UNL     1     -10.041   7.186  67.962  1.00  0.00    -0.201 A  
BRANCH  23  26
HETATM   26  O   UNL     1     -10.840   5.608  69.500  1.00  0.00    -0.324 OA 
BRANCH  26  27
HETATM   27  C   UNL     1      -9.928   5.240  70.564  1.00  0.00    -0.229 C  
HETATM   28  C   UNL     1      -9.208   3.877  70.411  1.00  0.00    -0.139 C  
HETATM   29  F   UNL     1      -9.693   3.099  69.418  1.00  0.00    -0.234 F  
HETATM   30  F   UNL     1      -9.351   3.165  71.568  1.00  0.00    -0.146 F  
HETATM   31  F   UNL     1      -7.870   3.989  70.222  1.00  0.00    -0.047 F  
BRANCH  27  32
HETATM   32  C   UNL     1      -8.941   6.408  70.875  1.00  0.00    -0.144 A  
HETATM   33  C   UNL     1      -7.621   6.260  70.384  1.00  0.00    -0.096 A  
HETATM   34  C   UNL     1      -6.606   7.160  70.718  1.00  0.00    -0.048 A  
HETATM   35  C   UNL     1      -6.879   8.221  71.568  1.00  0.00    -0.066 A  
HETATM   36  C   UNL     1      -8.185   8.460  71.996  1.00  0.00    -0.212 A  
HETATM   37 CL   UNL     1      -5.605   9.253  72.091  1.00  0.00    -0.076 Cl 
HETATM   38  C   UNL     1      -9.231   7.598  71.607  1.00  0.00    -0.134 A  
BRANCH  38  39
HETATM   39  N   UNL     1     -10.565   7.976  71.941  1.00  0.00    -0.231 NA 
HETATM   40  C   UNL     1     -11.595   7.214  72.462  1.00  0.00    -0.226 A  
HETATM   41  C   UNL     1     -12.729   7.994  72.397  1.00  0.00    -0.177 A  
HETATM   42  C   UNL     1     -12.276   9.227  71.911  1.00  0.00    -0.378 A  
HETATM   43  N   UNL     1     -10.956   9.252  71.808  1.00  0.00    -0.364 NA 
HETATM   44  C   UNL     1     -13.039  10.429  71.493  1.00  0.00    -0.532 C  
ENDBRANCH  38  39
ENDBRANCH  27  32
ENDBRANCH  26  27
ENDBRANCH  23  26
ENDBRANCH  14  17
ENDBRANCH  10  11
ENDBRANCH   6  10
ENDBRANCH   4   6
ENDBRANCH   3   4
ENDBRANCH   2   3
TORSDOF 10
ENDMDL
MODEL      148
REMARK 921   NORMALIZED FREE ENERGY PREDICTED BY IDOCK:   -4.75 KCAL/MOL
REMARK 922        TOTAL FREE ENERGY PREDICTED BY IDOCK:   -9.86 KCAL/MOL
REMARK 923 INTER-LIGAND FREE ENERGY PREDICTED BY IDOCK:   -7.71 KCAL/MOL
REMARK 924 INTRA-LIGAND FREE ENERGY PREDICTED BY IDOCK:   -2.16 KCAL/MOL
REMARK 927      BINDING AFFINITY PREDICTED BY RF-SCORE:    0.00 PKD
ROOT
HETATM    1  C   UNL     1      -6.709  20.331  68.541  1.00  0.00    -0.305 C  
HETATM    2  C   UNL     1      -7.842  20.580  67.562  1.00  0.00    -0.276 C  
ENDROOT
BRANCH   2   3
HETATM    3  O   UNL     1      -7.520  19.904  66.341  1.00  0.00    -0.257 OA 
BRANCH   3   4
HETATM    4  C   UNL     1      -8.208  18.738  66.136  1.00  0.00    -0.190 C  
HETATM    5  O   UNL     1      -9.426  18.641  66.076  1.00  0.00    -0.486 OA 
BRANCH   4   6
HETATM    6  C   UNL     1      -7.199  17.595  65.961  1.00  0.00    -0.281 C  
HETATM    7  N   UNL     1      -6.015  18.105  65.228  1.00  0.00    -0.167 NA 
HETATM    8  H2  UNL     1      -5.602  18.922  65.678  1.00  0.00     0.000 HD 
HETATM    9  H1  UNL     1      -5.345  17.345  65.112  1.00  0.00     0.000 HD 
BRANCH   6  10
HETATM   10  C   UNL     1      -6.812  16.992  67.329  1.00  0.00    -0.195 C  
BRANCH  10  11
HETATM   11  C   UNL     1      -7.394  15.626  67.670  1.00  0.00    -0.190 A  
HETATM   12  C   UNL     1      -6.650  14.443  67.649  1.00  0.00    -0.172 A  
HETATM   13  C   UNL     1      -7.254  13.198  67.953  1.00  0.00    -0.133 A  
HETATM   14  C   UNL     1      -8.623  13.077  68.281  1.00  0.00    -0.167 A  
HETATM   15  C   UNL     1      -9.325  14.293  68.371  1.00  0.00    -0.208 A  
HETATM   16  C   UNL     1      -8.731  15.531  68.067  1.00  0.00    -0.163 A  
BRANCH  14  17
HETATM   17  C   UNL     1      -9.303  11.742  68.417  1.00  0.00    -0.185 A  
HETATM   18  N   UNL     1     -10.647  11.756  68.574  1.00  0.00    -0.210 NA 
HETATM   19  C   UNL     1     -11.258  10.602  68.877  1.00  0.00    -0.275 A  
HETATM   20  N   UNL     1     -10.652   9.433  69.114  1.00  0.00    -0.220 NA 
HETATM   21  N   UNL     1     -12.627  10.635  69.046  1.00  0.00    -0.649 NA 
HETATM   22  H1  UNL     1     -13.092   9.758  69.277  1.00  0.00     0.000 HD 
HETATM   23  C   UNL     1      -9.328   9.434  68.934  1.00  0.00    -0.154 A  
HETATM   24  H2  UNL     1     -13.154  11.503  68.945  1.00  0.00     0.000 HD 
HETATM   25  C   UNL     1      -8.611  10.546  68.538  1.00  0.00    -0.135 A  
BRANCH  23  26
HETATM   26  O   UNL     1      -8.579   8.328  69.294  1.00  0.00    -0.135 OA 
BRANCH  26  27
HETATM   27  C   UNL     1      -8.573   7.197  68.388  1.00  0.00    -0.123 C  
HETATM   28  C   UNL     1      -7.292   7.003  67.538  1.00  0.00    -0.092 C  
HETATM   29  F   UNL     1      -6.432   8.045  67.582  1.00  0.00    -0.050 F  
HETATM   30  F   UNL     1      -7.646   6.845  66.228  1.00  0.00    -0.080 F  
HETATM   31  F   UNL     1      -6.593   5.887  67.858  1.00  0.00    -0.044 F  
BRANCH  27  32
HETATM   32  C   UNL     1      -9.003   5.893  69.129  1.00  0.00    -0.119 A  
HETATM   33  C   UNL     1      -9.036   5.957  70.543  1.00  0.00    -0.158 A  
HETATM   34  C   UNL     1      -9.260   4.822  71.327  1.00  0.00    -0.191 A  
HETATM   35  C   UNL     1      -9.437   3.589  70.719  1.00  0.00    -0.170 A  
HETATM   36  C   UNL     1      -9.509   3.496  69.329  1.00  0.00    -0.233 A  
HETATM   37 CL   UNL     1      -9.578   2.169  71.680  1.00  0.00    -0.199 Cl 
HETATM   38  C   UNL     1      -9.355   4.647  68.528  1.00  0.00    -0.138 A  
BRANCH  38  39
HETATM   39  N   UNL     1      -9.594   4.522  67.128  1.00  0.00    -0.172 NA 
HETATM   40  C   UNL     1     -10.573   5.104  66.344  1.00  0.00    -0.276 A  
HETATM   41  C   UNL     1     -10.499   4.495  65.110  1.00  0.00    -0.139 A  
HETATM   42  C   UNL     1      -9.401   3.631  65.215  1.00  0.00    -0.158 A  
HETATM   43  N   UNL     1      -8.769   3.788  66.367  1.00  0.00    -0.113 NA 
HETATM   44  C   UNL     1      -8.899   2.603  64.268  1.00  0.00    -0.099 C  
ENDBRANCH  38  39
ENDBRANCH  27  32
ENDBRANCH  26  27
ENDBRANCH  23  26
ENDBRANCH  14  17
ENDBRANCH  10  11
ENDBRANCH   6  10
ENDBRANCH   4   6
ENDBRANCH   3   4
ENDBRANCH   2   3
TORSDOF 10
ENDMDL
MODEL      149
REMARK 921   NORMALIZED FREE ENERGY PREDICTED BY IDOCK:   -4.74 KCAL/MOL
REMARK 922        TOTAL FREE ENERGY PREDICTED BY IDOCK:   -9.86 KCAL/MOL
REMARK 923 INTER-LIGAND FREE ENERGY PREDICTED BY IDOCK:   -6.87 KCAL/MOL
REMARK 924 INTRA-LIGAND FREE ENERGY PREDICTED BY IDOCK:   -2.99 KCAL/MOL
REMARK 927      BINDING AFFINITY PREDICTED BY RF-SCORE:    0.00 PKD
ROOT
HETATM    1  C   UNL     1     -12.779   8.251  71.337  1.00  0.00    -0.279 C  
HETATM    2  C   UNL     1     -11.833   8.250  72.524  1.00  0.00    -0.373 C  
ENDROOT
BRANCH   2   3
HETATM    3  O   UNL     1     -10.862   7.220  72.308  1.00  0.00    -0.220 OA 
BRANCH   3   4
HETATM    4  C   UNL     1      -9.650   7.445  72.902  1.00  0.00    -0.176 C  
HETATM    5  O   UNL     1      -9.020   8.493  72.844  1.00  0.00    -0.300 OA 
BRANCH   4   6
HETATM    6  C   UNL     1      -9.238   6.184  73.674  1.00  0.00    -0.128 C  
HETATM    7  N   UNL     1     -10.411   5.286  73.790  1.00  0.00    -0.244 NA 
HETATM    8  H2  UNL     1     -10.827   5.069  72.884  1.00  0.00     0.000 HD 
HETATM    9  H1  UNL     1     -10.137   4.448  74.303  1.00  0.00     0.000 HD 
BRANCH   6  10
HETATM   10  C   UNL     1      -8.046   5.485  72.984  1.00  0.00    -0.111 C  
BRANCH  10  11
HETATM   11  C   UNL     1      -8.065   5.430  71.461  1.00  0.00    -0.117 A  
HETATM   12  C   UNL     1      -7.272   6.247  70.650  1.00  0.00    -0.074 A  
HETATM   13  C   UNL     1      -7.353   6.166  69.237  1.00  0.00    -0.088 A  
HETATM   14  C   UNL     1      -8.229   5.279  68.575  1.00  0.00    -0.090 A  
HETATM   15  C   UNL     1      -8.954   4.415  69.417  1.00  0.00    -0.148 A  
HETATM   16  C   UNL     1      -8.881   4.494  70.819  1.00  0.00    -0.140 A  
BRANCH  14  17
HETATM   17  C   UNL     1      -8.450   5.326  67.087  1.00  0.00    -0.106 A  
HETATM   18  N   UNL     1      -8.578   4.138  66.452  1.00  0.00    -0.112 NA 
HETATM   19  C   UNL     1      -8.595   4.138  65.112  1.00  0.00    -0.116 A  
HETATM   20  N   UNL     1      -8.424   5.207  64.327  1.00  0.00    -0.137 NA 
HETATM   21  N   UNL     1      -8.714   2.918  64.479  1.00  0.00    -0.099 NA 
HETATM   22  H1  UNL     1      -8.727   2.918  63.460  1.00  0.00     0.000 HD 
HETATM   23  C   UNL     1      -8.319   6.373  64.971  1.00  0.00    -0.087 A  
HETATM   24  H2  UNL     1      -8.786   2.049  65.010  1.00  0.00     0.000 HD 
HETATM   25  C   UNL     1      -8.376   6.495  66.346  1.00  0.00    -0.120 A  
BRANCH  23  26
HETATM   26  O   UNL     1      -7.989   7.522  64.275  1.00  0.00    -0.136 OA 
BRANCH  26  27
HETATM   27  C   UNL     1      -7.702   8.715  65.045  1.00  0.00    -0.103 C  
HETATM   28  C   UNL     1      -6.350   9.415  64.753  1.00  0.00    -0.078 C  
HETATM   29  F   UNL     1      -5.507   8.695  63.979  1.00  0.00    -0.056 F  
HETATM   30  F   UNL     1      -5.700   9.639  65.933  1.00  0.00    -0.045 F  
HETATM   31  F   UNL     1      -6.485  10.636  64.180  1.00  0.00    -0.097 F  
BRANCH  27  32
HETATM   32  C   UNL     1      -8.909   9.704  65.003  1.00  0.00    -0.221 A  
HETATM   33  C   UNL     1      -9.373  10.071  63.718  1.00  0.00    -0.307 A  
HETATM   34  C   UNL     1     -10.346  11.059  63.541  1.00  0.00    -0.402 A  
HETATM   35  C   UNL     1     -10.866  11.719  64.644  1.00  0.00    -0.307 A  
HETATM   36  C   UNL     1     -10.509  11.321  65.932  1.00  0.00    -0.314 A  
HETATM   37 CL   UNL     1     -11.964  13.026  64.425  1.00  0.00    -0.428 Cl 
HETATM   38  C   UNL     1      -9.580  10.277  66.124  1.00  0.00    -0.197 A  
BRANCH  38  39
HETATM   39  N   UNL     1      -9.372   9.807  67.454  1.00  0.00    -0.133 NA 
HETATM   40  C   UNL     1     -10.250   9.174  68.315  1.00  0.00    -0.206 A  
HETATM   41  C   UNL     1      -9.626   9.125  69.543  1.00  0.00    -0.171 A  
HETATM   42  C   UNL     1      -8.356   9.667  69.309  1.00  0.00    -0.137 A  
HETATM   43  N   UNL     1      -8.161   9.908  68.022  1.00  0.00    -0.108 NA 
HETATM   44  C   UNL     1      -7.272  10.012  70.264  1.00  0.00    -0.155 C  
ENDBRANCH  38  39
ENDBRANCH  27  32
ENDBRANCH  26  27
ENDBRANCH  23  26
ENDBRANCH  14  17
ENDBRANCH  10  11
ENDBRANCH   6  10
ENDBRANCH   4   6
ENDBRANCH   3   4
ENDBRANCH   2   3
TORSDOF 10
ENDMDL
MODEL      150
REMARK 921   NORMALIZED FREE ENERGY PREDICTED BY IDOCK:   -4.73 KCAL/MOL
REMARK 922        TOTAL FREE ENERGY PREDICTED BY IDOCK:   -9.83 KCAL/MOL
REMARK 923 INTER-LIGAND FREE ENERGY PREDICTED BY IDOCK:   -8.49 KCAL/MOL
REMARK 924 INTRA-LIGAND FREE ENERGY PREDICTED BY IDOCK:   -1.34 KCAL/MOL
REMARK 927      BINDING AFFINITY PREDICTED BY RF-SCORE:    0.00 PKD
ROOT
HETATM    1  C   UNL     1     -10.844  19.440  66.721  1.00  0.00    -0.490 C  
HETATM    2  C   UNL     1     -10.094  19.995  67.918  1.00  0.00    -0.420 C  
ENDROOT
BRANCH   2   3
HETATM    3  O   UNL     1      -8.816  19.351  67.970  1.00  0.00    -0.305 OA 
BRANCH   3   4
HETATM    4  C   UNL     1      -7.834  19.972  67.246  1.00  0.00    -0.298 C  
HETATM    5  O   UNL     1      -7.941  20.339  66.084  1.00  0.00    -0.247 OA 
BRANCH   4   6
HETATM    6  C   UNL     1      -6.604  20.158  68.144  1.00  0.00    -0.292 C  
HETATM    7  N   UNL     1      -7.001  19.948  69.556  1.00  0.00    -0.293 NA 
HETATM    8  H2  UNL     1      -7.456  19.047  69.702  1.00  0.00     0.000 HD 
HETATM    9  H1  UNL     1      -6.183  20.072  70.152  1.00  0.00     0.000 HD 
BRANCH   6  10
HETATM   10  C   UNL     1      -5.467  19.203  67.719  1.00  0.00    -0.176 C  
BRANCH  10  11
HETATM   11  C   UNL     1      -5.686  17.715  67.967  1.00  0.00    -0.150 A  
HETATM   12  C   UNL     1      -6.381  16.880  67.087  1.00  0.00    -0.221 A  
HETATM   13  C   UNL     1      -6.573  15.508  67.385  1.00  0.00    -0.174 A  
HETATM   14  C   UNL     1      -6.092  14.914  68.572  1.00  0.00    -0.093 A  
HETATM   15  C   UNL     1      -5.330  15.760  69.398  1.00  0.00    -0.108 A  
HETATM   16  C   UNL     1      -5.139  17.123  69.109  1.00  0.00    -0.136 A  
BRANCH  14  17
HETATM   17  C   UNL     1      -6.457  13.511  68.975  1.00  0.00    -0.107 A  
HETATM   18  N   UNL     1      -5.936  13.056  70.139  1.00  0.00    -0.148 NA 
HETATM   19  C   UNL     1      -6.094  11.758  70.435  1.00  0.00    -0.057 A  
HETATM   20  N   UNL     1      -6.664  10.839  69.648  1.00  0.00    -0.107 NA 
HETATM   21  N   UNL     1      -5.546  11.306  71.618  1.00  0.00    -0.327 NA 
HETATM   22  H1  UNL     1      -5.666  10.319  71.844  1.00  0.00     0.000 HD 
HETATM   23  C   UNL     1      -7.190  11.310  68.514  1.00  0.00    -0.094 A  
HETATM   24  H2  UNL     1      -5.040  11.935  72.243  1.00  0.00     0.000 HD 
HETATM   25  C   UNL     1      -7.159  12.643  68.153  1.00  0.00    -0.102 A  
BRANCH  23  26
HETATM   26  O   UNL     1      -7.669  10.435  67.556  1.00  0.00    -0.094 OA 
BRANCH  26  27
HETATM   27  C   UNL     1      -8.998   9.889  67.748  1.00  0.00    -0.131 C  
HETATM   28  C   UNL     1      -9.936   9.912  66.515  1.00  0.00    -0.228 C  
HETATM   29  F   UNL     1      -9.475  10.645  65.478  1.00  0.00    -0.198 F  
HETATM   30  F   UNL     1     -11.134  10.459  66.877  1.00  0.00    -0.303 F  
HETATM   31  F   UNL     1     -10.234   8.678  66.038  1.00  0.00    -0.349 F  
BRANCH  27  32
HETATM   32  C   UNL     1      -8.926   8.483  68.420  1.00  0.00    -0.139 A  
HETATM   33  C   UNL     1      -7.862   7.645  68.008  1.00  0.00    -0.121 A  
HETATM   34  C   UNL     1      -7.771   6.313  68.421  1.00  0.00    -0.104 A  
HETATM   35  C   UNL     1      -8.752   5.778  69.242  1.00  0.00    -0.113 A  
HETATM   36  C   UNL     1      -9.764   6.593  69.750  1.00  0.00    -0.168 A  
HETATM   37 CL   UNL     1      -8.718   4.105  69.644  1.00  0.00    -0.110 Cl 
HETATM   38  C   UNL     1      -9.825   7.957  69.396  1.00  0.00    -0.180 A  
BRANCH  38  39
HETATM   39  N   UNL     1     -10.781   8.776  70.065  1.00  0.00    -0.227 NA 
HETATM   40  C   UNL     1     -10.822  10.152  70.205  1.00  0.00    -0.311 A  
HETATM   41  C   UNL     1     -11.822  10.423  71.113  1.00  0.00    -0.432 A  
HETATM   42  C   UNL     1     -12.382   9.171  71.397  1.00  0.00    -0.333 A  
HETATM   43  N   UNL     1     -11.863   8.223  70.633  1.00  0.00    -0.163 NA 
HETATM   44  C   UNL     1     -13.402   8.786  72.405  1.00  0.00    -0.442 C  
ENDBRANCH  38  39
ENDBRANCH  27  32
ENDBRANCH  26  27
ENDBRANCH  23  26
ENDBRANCH  14  17
ENDBRANCH  10  11
ENDBRANCH   6  10
ENDBRANCH   4   6
ENDBRANCH   3   4
ENDBRANCH   2   3
TORSDOF 10
ENDMDL
MODEL      151
REMARK 921   NORMALIZED FREE ENERGY PREDICTED BY IDOCK:   -4.71 KCAL/MOL
REMARK 922        TOTAL FREE ENERGY PREDICTED BY IDOCK:   -9.80 KCAL/MOL
REMARK 923 INTER-LIGAND FREE ENERGY PREDICTED BY IDOCK:   -8.78 KCAL/MOL
REMARK 924 INTRA-LIGAND FREE ENERGY PREDICTED BY IDOCK:   -1.02 KCAL/MOL
REMARK 927      BINDING AFFINITY PREDICTED BY RF-SCORE:    0.00 PKD
ROOT
HETATM    1  C   UNL     1     -10.556  18.860  65.991  1.00  0.00    -0.470 C  
HETATM    2  C   UNL     1     -10.611  17.376  66.307  1.00  0.00    -0.194 C  
ENDROOT
BRANCH   2   3
HETATM    3  O   UNL     1     -10.443  16.662  65.077  1.00  0.00    -0.664 OA 
BRANCH   3   4
HETATM    4  C   UNL     1     -11.539  15.945  64.679  1.00  0.00    -0.200 C  
HETATM    5  O   UNL     1     -12.279  16.247  63.753  1.00  0.00    -0.923 OA 
BRANCH   4   6
HETATM    6  C   UNL     1     -11.657  14.695  65.562  1.00  0.00    -0.335 C  
HETATM    7  N   UNL     1     -13.013  14.120  65.403  1.00  0.00    -0.709 NA 
HETATM    8  H2  UNL     1     -13.244  13.930  64.428  1.00  0.00     0.000 HD 
HETATM    9  H1  UNL     1     -13.091  13.289  65.990  1.00  0.00     0.000 HD 
BRANCH   6  10
HETATM   10  C   UNL     1     -10.554  13.672  65.212  1.00  0.00    -0.354 C  
BRANCH  10  11
HETATM   11  C   UNL     1     -10.117  12.723  66.320  1.00  0.00    -0.267 A  
HETATM   12  C   UNL     1      -9.816  11.374  66.107  1.00  0.00    -0.255 A  
HETATM   13  C   UNL     1      -9.438  10.534  67.184  1.00  0.00    -0.182 A  
HETATM   14  C   UNL     1      -9.352  10.998  68.515  1.00  0.00    -0.188 A  
HETATM   15  C   UNL     1      -9.582  12.375  68.685  1.00  0.00    -0.036 A  
HETATM   16  C   UNL     1      -9.962  13.212  67.620  1.00  0.00    -0.219 A  
BRANCH  14  17
HETATM   17  C   UNL     1      -9.136  10.068  69.678  1.00  0.00    -0.210 A  
HETATM   18  N   UNL     1      -7.977  10.208  70.364  1.00  0.00    -0.122 NA 
HETATM   19  C   UNL     1      -7.675   9.284  71.286  1.00  0.00     0.073 A  
HETATM   20  N   UNL     1      -8.383   8.180  71.551  1.00  0.00    -0.115 NA 
HETATM   21  N   UNL     1      -6.484   9.433  71.967  1.00  0.00    -0.294 NA 
HETATM   22  H1  UNL     1      -6.253   8.730  72.668  1.00  0.00     0.000 HD 
HETATM   23  C   UNL     1      -9.532   8.069  70.880  1.00  0.00    -0.161 A  
HETATM   24  H2  UNL     1      -5.858  10.217  71.776  1.00  0.00     0.000 HD 
HETATM   25  C   UNL     1      -9.981   9.008  69.971  1.00  0.00    -0.207 A  
BRANCH  23  26
HETATM   26  O   UNL     1     -10.272   6.903  70.958  1.00  0.00    -0.197 OA 
BRANCH  26  27
HETATM   27  C   UNL     1      -9.919   5.952  71.993  1.00  0.00    -0.175 C  
HETATM   28  C   UNL     1     -11.088   5.399  72.847  1.00  0.00    -0.305 C  
HETATM   29  F   UNL     1     -12.261   6.045  72.670  1.00  0.00    -0.265 F  
HETATM   30  F   UNL     1     -10.770   5.522  74.170  1.00  0.00    -0.276 F  
HETATM   31  F   UNL     1     -11.320   4.077  72.656  1.00  0.00    -0.096 F  
BRANCH  27  32
HETATM   32  C   UNL     1      -9.010   4.821  71.418  1.00  0.00    -0.164 A  
HETATM   33  C   UNL     1      -8.485   3.900  72.357  1.00  0.00    -0.101 A  
HETATM   34  C   UNL     1      -7.542   2.935  71.993  1.00  0.00    -0.052 A  
HETATM   35  C   UNL     1      -7.086   2.876  70.686  1.00  0.00    -0.033 A  
HETATM   36  C   UNL     1      -7.647   3.698  69.709  1.00  0.00    -0.051 A  
HETATM   37 CL   UNL     1      -5.829   1.779  70.263  1.00  0.00    -0.017 Cl 
HETATM   38  C   UNL     1      -8.650   4.629  70.051  1.00  0.00    -0.077 A  
BRANCH  38  39
HETATM   39  N   UNL     1      -9.298   5.329  68.991  1.00  0.00    -0.124 NA 
HETATM   40  C   UNL     1     -10.610   5.261  68.559  1.00  0.00    -0.014 A  
HETATM   41  C   UNL     1     -10.670   5.969  67.379  1.00  0.00    -0.393 A  
HETATM   42  C   UNL     1      -9.382   6.496  67.223  1.00  0.00    -0.121 A  
HETATM   43  N   UNL     1      -8.626   6.248  68.281  1.00  0.00    -0.117 NA 
HETATM   44  C   UNL     1      -8.780   7.230  66.082  1.00  0.00    -0.170 C  
ENDBRANCH  38  39
ENDBRANCH  27  32
ENDBRANCH  26  27
ENDBRANCH  23  26
ENDBRANCH  14  17
ENDBRANCH  10  11
ENDBRANCH   6  10
ENDBRANCH   4   6
ENDBRANCH   3   4
ENDBRANCH   2   3
TORSDOF 10
ENDMDL
MODEL      152
REMARK 921   NORMALIZED FREE ENERGY PREDICTED BY IDOCK:   -4.70 KCAL/MOL
REMARK 922        TOTAL FREE ENERGY PREDICTED BY IDOCK:   -9.79 KCAL/MOL
REMARK 923 INTER-LIGAND FREE ENERGY PREDICTED BY IDOCK:   -7.49 KCAL/MOL
REMARK 924 INTRA-LIGAND FREE ENERGY PREDICTED BY IDOCK:   -2.30 KCAL/MOL
REMARK 927      BINDING AFFINITY PREDICTED BY RF-SCORE:    0.00 PKD
ROOT
HETATM    1  C   UNL     1     -12.026  16.951  74.041  1.00  0.00    -0.135 C  
HETATM    2  C   UNL     1     -11.811  16.046  72.842  1.00  0.00    -0.449 C  
ENDROOT
BRANCH   2   3
HETATM    3  O   UNL     1     -12.743  14.963  72.940  1.00  0.00    -0.376 OA 
BRANCH   3   4
HETATM    4  C   UNL     1     -13.249  14.535  71.743  1.00  0.00    -0.351 C  
HETATM    5  O   UNL     1     -14.408  14.676  71.377  1.00  0.00    -0.433 OA 
BRANCH   4   6
HETATM    6  C   UNL     1     -12.117  13.887  70.933  1.00  0.00    -0.313 C  
HETATM    7  N   UNL     1     -12.207  12.414  71.073  1.00  0.00    -0.384 NA 
HETATM    8  H2  UNL     1     -13.125  12.054  70.814  1.00  0.00     0.000 HD 
HETATM    9  H1  UNL     1     -11.455  11.984  70.535  1.00  0.00     0.000 HD 
BRANCH   6  10
HETATM   10  C   UNL     1     -12.180  14.328  69.455  1.00  0.00    -0.319 C  
BRANCH  10  11
HETATM   11  C   UNL     1     -11.357  13.522  68.458  1.00  0.00    -0.327 A  
HETATM   12  C   UNL     1     -11.905  12.883  67.342  1.00  0.00    -0.418 A  
HETATM   13  C   UNL     1     -11.091  12.126  66.464  1.00  0.00    -0.352 A  
HETATM   14  C   UNL     1      -9.702  11.966  66.664  1.00  0.00    -0.220 A  
HETATM   15  C   UNL     1      -9.167  12.685  67.748  1.00  0.00    -0.195 A  
HETATM   16  C   UNL     1      -9.972  13.434  68.625  1.00  0.00    -0.139 A  
BRANCH  14  17
HETATM   17  C   UNL     1      -8.876  11.013  65.843  1.00  0.00    -0.195 A  
HETATM   18  N   UNL     1      -9.386  10.638  64.647  1.00  0.00    -0.219 NA 
HETATM   19  C   UNL     1      -8.765   9.658  63.976  1.00  0.00    -0.219 A  
HETATM   20  N   UNL     1      -7.715   8.953  64.413  1.00  0.00    -0.114 NA 
HETATM   21  N   UNL     1      -9.305   9.278  62.764  1.00  0.00    -0.524 NA 
HETATM   22  H1  UNL     1      -8.833   8.532  62.254  1.00  0.00     0.000 HD 
HETATM   23  C   UNL     1      -7.214   9.350  65.585  1.00  0.00    -0.091 A  
HETATM   24  H2  UNL     1     -10.143   9.727  62.392  1.00  0.00     0.000 HD 
HETATM   25  C   UNL     1      -7.723  10.405  66.317  1.00  0.00    -0.129 A  
BRANCH  23  26
HETATM   26  O   UNL     1      -6.227   8.604  66.206  1.00  0.00    -0.057 OA 
BRANCH  26  27
HETATM   27  C   UNL     1      -6.648   7.518  67.068  1.00  0.00    -0.062 C  
HETATM   28  C   UNL     1      -6.046   6.123  66.760  1.00  0.00    -0.025 C  
HETATM   29  F   UNL     1      -5.382   6.050  65.585  1.00  0.00    -0.011 F  
HETATM   30  F   UNL     1      -7.057   5.207  66.693  1.00  0.00    -0.063 F  
HETATM   31  F   UNL     1      -5.213   5.668  67.726  1.00  0.00    -0.003 F  
BRANCH  27  32
HETATM   32  C   UNL     1      -6.501   7.915  68.569  1.00  0.00    -0.053 A  
HETATM   33  C   UNL     1      -5.545   8.918  68.862  1.00  0.00    -0.040 A  
HETATM   34  C   UNL     1      -5.213   9.257  70.176  1.00  0.00    -0.028 A  
HETATM   35  C   UNL     1      -5.814   8.590  71.233  1.00  0.00    -0.038 A  
HETATM   36  C   UNL     1      -6.830   7.666  70.992  1.00  0.00    -0.049 A  
HETATM   37 CL   UNL     1      -5.311   8.909  72.848  1.00  0.00    -0.070 Cl 
HETATM   38  C   UNL     1      -7.223   7.366  69.671  1.00  0.00    -0.078 A  
BRANCH  38  39
HETATM   39  N   UNL     1      -8.369   6.537  69.489  1.00  0.00    -0.129 NA 
HETATM   40  C   UNL     1      -9.665   6.883  69.152  1.00  0.00    -0.155 A  
HETATM   41  C   UNL     1     -10.427   5.747  69.314  1.00  0.00    -0.358 A  
HETATM   42  C   UNL     1      -9.502   4.754  69.661  1.00  0.00    -0.153 A  
HETATM   43  N   UNL     1      -8.259   5.204  69.592  1.00  0.00    -0.092 NA 
HETATM   44  C   UNL     1      -9.721   3.352  70.099  1.00  0.00    -0.125 C  
ENDBRANCH  38  39
ENDBRANCH  27  32
ENDBRANCH  26  27
ENDBRANCH  23  26
ENDBRANCH  14  17
ENDBRANCH  10  11
ENDBRANCH   6  10
ENDBRANCH   4   6
ENDBRANCH   3   4
ENDBRANCH   2   3
TORSDOF 10
ENDMDL
MODEL      153
REMARK 921   NORMALIZED FREE ENERGY PREDICTED BY IDOCK:   -4.69 KCAL/MOL
REMARK 922        TOTAL FREE ENERGY PREDICTED BY IDOCK:   -9.77 KCAL/MOL
REMARK 923 INTER-LIGAND FREE ENERGY PREDICTED BY IDOCK:   -6.81 KCAL/MOL
REMARK 924 INTRA-LIGAND FREE ENERGY PREDICTED BY IDOCK:   -2.96 KCAL/MOL
REMARK 927      BINDING AFFINITY PREDICTED BY RF-SCORE:    0.00 PKD
ROOT
HETATM    1  C   UNL     1     -11.333   6.370  72.367  1.00  0.00    -0.324 C  
HETATM    2  C   UNL     1     -11.009   5.104  73.138  1.00  0.00    -0.307 C  
ENDROOT
BRANCH   2   3
HETATM    3  O   UNL     1     -10.460   4.158  72.213  1.00  0.00    -0.158 OA 
BRANCH   3   4
HETATM    4  C   UNL     1      -9.214   3.697  72.540  1.00  0.00    -0.106 C  
HETATM    5  O   UNL     1      -8.330   4.365  73.060  1.00  0.00    -0.094 OA 
BRANCH   4   6
HETATM    6  C   UNL     1      -9.128   2.208  72.178  1.00  0.00    -0.079 C  
HETATM    7  N   UNL     1     -10.484   1.716  71.837  1.00  0.00    -0.071 NA 
HETATM    8  H2  UNL     1     -10.925   2.270  71.103  1.00  0.00     0.000 HD 
HETATM    9  H1  UNL     1     -10.427   0.727  71.597  1.00  0.00     0.000 HD 
BRANCH   6  10
HETATM   10  C   UNL     1      -8.128   1.982  71.023  1.00  0.00    -0.054 C  
BRANCH  10  11
HETATM   11  C   UNL     1      -8.152   2.992  69.882  1.00  0.00    -0.059 A  
HETATM   12  C   UNL     1      -7.067   3.809  69.552  1.00  0.00    -0.045 A  
HETATM   13  C   UNL     1      -7.158   4.747  68.494  1.00  0.00    -0.057 A  
HETATM   14  C   UNL     1      -8.332   4.917  67.728  1.00  0.00    -0.104 A  
HETATM   15  C   UNL     1      -9.377   4.026  68.031  1.00  0.00    -0.220 A  
HETATM   16  C   UNL     1      -9.294   3.096  69.083  1.00  0.00    -0.228 A  
BRANCH  14  17
HETATM   17  C   UNL     1      -8.490   6.037  66.736  1.00  0.00    -0.110 A  
HETATM   18  N   UNL     1      -7.750   5.958  65.605  1.00  0.00    -0.093 NA 
HETATM   19  C   UNL     1      -7.731   7.021  64.789  1.00  0.00    -0.115 A  
HETATM   20  N   UNL     1      -8.326   8.197  65.021  1.00  0.00    -0.156 NA 
HETATM   21  N   UNL     1      -6.962   6.931  63.647  1.00  0.00    -0.054 NA 
HETATM   22  H1  UNL     1      -6.948   7.739  63.026  1.00  0.00     0.000 HD 
HETATM   23  C   UNL     1      -9.067   8.249  66.130  1.00  0.00    -0.189 A  
HETATM   24  H2  UNL     1      -6.428   6.088  63.432  1.00  0.00     0.000 HD 
HETATM   25  C   UNL     1      -9.224   7.184  66.995  1.00  0.00    -0.167 A  
BRANCH  23  26
HETATM   26  O   UNL     1      -9.603   9.453  66.550  1.00  0.00    -0.175 OA 
BRANCH  26  27
HETATM   27  C   UNL     1      -9.051  10.054  67.747  1.00  0.00    -0.131 C  
HETATM   28  C   UNL     1      -8.314  11.405  67.562  1.00  0.00    -0.137 C  
HETATM   29  F   UNL     1      -8.081  11.739  66.274  1.00  0.00    -0.138 F  
HETATM   30  F   UNL     1      -7.095  11.334  68.174  1.00  0.00    -0.065 F  
HETATM   31  F   UNL     1      -8.948  12.452  68.145  1.00  0.00    -0.170 F  
BRANCH  27  32
HETATM   32  C   UNL     1     -10.120  10.106  68.883  1.00  0.00    -0.211 A  
HETATM   33  C   UNL     1     -11.369  10.681  68.543  1.00  0.00    -0.348 A  
HETATM   34  C   UNL     1     -12.355  10.921  69.504  1.00  0.00    -0.241 A  
HETATM   35  C   UNL     1     -12.112  10.611  70.833  1.00  0.00    -0.385 A  
HETATM   36  C   UNL     1     -10.936   9.954  71.196  1.00  0.00    -0.298 A  
HETATM   37 CL   UNL     1     -13.268  11.027  72.038  1.00  0.00    -0.564 Cl 
HETATM   38  C   UNL     1      -9.963   9.643  70.224  1.00  0.00    -0.270 A  
BRANCH  38  39
HETATM   39  N   UNL     1      -8.858   8.836  70.622  1.00  0.00    -0.164 NA 
HETATM   40  C   UNL     1      -8.700   7.462  70.564  1.00  0.00    -0.147 A  
HETATM   41  C   UNL     1      -7.551   7.171  71.265  1.00  0.00    -0.081 A  
HETATM   42  C   UNL     1      -7.040   8.423  71.630  1.00  0.00    -0.089 A  
HETATM   43  N   UNL     1      -7.739   9.409  71.090  1.00  0.00    -0.331 NA 
HETATM   44  C   UNL     1      -5.899   8.769  72.515  1.00  0.00    -0.076 C  
ENDBRANCH  38  39
ENDBRANCH  27  32
ENDBRANCH  26  27
ENDBRANCH  23  26
ENDBRANCH  14  17
ENDBRANCH  10  11
ENDBRANCH   6  10
ENDBRANCH   4   6
ENDBRANCH   3   4
ENDBRANCH   2   3
TORSDOF 10
ENDMDL
MODEL      154
REMARK 921   NORMALIZED FREE ENERGY PREDICTED BY IDOCK:   -4.67 KCAL/MOL
REMARK 922        TOTAL FREE ENERGY PREDICTED BY IDOCK:   -9.74 KCAL/MOL
REMARK 923 INTER-LIGAND FREE ENERGY PREDICTED BY IDOCK:   -7.45 KCAL/MOL
REMARK 924 INTRA-LIGAND FREE ENERGY PREDICTED BY IDOCK:   -2.29 KCAL/MOL
REMARK 927      BINDING AFFINITY PREDICTED BY RF-SCORE:    0.00 PKD
ROOT
HETATM    1  C   UNL     1     -12.030  12.198  65.449  1.00  0.00    -0.296 C  
HETATM    2  C   UNL     1     -12.235  13.615  64.943  1.00  0.00    -0.414 C  
ENDROOT
BRANCH   2   3
HETATM    3  O   UNL     1     -12.218  14.490  66.077  1.00  0.00    -0.348 OA 
BRANCH   3   4
HETATM    4  C   UNL     1     -11.040  15.161  66.263  1.00  0.00    -0.309 C  
HETATM    5  O   UNL     1     -10.159  15.284  65.422  1.00  0.00    -0.354 OA 
BRANCH   4   6
HETATM    6  C   UNL     1     -11.028  15.754  67.678  1.00  0.00    -0.302 C  
HETATM    7  N   UNL     1     -12.404  15.714  68.229  1.00  0.00    -0.239 NA 
HETATM    8  H2  UNL     1     -12.805  14.776  68.204  1.00  0.00     0.000 HD 
HETATM    9  H1  UNL     1     -12.396  16.108  69.169  1.00  0.00     0.000 HD 
BRANCH   6  10
HETATM   10  C   UNL     1     -10.026  15.001  68.579  1.00  0.00    -0.219 C  
BRANCH  10  11
HETATM   11  C   UNL     1     -10.311  13.529  68.849  1.00  0.00    -0.109 A  
HETATM   12  C   UNL     1     -11.436  13.075  69.545  1.00  0.00    -0.289 A  
HETATM   13  C   UNL     1     -11.634  11.693  69.786  1.00  0.00    -0.389 A  
HETATM   14  C   UNL     1     -10.720  10.708  69.352  1.00  0.00    -0.281 A  
HETATM   15  C   UNL     1      -9.642  11.187  68.586  1.00  0.00    -0.200 A  
HETATM   16  C   UNL     1      -9.438  12.559  68.348  1.00  0.00    -0.167 A  
BRANCH  14  17
HETATM   17  C   UNL     1     -10.833   9.266  69.769  1.00  0.00    -0.224 A  
HETATM   18  N   UNL     1     -11.743   8.979  70.730  1.00  0.00    -0.270 NA 
HETATM   19  C   UNL     1     -11.743   7.744  71.249  1.00  0.00    -0.288 A  
HETATM   20  N   UNL     1     -10.871   6.771  70.957  1.00  0.00    -0.235 NA 
HETATM   21  N   UNL     1     -12.667   7.470  72.236  1.00  0.00    -0.512 NA 
HETATM   22  H1  UNL     1     -12.667   6.531  72.631  1.00  0.00     0.000 HD 
HETATM   23  C   UNL     1      -9.994   7.066  69.993  1.00  0.00    -0.181 A  
HETATM   24  H2  UNL     1     -13.325   8.181  72.558  1.00  0.00     0.000 HD 
HETATM   25  C   UNL     1      -9.964   8.279  69.332  1.00  0.00    -0.188 A  
BRANCH  23  26
HETATM   26  O   UNL     1      -8.954   6.198  69.713  1.00  0.00    -0.136 OA 
BRANCH  26  27
HETATM   27  C   UNL     1      -7.687   6.774  69.311  1.00  0.00    -0.105 C  
HETATM   28  C   UNL     1      -6.437   6.302  70.096  1.00  0.00    -0.040 C  
HETATM   29  F   UNL     1      -6.716   5.584  71.207  1.00  0.00    -0.044 F  
HETATM   30  F   UNL     1      -5.729   7.396  70.507  1.00  0.00    -0.026 F  
HETATM   31  F   UNL     1      -5.571   5.574  69.349  1.00  0.00    -0.006 F  
BRANCH  27  32
HETATM   32  C   UNL     1      -7.498   6.672  67.766  1.00  0.00    -0.098 A  
HETATM   33  C   UNL     1      -6.933   7.802  67.127  1.00  0.00    -0.077 A  
HETATM   34  C   UNL     1      -6.848   7.896  65.736  1.00  0.00    -0.056 A  
HETATM   35  C   UNL     1      -7.343   6.870  64.945  1.00  0.00    -0.087 A  
HETATM   36  C   UNL     1      -7.818   5.698  65.532  1.00  0.00    -0.100 A  
HETATM   37 CL   UNL     1      -7.364   7.039  63.232  1.00  0.00    -0.074 Cl 
HETATM   38  C   UNL     1      -7.844   5.564  66.936  1.00  0.00    -0.101 A  
BRANCH  38  39
HETATM   39  N   UNL     1      -8.189   4.291  67.477  1.00  0.00    -0.099 NA 
HETATM   40  C   UNL     1      -9.425   3.675  67.568  1.00  0.00    -0.191 A  
HETATM   41  C   UNL     1      -9.250   2.561  68.360  1.00  0.00    -0.253 A  
HETATM   42  C   UNL     1      -7.874   2.537  68.625  1.00  0.00    -0.053 A  
HETATM   43  N   UNL     1      -7.233   3.477  67.949  1.00  0.00    -0.051 NA 
HETATM   44  C   UNL     1      -7.091   1.663  69.534  1.00  0.00    -0.036 C  
ENDBRANCH  38  39
ENDBRANCH  27  32
ENDBRANCH  26  27
ENDBRANCH  23  26
ENDBRANCH  14  17
ENDBRANCH  10  11
ENDBRANCH   6  10
ENDBRANCH   4   6
ENDBRANCH   3   4
ENDBRANCH   2   3
TORSDOF 10
ENDMDL
MODEL      155
REMARK 921   NORMALIZED FREE ENERGY PREDICTED BY IDOCK:   -4.67 KCAL/MOL
REMARK 922        TOTAL FREE ENERGY PREDICTED BY IDOCK:   -9.74 KCAL/MOL
REMARK 923 INTER-LIGAND FREE ENERGY PREDICTED BY IDOCK:   -8.85 KCAL/MOL
REMARK 924 INTRA-LIGAND FREE ENERGY PREDICTED BY IDOCK:   -0.89 KCAL/MOL
REMARK 927      BINDING AFFINITY PREDICTED BY RF-SCORE:    0.00 PKD
ROOT
HETATM    1  C   UNL     1      -5.677  19.385  64.200  1.00  0.00    -0.320 C  
HETATM    2  C   UNL     1      -6.314  18.673  65.380  1.00  0.00    -0.279 C  
ENDROOT
BRANCH   2   3
HETATM    3  O   UNL     1      -7.617  19.234  65.577  1.00  0.00    -0.445 OA 
BRANCH   3   4
HETATM    4  C   UNL     1      -7.919  19.532  66.878  1.00  0.00    -0.277 C  
HETATM    5  O   UNL     1      -7.140  19.452  67.818  1.00  0.00    -0.237 OA 
BRANCH   4   6
HETATM    6  C   UNL     1      -9.376  20.009  66.948  1.00  0.00    -0.393 C  
HETATM    7  N   UNL     1      -9.853  20.304  65.577  1.00  0.00    -0.465 NA 
HETATM    8  H2  UNL     1      -9.734  19.511  64.945  1.00  0.00     0.000 HD 
HETATM    9  H1  UNL     1     -10.821  20.621  65.624  1.00  0.00     0.000 HD 
BRANCH   6  10
HETATM   10  C   UNL     1     -10.263  18.960  67.652  1.00  0.00    -0.459 C  
BRANCH  10  11
HETATM   11  C   UNL     1     -10.191  17.531  67.127  1.00  0.00    -0.323 A  
HETATM   12  C   UNL     1     -10.368  17.194  65.781  1.00  0.00    -0.253 A  
HETATM   13  C   UNL     1     -10.315  15.844  65.357  1.00  0.00    -0.399 A  
HETATM   14  C   UNL     1     -10.092  14.774  66.251  1.00  0.00    -0.299 A  
HETATM   15  C   UNL     1      -9.838  15.151  67.582  1.00  0.00    -0.219 A  
HETATM   16  C   UNL     1      -9.894  16.490  68.010  1.00  0.00    -0.240 A  
BRANCH  14  17
HETATM   17  C   UNL     1     -10.222  13.334  65.832  1.00  0.00    -0.293 A  
HETATM   18  N   UNL     1     -10.649  13.104  64.569  1.00  0.00    -0.386 NA 
HETATM   19  C   UNL     1     -10.947  11.843  64.225  1.00  0.00    -0.353 A  
HETATM   20  N   UNL     1     -10.931  10.784  65.042  1.00  0.00     0.012 NA 
HETATM   21  N   UNL     1     -11.393  11.625  62.937  1.00  0.00    -0.642 NA 
HETATM   22  H1  UNL     1     -11.620  10.667  62.675  1.00  0.00     0.000 HD 
HETATM   23  C   UNL     1     -10.489  11.027  66.278  1.00  0.00    -0.254 A  
HETATM   24  H2  UNL     1     -11.492  12.394  62.273  1.00  0.00     0.000 HD 
HETATM   25  C   UNL     1     -10.074  12.272  66.710  1.00  0.00    -0.224 A  
BRANCH  23  26
HETATM   26  O   UNL     1     -10.570  10.046  67.250  1.00  0.00    -0.244 OA 
BRANCH  26  27
HETATM   27  C   UNL     1      -9.331   9.462  67.721  1.00  0.00    -0.128 C  
HETATM   28  C   UNL     1      -9.456   8.166  68.562  1.00  0.00    -0.143 C  
HETATM   29  F   UNL     1     -10.719   7.869  68.941  1.00  0.00    -0.222 F  
HETATM   30  F   UNL     1      -8.728   8.306  69.708  1.00  0.00    -0.127 F  
HETATM   31  F   UNL     1      -8.950   7.070  67.946  1.00  0.00    -0.124 F  
BRANCH  27  32
HETATM   32  C   UNL     1      -8.306   9.321  66.553  1.00  0.00    -0.126 A  
HETATM   33  C   UNL     1      -8.814   8.817  65.331  1.00  0.00    -0.221 A  
HETATM   34  C   UNL     1      -7.975   8.505  64.258  1.00  0.00    -0.149 A  
HETATM   35  C   UNL     1      -6.604   8.671  64.385  1.00  0.00    -0.070 A  
HETATM   36  C   UNL     1      -6.071   9.256  65.533  1.00  0.00    -0.063 A  
HETATM   37 CL   UNL     1      -5.556   8.162  63.117  1.00  0.00    -0.066 Cl 
HETATM   38  C   UNL     1      -6.916   9.640  66.596  1.00  0.00    -0.085 A  
BRANCH  38  39
HETATM   39  N   UNL     1      -6.339  10.374  67.673  1.00  0.00    -0.057 NA 
HETATM   40  C   UNL     1      -5.894   9.930  68.906  1.00  0.00    -0.034 A  
HETATM   41  C   UNL     1      -5.628  11.056  69.654  1.00  0.00    -0.043 A  
HETATM   42  C   UNL     1      -5.855  12.121  68.771  1.00  0.00    -0.055 A  
HETATM   43  N   UNL     1      -6.110  11.689  67.546  1.00  0.00    -0.068 NA 
HETATM   44  C   UNL     1      -5.873  13.584  69.023  1.00  0.00    -0.078 C  
ENDBRANCH  38  39
ENDBRANCH  27  32
ENDBRANCH  26  27
ENDBRANCH  23  26
ENDBRANCH  14  17
ENDBRANCH  10  11
ENDBRANCH   6  10
ENDBRANCH   4   6
ENDBRANCH   3   4
ENDBRANCH   2   3
TORSDOF 10
ENDMDL
MODEL      156
REMARK 921   NORMALIZED FREE ENERGY PREDICTED BY IDOCK:   -4.65 KCAL/MOL
REMARK 922        TOTAL FREE ENERGY PREDICTED BY IDOCK:   -9.70 KCAL/MOL
REMARK 923 INTER-LIGAND FREE ENERGY PREDICTED BY IDOCK:   -7.59 KCAL/MOL
REMARK 924 INTRA-LIGAND FREE ENERGY PREDICTED BY IDOCK:   -2.11 KCAL/MOL
REMARK 927      BINDING AFFINITY PREDICTED BY RF-SCORE:    0.00 PKD
ROOT
HETATM    1  C   UNL     1      -9.211   2.452  64.608  1.00  0.00    -0.133 C  
HETATM    2  C   UNL     1      -9.136   2.190  66.101  1.00  0.00    -0.048 C  
ENDROOT
BRANCH   2   3
HETATM    3  O   UNL     1      -7.769   2.340  66.503  1.00  0.00    -0.069 OA 
BRANCH   3   4
HETATM    4  C   UNL     1      -7.499   3.494  67.187  1.00  0.00    -0.074 C  
HETATM    5  O   UNL     1      -8.201   3.971  68.068  1.00  0.00    -0.091 OA 
BRANCH   4   6
HETATM    6  C   UNL     1      -6.163   4.060  66.688  1.00  0.00    -0.032 C  
HETATM    7  N   UNL     1      -5.254   2.936  66.363  1.00  0.00    -0.011 NA 
HETATM    8  H2  UNL     1      -5.668   2.279  65.702  1.00  0.00     0.000 HD 
HETATM    9  H1  UNL     1      -4.366   3.313  66.032  1.00  0.00     0.000 HD 
BRANCH   6  10
HETATM   10  C   UNL     1      -6.381   4.991  65.476  1.00  0.00    -0.035 C  
BRANCH  10  11
HETATM   11  C   UNL     1      -6.871   6.404  65.769  1.00  0.00    -0.053 A  
HETATM   12  C   UNL     1      -6.394   7.181  66.830  1.00  0.00    -0.050 A  
HETATM   13  C   UNL     1      -6.906   8.480  67.067  1.00  0.00    -0.067 A  
HETATM   14  C   UNL     1      -7.917   9.056  66.267  1.00  0.00    -0.103 A  
HETATM   15  C   UNL     1      -8.319   8.283  65.162  1.00  0.00    -0.167 A  
HETATM   16  C   UNL     1      -7.817   6.991  64.924  1.00  0.00    -0.126 A  
BRANCH  14  17
HETATM   17  C   UNL     1      -8.591  10.352  66.630  1.00  0.00    -0.125 A  
HETATM   18  N   UNL     1      -9.934  10.407  66.469  1.00  0.00    -0.209 NA 
HETATM   19  C   UNL     1     -10.537  11.595  66.611  1.00  0.00    -0.243 A  
HETATM   20  N   UNL     1      -9.924  12.764  66.830  1.00  0.00    -0.232 NA 
HETATM   21  N   UNL     1     -11.905  11.638  66.431  1.00  0.00    -0.405 NA 
HETATM   22  H1  UNL     1     -12.364  12.541  66.538  1.00  0.00     0.000 HD 
HETATM   23  C   UNL     1      -8.603  12.687  67.006  1.00  0.00    -0.181 A  
HETATM   24  H2  UNL     1     -12.436  10.797  66.199  1.00  0.00     0.000 HD 
HETATM   25  C   UNL     1      -7.894  11.502  66.967  1.00  0.00    -0.161 A  
BRANCH  23  26
HETATM   26  O   UNL     1      -7.846  13.842  67.089  1.00  0.00    -0.139 OA 
BRANCH  26  27
HETATM   27  C   UNL     1      -8.102  14.735  68.201  1.00  0.00    -0.134 C  
HETATM   28  C   UNL     1      -6.887  15.081  69.099  1.00  0.00    -0.132 C  
HETATM   29  F   UNL     1      -5.791  14.326  68.868  1.00  0.00    -0.082 F  
HETATM   30  F   UNL     1      -7.229  14.882  70.406  1.00  0.00    -0.124 F  
HETATM   31  F   UNL     1      -6.508  16.380  69.021  1.00  0.00    -0.136 F  
BRANCH  27  32
HETATM   32  C   UNL     1      -8.874  16.005  67.723  1.00  0.00    -0.177 A  
HETATM   33  C   UNL     1      -8.305  16.714  66.638  1.00  0.00    -0.296 A  
HETATM   34  C   UNL     1      -8.815  17.944  66.214  1.00  0.00    -0.189 A  
HETATM   35  C   UNL     1      -9.896  18.506  66.874  1.00  0.00    -0.334 A  
HETATM   36  C   UNL     1     -10.548  17.797  67.883  1.00  0.00    -0.389 A  
HETATM   37 CL   UNL     1     -10.444  20.079  66.443  1.00  0.00    -0.563 Cl 
HETATM   38  C   UNL     1     -10.084  16.523  68.273  1.00  0.00    -0.259 A  
BRANCH  38  39
HETATM   39  N   UNL     1     -10.878  15.779  69.195  1.00  0.00    -0.235 NA 
HETATM   40  C   UNL     1     -11.891  14.869  68.954  1.00  0.00    -0.301 A  
HETATM   41  C   UNL     1     -12.473  14.600  70.173  1.00  0.00    -0.369 A  
HETATM   42  C   UNL     1     -11.698  15.317  71.094  1.00  0.00    -0.360 A  
HETATM   43  N   UNL     1     -10.647  15.874  70.513  1.00  0.00    -0.188 NA 
HETATM   44  C   UNL     1     -11.904  15.543  72.547  1.00  0.00    -0.572 C  
ENDBRANCH  38  39
ENDBRANCH  27  32
ENDBRANCH  26  27
ENDBRANCH  23  26
ENDBRANCH  14  17
ENDBRANCH  10  11
ENDBRANCH   6  10
ENDBRANCH   4   6
ENDBRANCH   3   4
ENDBRANCH   2   3
TORSDOF 10
ENDMDL
MODEL      157
REMARK 921   NORMALIZED FREE ENERGY PREDICTED BY IDOCK:   -4.62 KCAL/MOL
REMARK 922        TOTAL FREE ENERGY PREDICTED BY IDOCK:   -9.65 KCAL/MOL
REMARK 923 INTER-LIGAND FREE ENERGY PREDICTED BY IDOCK:   -8.43 KCAL/MOL
REMARK 924 INTRA-LIGAND FREE ENERGY PREDICTED BY IDOCK:   -1.22 KCAL/MOL
REMARK 927      BINDING AFFINITY PREDICTED BY RF-SCORE:    0.00 PKD
ROOT
HETATM    1  C   UNL     1      -8.785   8.613  66.184  1.00  0.00    -0.180 C  
HETATM    2  C   UNL     1      -7.883   7.505  66.696  1.00  0.00    -0.106 C  
ENDROOT
BRANCH   2   3
HETATM    3  O   UNL     1      -8.489   6.959  67.874  1.00  0.00    -0.119 OA 
BRANCH   3   4
HETATM    4  C   UNL     1      -7.950   7.403  69.051  1.00  0.00    -0.122 C  
HETATM    5  O   UNL     1      -7.155   8.327  69.157  1.00  0.00    -0.061 OA 
BRANCH   4   6
HETATM    6  C   UNL     1      -8.534   6.575  70.203  1.00  0.00    -0.135 C  
HETATM    7  N   UNL     1      -7.849   6.950  71.462  1.00  0.00    -0.099 NA 
HETATM    8  H2  UNL     1      -7.891   7.953  71.644  1.00  0.00     0.000 HD 
HETATM    9  H1  UNL     1      -8.237   6.399  72.228  1.00  0.00     0.000 HD 
BRANCH   6  10
HETATM   10  C   UNL     1     -10.062   6.773  70.300  1.00  0.00    -0.196 C  
BRANCH  10  11
HETATM   11  C   UNL     1     -10.587   8.191  70.118  1.00  0.00    -0.237 A  
HETATM   12  C   UNL     1     -10.759   8.797  68.870  1.00  0.00    -0.114 A  
HETATM   13  C   UNL     1     -11.229  10.129  68.765  1.00  0.00    -0.217 A  
HETATM   14  C   UNL     1     -11.538  10.917  69.896  1.00  0.00    -0.410 A  
HETATM   15  C   UNL     1     -11.431  10.255  71.133  1.00  0.00    -0.319 A  
HETATM   16  C   UNL     1     -10.962   8.933  71.242  1.00  0.00    -0.363 A  
BRANCH  14  17
HETATM   17  C   UNL     1     -11.853  12.384  69.793  1.00  0.00    -0.317 A  
HETATM   18  N   UNL     1     -12.658  12.903  70.750  1.00  0.00    -0.280 NA 
HETATM   19  C   UNL     1     -13.102  14.157  70.588  1.00  0.00    -0.151 A  
HETATM   20  N   UNL     1     -12.882  14.935  69.522  1.00  0.00     0.142 NA 
HETATM   21  N   UNL     1     -13.932  14.668  71.566  1.00  0.00    -0.421 NA 
HETATM   22  H1  UNL     1     -14.270  15.622  71.443  1.00  0.00     0.000 HD 
HETATM   23  C   UNL     1     -12.070  14.414  68.598  1.00  0.00    -0.239 A  
HETATM   24  H2  UNL     1     -14.197  14.113  72.380  1.00  0.00     0.000 HD 
HETATM   25  C   UNL     1     -11.489  13.165  68.708  1.00  0.00    -0.348 A  
BRANCH  23  26
HETATM   26  O   UNL     1     -11.892  15.060  67.388  1.00  0.00    -0.309 OA 
BRANCH  26  27
HETATM   27  C   UNL     1     -11.139  14.368  66.361  1.00  0.00    -0.326 C  
HETATM   28  C   UNL     1     -11.470  14.745  64.894  1.00  0.00    -0.412 C  
HETATM   29  F   UNL     1     -12.578  15.505  64.751  1.00  0.00    -0.042 F  
HETATM   30  F   UNL     1     -11.686  13.602  64.179  1.00  0.00    -0.382 F  
HETATM   31  F   UNL     1     -10.456  15.381  64.257  1.00  0.00    -0.161 F  
BRANCH  27  32
HETATM   32  C   UNL     1      -9.609  14.425  66.664  1.00  0.00    -0.295 A  
HETATM   33  C   UNL     1      -8.904  13.202  66.556  1.00  0.00     0.005 A  
HETATM   34  C   UNL     1      -7.566  13.088  66.943  1.00  0.00     0.248 A  
HETATM   35  C   UNL     1      -6.904  14.188  67.466  1.00  0.00    -0.130 A  
HETATM   36  C   UNL     1      -7.530  15.434  67.498  1.00  0.00    -0.215 A  
HETATM   37 CL   UNL     1      -5.300  14.019  68.068  1.00  0.00    -0.112 Cl 
HETATM   38  C   UNL     1      -8.858  15.576  67.045  1.00  0.00    -0.230 A  
BRANCH  38  39
HETATM   39  N   UNL     1      -9.393  16.895  66.953  1.00  0.00    -0.233 NA 
HETATM   40  C   UNL     1      -9.680  17.656  65.835  1.00  0.00    -0.031 A  
HETATM   41  C   UNL     1      -9.971  18.924  66.289  1.00  0.00    -0.429 A  
HETATM   42  C   UNL     1      -9.921  18.813  67.685  1.00  0.00    -0.345 A  
HETATM   43  N   UNL     1      -9.745  17.557  68.065  1.00  0.00    -0.277 NA 
HETATM   44  C   UNL     1     -10.006  19.862  68.732  1.00  0.00    -0.462 C  
ENDBRANCH  38  39
ENDBRANCH  27  32
ENDBRANCH  26  27
ENDBRANCH  23  26
ENDBRANCH  14  17
ENDBRANCH  10  11
ENDBRANCH   6  10
ENDBRANCH   4   6
ENDBRANCH   3   4
ENDBRANCH   2   3
TORSDOF 10
ENDMDL
MODEL      158
REMARK 921   NORMALIZED FREE ENERGY PREDICTED BY IDOCK:   -4.60 KCAL/MOL
REMARK 922        TOTAL FREE ENERGY PREDICTED BY IDOCK:   -9.63 KCAL/MOL
REMARK 923 INTER-LIGAND FREE ENERGY PREDICTED BY IDOCK:   -8.10 KCAL/MOL
REMARK 924 INTRA-LIGAND FREE ENERGY PREDICTED BY IDOCK:   -1.53 KCAL/MOL
REMARK 927      BINDING AFFINITY PREDICTED BY RF-SCORE:    0.00 PKD
ROOT
HETATM    1  C   UNL     1      -6.910  18.353  68.395  1.00  0.00    -0.250 C  
HETATM    2  C   UNL     1      -8.038  19.306  68.744  1.00  0.00    -0.356 C  
ENDROOT
BRANCH   2   3
HETATM    3  O   UNL     1      -9.261  18.559  68.730  1.00  0.00    -0.319 OA 
BRANCH   3   4
HETATM    4  C   UNL     1     -10.146  18.931  67.755  1.00  0.00    -0.369 C  
HETATM    5  O   UNL     1     -10.510  20.079  67.534  1.00  0.00    -0.399 OA 
BRANCH   4   6
HETATM    6  C   UNL     1     -10.572  17.681  66.974  1.00  0.00    -0.254 C  
HETATM    7  N   UNL     1      -9.507  17.333  66.004  1.00  0.00    -0.503 NA 
HETATM    8  H2  UNL     1      -8.596  17.221  66.450  1.00  0.00     0.000 HD 
HETATM    9  H1  UNL     1      -9.790  16.502  65.485  1.00  0.00     0.000 HD 
BRANCH   6  10
HETATM   10  C   UNL     1     -10.878  16.512  67.936  1.00  0.00    -0.326 C  
BRANCH  10  11
HETATM   11  C   UNL     1     -10.435  15.122  67.496  1.00  0.00    -0.258 A  
HETATM   12  C   UNL     1      -9.314  14.469  68.015  1.00  0.00    -0.201 A  
HETATM   13  C   UNL     1      -8.939  13.185  67.547  1.00  0.00    -0.197 A  
HETATM   14  C   UNL     1      -9.656  12.504  66.540  1.00  0.00    -0.242 A  
HETATM   15  C   UNL     1     -10.823  13.151  66.095  1.00  0.00    -0.293 A  
HETATM   16  C   UNL     1     -11.198  14.427  66.553  1.00  0.00    -0.340 A  
BRANCH  14  17
HETATM   17  C   UNL     1      -9.152  11.231  65.913  1.00  0.00    -0.204 A  
HETATM   18  N   UNL     1      -9.303  11.111  64.574  1.00  0.00    -0.198 NA 
HETATM   19  C   UNL     1      -9.032   9.924  64.013  1.00  0.00    -0.243 A  
HETATM   20  N   UNL     1      -8.689   8.809  64.668  1.00  0.00    -0.123 NA 
HETATM   21  N   UNL     1      -9.203   9.813  62.648  1.00  0.00    -0.366 NA 
HETATM   22  H1  UNL     1      -8.996   8.910  62.222  1.00  0.00     0.000 HD 
HETATM   23  C   UNL     1      -8.525   8.952  65.986  1.00  0.00    -0.129 A  
HETATM   24  H2  UNL     1      -9.523  10.603  62.088  1.00  0.00     0.000 HD 
HETATM   25  C   UNL     1      -8.695  10.151  66.651  1.00  0.00    -0.134 A  
BRANCH  23  26
HETATM   26  O   UNL     1      -8.320   7.841  66.784  1.00  0.00    -0.119 OA 
BRANCH  26  27
HETATM   27  C   UNL     1      -8.918   7.841  68.104  1.00  0.00    -0.127 C  
HETATM   28  C   UNL     1     -10.464   7.925  68.159  1.00  0.00    -0.173 C  
HETATM   29  F   UNL     1     -11.048   8.218  66.975  1.00  0.00    -0.293 F  
HETATM   30  F   UNL     1     -10.826   8.915  69.027  1.00  0.00    -0.233 F  
HETATM   31  F   UNL     1     -11.051   6.799  68.633  1.00  0.00    -0.247 F  
BRANCH  27  32
HETATM   32  C   UNL     1      -8.350   6.672  68.968  1.00  0.00    -0.120 A  
HETATM   33  C   UNL     1      -8.206   6.929  70.353  1.00  0.00    -0.124 A  
HETATM   34  C   UNL     1      -7.574   6.022  71.208  1.00  0.00    -0.094 A  
HETATM   35  C   UNL     1      -7.053   4.843  70.698  1.00  0.00    -0.049 A  
HETATM   36  C   UNL     1      -7.258   4.506  69.360  1.00  0.00    -0.051 A  
HETATM   37 CL   UNL     1      -6.157   3.787  71.720  1.00  0.00    -0.013 Cl 
HETATM   38  C   UNL     1      -7.956   5.382  68.503  1.00  0.00    -0.091 A  
BRANCH  38  39
HETATM   39  N   UNL     1      -8.274   4.919  67.193  1.00  0.00    -0.107 NA 
HETATM   40  C   UNL     1      -7.436   4.636  66.128  1.00  0.00    -0.082 A  
HETATM   41  C   UNL     1      -8.249   4.432  65.035  1.00  0.00    -0.104 A  
HETATM   42  C   UNL     1      -9.550   4.524  65.547  1.00  0.00    -0.185 A  
HETATM   43  N   UNL     1      -9.545   4.642  66.865  1.00  0.00    -0.166 NA 
HETATM   44  C   UNL     1     -10.856   4.533  64.842  1.00  0.00    -0.018 C  
ENDBRANCH  38  39
ENDBRANCH  27  32
ENDBRANCH  26  27
ENDBRANCH  23  26
ENDBRANCH  14  17
ENDBRANCH  10  11
ENDBRANCH   6  10
ENDBRANCH   4   6
ENDBRANCH   3   4
ENDBRANCH   2   3
TORSDOF 10
ENDMDL
MODEL      159
REMARK 921   NORMALIZED FREE ENERGY PREDICTED BY IDOCK:   -4.53 KCAL/MOL
REMARK 922        TOTAL FREE ENERGY PREDICTED BY IDOCK:   -9.52 KCAL/MOL
REMARK 923 INTER-LIGAND FREE ENERGY PREDICTED BY IDOCK:   -8.06 KCAL/MOL
REMARK 924 INTRA-LIGAND FREE ENERGY PREDICTED BY IDOCK:   -1.46 KCAL/MOL
REMARK 927      BINDING AFFINITY PREDICTED BY RF-SCORE:    0.00 PKD
ROOT
HETATM    1  C   UNL     1     -12.259  13.175  63.240  1.00  0.00    -0.438 C  
HETATM    2  C   UNL     1     -11.060  13.446  64.130  1.00  0.00    -0.327 C  
ENDROOT
BRANCH   2   3
HETATM    3  O   UNL     1     -11.445  14.435  65.093  1.00  0.00    -0.334 OA 
BRANCH   3   4
HETATM    4  C   UNL     1     -10.797  15.634  64.969  1.00  0.00    -0.450 C  
HETATM    5  O   UNL     1     -11.246  16.621  64.401  1.00  0.00    -1.033 OA 
BRANCH   4   6
HETATM    6  C   UNL     1      -9.444  15.540  65.685  1.00  0.00    -0.236 C  
HETATM    7  N   UNL     1      -8.900  16.906  65.870  1.00  0.00    -0.529 NA 
HETATM    8  H2  UNL     1      -9.554  17.523  66.354  1.00  0.00     0.000 HD 
HETATM    9  H1  UNL     1      -8.000  16.843  66.346  1.00  0.00     0.000 HD 
BRANCH   6  10
HETATM   10  C   UNL     1      -9.587  14.792  67.028  1.00  0.00    -0.248 C  
BRANCH  10  11
HETATM   11  C   UNL     1      -8.904  13.434  67.138  1.00  0.00    -0.225 A  
HETATM   12  C   UNL     1      -7.696  13.230  67.813  1.00  0.00    -0.159 A  
HETATM   13  C   UNL     1      -7.096  11.948  67.860  1.00  0.00    -0.093 A  
HETATM   14  C   UNL     1      -7.667  10.819  67.232  1.00  0.00    -0.109 A  
HETATM   15  C   UNL     1      -8.920  11.038  66.631  1.00  0.00    -0.176 A  
HETATM   16  C   UNL     1      -9.517  12.310  66.577  1.00  0.00    -0.238 A  
BRANCH  14  17
HETATM   17  C   UNL     1      -6.940   9.506  67.121  1.00  0.00    -0.085 A  
HETATM   18  N   UNL     1      -6.297   9.261  65.955  1.00  0.00    -0.067 NA 
HETATM   19  C   UNL     1      -5.795   8.034  65.758  1.00  0.00    -0.037 A  
HETATM   20  N   UNL     1      -5.931   6.990  66.583  1.00  0.00    -0.033 NA 
HETATM   21  N   UNL     1      -5.154   7.797  64.559  1.00  0.00    -0.029 NA 
HETATM   22  H1  UNL     1      -4.773   6.863  64.409  1.00  0.00     0.000 HD 
HETATM   23  C   UNL     1      -6.550   7.256  67.737  1.00  0.00    -0.053 A  
HETATM   24  H2  UNL     1      -5.066   8.526  63.851  1.00  0.00     0.000 HD 
HETATM   25  C   UNL     1      -7.028   8.506  68.078  1.00  0.00    -0.074 A  
BRANCH  23  26
HETATM   26  O   UNL     1      -6.880   6.226  68.600  1.00  0.00    -0.068 OA 
BRANCH  26  27
HETATM   27  C   UNL     1      -8.151   5.562  68.399  1.00  0.00    -0.099 C  
HETATM   28  C   UNL     1      -8.116   4.235  67.599  1.00  0.00    -0.095 C  
HETATM   29  F   UNL     1      -6.934   3.981  66.994  1.00  0.00    -0.056 F  
HETATM   30  F   UNL     1      -9.057   4.285  66.610  1.00  0.00    -0.112 F  
HETATM   31  F   UNL     1      -8.433   3.146  68.341  1.00  0.00    -0.081 F  
BRANCH  27  32
HETATM   32  C   UNL     1      -8.924   5.427  69.748  1.00  0.00    -0.146 A  
HETATM   33  C   UNL     1      -8.458   4.433  70.641  1.00  0.00    -0.101 A  
HETATM   34  C   UNL     1      -9.150   4.112  71.812  1.00  0.00    -0.168 A  
HETATM   35  C   UNL     1     -10.336   4.764  72.111  1.00  0.00    -0.190 A  
HETATM   36  C   UNL     1     -10.781   5.816  71.311  1.00  0.00    -0.323 A  
HETATM   37 CL   UNL     1     -11.261   4.280  73.480  1.00  0.00    -0.374 Cl 
HETATM   38  C   UNL     1     -10.053   6.195  70.164  1.00  0.00    -0.184 A  
BRANCH  38  39
HETATM   39  N   UNL     1     -10.464   7.373  69.473  1.00  0.00    -0.228 NA 
HETATM   40  C   UNL     1     -10.720   7.565  68.127  1.00  0.00    -0.085 A  
HETATM   41  C   UNL     1     -10.873   8.922  67.948  1.00  0.00    -0.096 A  
HETATM   42  C   UNL     1     -10.782   9.456  69.240  1.00  0.00    -0.211 A  
HETATM   43  N   UNL     1     -10.711   8.502  70.155  1.00  0.00    -0.234 NA 
HETATM   44  C   UNL     1     -10.729  10.870  69.689  1.00  0.00    -0.232 C  
ENDBRANCH  38  39
ENDBRANCH  27  32
ENDBRANCH  26  27
ENDBRANCH  23  26
ENDBRANCH  14  17
ENDBRANCH  10  11
ENDBRANCH   6  10
ENDBRANCH   4   6
ENDBRANCH   3   4
ENDBRANCH   2   3
TORSDOF 10
ENDMDL
MODEL      160
REMARK 921   NORMALIZED FREE ENERGY PREDICTED BY IDOCK:   -4.52 KCAL/MOL
REMARK 922        TOTAL FREE ENERGY PREDICTED BY IDOCK:   -9.51 KCAL/MOL
REMARK 923 INTER-LIGAND FREE ENERGY PREDICTED BY IDOCK:   -8.43 KCAL/MOL
REMARK 924 INTRA-LIGAND FREE ENERGY PREDICTED BY IDOCK:   -1.08 KCAL/MOL
REMARK 927      BINDING AFFINITY PREDICTED BY RF-SCORE:    0.00 PKD
ROOT
HETATM    1  C   UNL     1      -9.186   8.676  65.348  1.00  0.00    -0.103 C  
HETATM    2  C   UNL     1      -8.159   7.848  66.099  1.00  0.00    -0.109 C  
ENDROOT
BRANCH   2   3
HETATM    3  O   UNL     1      -8.815   7.258  67.227  1.00  0.00    -0.122 OA 
BRANCH   3   4
HETATM    4  C   UNL     1      -8.282   7.599  68.440  1.00  0.00    -0.125 C  
HETATM    5  O   UNL     1      -7.294   8.303  68.603  1.00  0.00    -0.085 OA 
BRANCH   4   6
HETATM    6  C   UNL     1      -9.147   6.984  69.549  1.00  0.00    -0.146 C  
HETATM    7  N   UNL     1      -8.616   7.409  70.866  1.00  0.00    -0.134 NA 
HETATM    8  H2  UNL     1      -8.544   8.423  70.947  1.00  0.00     0.000 HD 
HETATM    9  H1  UNL     1      -9.191   7.000  71.602  1.00  0.00     0.000 HD 
BRANCH   6  10
HETATM   10  C   UNL     1     -10.628   7.381  69.371  1.00  0.00    -0.231 C  
BRANCH  10  11
HETATM   11  C   UNL     1     -10.963   8.864  69.476  1.00  0.00    -0.097 A  
HETATM   12  C   UNL     1     -11.144   9.695  68.367  1.00  0.00    -0.090 A  
HETATM   13  C   UNL     1     -11.430  11.073  68.529  1.00  0.00    -0.379 A  
HETATM   14  C   UNL     1     -11.539  11.682  69.799  1.00  0.00    -0.389 A  
HETATM   15  C   UNL     1     -11.431  10.806  70.894  1.00  0.00    -0.096 A  
HETATM   16  C   UNL     1     -11.143   9.438  70.738  1.00  0.00    -0.365 A  
BRANCH  14  17
HETATM   17  C   UNL     1     -11.654  13.173  69.969  1.00  0.00    -0.131 A  
HETATM   18  N   UNL     1     -12.704  13.624  70.694  1.00  0.00    -0.272 NA 
HETATM   19  C   UNL     1     -12.936  14.944  70.713  1.00  0.00    -0.365 A  
HETATM   20  N   UNL     1     -12.263  15.868  70.018  1.00  0.00    -0.280 NA 
HETATM   21  N   UNL     1     -14.017  15.388  71.446  1.00  0.00    -0.565 NA 
HETATM   22  H1  UNL     1     -14.194  16.392  71.461  1.00  0.00     0.000 HD 
HETATM   23  C   UNL     1     -11.218  15.407  69.324  1.00  0.00    -0.296 A  
HETATM   24  H2  UNL     1     -14.617  14.737  71.954  1.00  0.00     0.000 HD 
HETATM   25  C   UNL     1     -10.840  14.078  69.306  1.00  0.00    -0.192 A  
BRANCH  23  26
HETATM   26  O   UNL     1     -10.542  16.241  68.452  1.00  0.00    -0.271 OA 
BRANCH  26  27
HETATM   27  C   UNL     1     -10.289  15.749  67.112  1.00  0.00    -0.291 C  
HETATM   28  C   UNL     1     -10.124  16.821  66.006  1.00  0.00    -0.332 C  
HETATM   29  F   UNL     1     -10.464  18.072  66.387  1.00  0.00    -0.347 F  
HETATM   30  F   UNL     1     -10.932  16.502  64.952  1.00  0.00    -0.420 F  
HETATM   31  F   UNL     1      -8.871  16.880  65.491  1.00  0.00    -0.101 F  
BRANCH  27  32
HETATM   32  C   UNL     1      -9.126  14.709  67.117  1.00  0.00    -0.236 A  
HETATM   33  C   UNL     1      -9.402  13.458  66.514  1.00  0.00    -0.225 A  
HETATM   34  C   UNL     1      -8.500  12.392  66.583  1.00  0.00    -0.033 A  
HETATM   35  C   UNL     1      -7.307  12.543  67.272  1.00  0.00    -0.113 A  
HETATM   36  C   UNL     1      -6.951  13.786  67.796  1.00  0.00    -0.178 A  
HETATM   37 CL   UNL     1      -6.255  11.196  67.475  1.00  0.00    -0.057 Cl 
HETATM   38  C   UNL     1      -7.823  14.888  67.671  1.00  0.00    -0.172 A  
BRANCH  38  39
HETATM   39  N   UNL     1      -7.344  16.166  68.083  1.00  0.00    -0.129 NA 
HETATM   40  C   UNL     1      -7.164  17.322  67.345  1.00  0.00    -0.161 A  
HETATM   41  C   UNL     1      -6.482  18.202  68.157  1.00  0.00    -0.192 A  
HETATM   42  C   UNL     1      -6.373  17.531  69.382  1.00  0.00    -0.246 A  
HETATM   43  N   UNL     1      -7.044  16.390  69.371  1.00  0.00    -0.221 NA 
HETATM   44  C   UNL     1      -5.624  17.898  70.610  1.00  0.00    -0.131 C  
ENDBRANCH  38  39
ENDBRANCH  27  32
ENDBRANCH  26  27
ENDBRANCH  23  26
ENDBRANCH  14  17
ENDBRANCH  10  11
ENDBRANCH   6  10
ENDBRANCH   4   6
ENDBRANCH   3   4
ENDBRANCH   2   3
TORSDOF 10
ENDMDL
MODEL      161
REMARK 921   NORMALIZED FREE ENERGY PREDICTED BY IDOCK:   -4.49 KCAL/MOL
REMARK 922        TOTAL FREE ENERGY PREDICTED BY IDOCK:   -9.45 KCAL/MOL
REMARK 923 INTER-LIGAND FREE ENERGY PREDICTED BY IDOCK:   -8.70 KCAL/MOL
REMARK 924 INTRA-LIGAND FREE ENERGY PREDICTED BY IDOCK:   -0.75 KCAL/MOL
REMARK 927      BINDING AFFINITY PREDICTED BY RF-SCORE:    0.00 PKD
ROOT
HETATM    1  C   UNL     1      -7.718   1.516  64.439  1.00  0.00    -0.060 C  
HETATM    2  C   UNL     1      -8.574   2.358  65.367  1.00  0.00    -0.113 C  
ENDROOT
BRANCH   2   3
HETATM    3  O   UNL     1      -7.819   3.522  65.723  1.00  0.00    -0.087 OA 
BRANCH   3   4
HETATM    4  C   UNL     1      -8.501   4.703  65.608  1.00  0.00    -0.118 C  
HETATM    5  O   UNL     1      -9.361   5.098  66.385  1.00  0.00    -0.134 OA 
BRANCH   4   6
HETATM    6  C   UNL     1      -7.985   5.452  64.372  1.00  0.00    -0.117 C  
HETATM    7  N   UNL     1      -9.116   5.687  63.444  1.00  0.00    -0.157 NA 
HETATM    8  H2  UNL     1      -9.895   6.169  63.893  1.00  0.00     0.000 HD 
HETATM    9  H1  UNL     1      -8.772   6.185  62.623  1.00  0.00     0.000 HD 
BRANCH   6  10
HETATM   10  C   UNL     1      -7.294   6.771  64.782  1.00  0.00    -0.088 C  
BRANCH  10  11
HETATM   11  C   UNL     1      -8.176   8.008  64.889  1.00  0.00    -0.137 A  
HETATM   12  C   UNL     1      -8.760   8.439  66.084  1.00  0.00    -0.175 A  
HETATM   13  C   UNL     1      -9.592   9.585  66.115  1.00  0.00    -0.302 A  
HETATM   14  C   UNL     1      -9.885  10.344  64.961  1.00  0.00    -0.384 A  
HETATM   15  C   UNL     1      -9.219   9.933  63.791  1.00  0.00    -0.289 A  
HETATM   16  C   UNL     1      -8.396   8.794  63.753  1.00  0.00    -0.140 A  
BRANCH  14  17
HETATM   17  C   UNL     1     -10.913  11.443  64.959  1.00  0.00    -0.204 A  
HETATM   18  N   UNL     1     -11.337  11.878  63.749  1.00  0.00    -0.418 NA 
HETATM   19  C   UNL     1     -12.113  12.970  63.709  1.00  0.00    -0.502 A  
HETATM   20  N   UNL     1     -12.455  13.726  64.758  1.00  0.00    -0.593 NA 
HETATM   21  N   UNL     1     -12.527  13.409  62.468  1.00  0.00    -0.320 NA 
HETATM   22  H1  UNL     1     -13.116  14.240  62.437  1.00  0.00     0.000 HD 
HETATM   23  C   UNL     1     -12.044  13.271  65.945  1.00  0.00    -0.441 A  
HETATM   24  H2  UNL     1     -12.254  12.921  61.614  1.00  0.00     0.000 HD 
HETATM   25  C   UNL     1     -11.315  12.109  66.106  1.00  0.00    -0.414 A  
BRANCH  23  26
HETATM   26  O   UNL     1     -12.209  14.044  67.080  1.00  0.00    -0.430 OA 
BRANCH  26  27
HETATM   27  C   UNL     1     -11.096  14.873  67.495  1.00  0.00    -0.317 C  
HETATM   28  C   UNL     1     -11.421  16.010  68.497  1.00  0.00    -0.357 C  
HETATM   29  F   UNL     1     -12.742  16.229  68.681  1.00  0.00     0.330 F  
HETATM   30  F   UNL     1     -10.893  17.180  68.030  1.00  0.00    -0.352 F  
HETATM   31  F   UNL     1     -10.865  15.829  69.720  1.00  0.00    -0.222 F  
BRANCH  27  32
HETATM   32  C   UNL     1      -9.893  13.993  67.958  1.00  0.00    -0.228 A  
HETATM   33  C   UNL     1      -8.626  14.332  67.425  1.00  0.00    -0.223 A  
HETATM   34  C   UNL     1      -7.499  13.535  67.642  1.00  0.00    -0.187 A  
HETATM   35  C   UNL     1      -7.612  12.368  68.382  1.00  0.00    -0.129 A  
HETATM   36  C   UNL     1      -8.817  12.048  69.006  1.00  0.00     0.345 A  
HETATM   37 CL   UNL     1      -6.260  11.315  68.539  1.00  0.00    -0.046 Cl 
HETATM   38  C   UNL     1      -9.945  12.882  68.852  1.00  0.00     0.107 A  
BRANCH  38  39
HETATM   39  N   UNL     1     -11.099  12.593  69.637  1.00  0.00     0.002 NA 
HETATM   40  C   UNL     1     -11.929  13.450  70.337  1.00  0.00    -0.285 A  
HETATM   41  C   UNL     1     -12.762  12.656  71.095  1.00  0.00    -0.347 A  
HETATM   42  C   UNL     1     -12.425  11.347  70.725  1.00  0.00    -0.365 A  
HETATM   43  N   UNL     1     -11.553  11.334  69.729  1.00  0.00    -0.305 NA 
HETATM   44  C   UNL     1     -12.871  10.049  71.290  1.00  0.00    -0.500 C  
ENDBRANCH  38  39
ENDBRANCH  27  32
ENDBRANCH  26  27
ENDBRANCH  23  26
ENDBRANCH  14  17
ENDBRANCH  10  11
ENDBRANCH   6  10
ENDBRANCH   4   6
ENDBRANCH   3   4
ENDBRANCH   2   3
TORSDOF 10
ENDMDL
MODEL      162
REMARK 921   NORMALIZED FREE ENERGY PREDICTED BY IDOCK:   -4.49 KCAL/MOL
REMARK 922        TOTAL FREE ENERGY PREDICTED BY IDOCK:   -9.45 KCAL/MOL
REMARK 923 INTER-LIGAND FREE ENERGY PREDICTED BY IDOCK:   -7.72 KCAL/MOL
REMARK 924 INTRA-LIGAND FREE ENERGY PREDICTED BY IDOCK:   -1.73 KCAL/MOL
REMARK 927      BINDING AFFINITY PREDICTED BY RF-SCORE:    0.00 PKD
ROOT
HETATM    1  C   UNL     1      -5.283  18.841  70.359  1.00  0.00    -0.220 C  
HETATM    2  C   UNL     1      -6.568  19.643  70.461  1.00  0.00     0.060 C  
ENDROOT
BRANCH   2   3
HETATM    3  O   UNL     1      -6.721  20.379  69.242  1.00  0.00    -0.211 OA 
BRANCH   3   4
HETATM    4  C   UNL     1      -7.585  19.819  68.341  1.00  0.00    -0.301 C  
HETATM    5  O   UNL     1      -8.690  19.368  68.611  1.00  0.00    -0.361 OA 
BRANCH   4   6
HETATM    6  C   UNL     1      -6.951  19.885  66.945  1.00  0.00    -0.213 C  
HETATM    7  N   UNL     1      -6.009  21.027  66.896  1.00  0.00    -0.238 NA 
HETATM    8  H2  UNL     1      -5.310  20.987  67.638  1.00  0.00     0.000 HD 
HETATM    9  H1  UNL     1      -5.588  21.071  65.968  1.00  0.00     0.000 HD 
BRANCH   6  10
HETATM   10  C   UNL     1      -6.255  18.551  66.596  1.00  0.00    -0.197 C  
BRANCH  10  11
HETATM   11  C   UNL     1      -7.089  17.283  66.726  1.00  0.00    -0.248 A  
HETATM   12  C   UNL     1      -6.731  16.203  67.539  1.00  0.00    -0.198 A  
HETATM   13  C   UNL     1      -7.536  15.039  67.600  1.00  0.00    -0.198 A  
HETATM   14  C   UNL     1      -8.724  14.897  66.849  1.00  0.00    -0.276 A  
HETATM   15  C   UNL     1      -9.100  16.030  66.104  1.00  0.00    -0.387 A  
HETATM   16  C   UNL     1      -8.301  17.186  66.037  1.00  0.00    -0.169 A  
BRANCH  14  17
HETATM   17  C   UNL     1      -9.475  13.595  66.769  1.00  0.00    -0.270 A  
HETATM   18  N   UNL     1     -10.665  13.617  66.126  1.00  0.00    -0.284 NA 
HETATM   19  C   UNL     1     -11.438  12.524  66.192  1.00  0.00    -0.377 A  
HETATM   20  N   UNL     1     -11.175  11.421  66.902  1.00  0.00    -0.345 NA 
HETATM   21  N   UNL     1     -12.654  12.566  65.542  1.00  0.00    -0.573 NA 
HETATM   22  H1  UNL     1     -13.242  11.734  65.593  1.00  0.00     0.000 HD 
HETATM   23  C   UNL     1      -9.987  11.410  67.514  1.00  0.00    -0.182 A  
HETATM   24  H2  UNL     1     -12.954  13.396  65.031  1.00  0.00     0.000 HD 
HETATM   25  C   UNL     1      -9.079  12.448  67.438  1.00  0.00    -0.183 A  
BRANCH  23  26
HETATM   26  O   UNL     1      -9.671  10.392  68.395  1.00  0.00    -0.150 OA 
BRANCH  26  27
HETATM   27  C   UNL     1     -10.053   9.043  68.030  1.00  0.00    -0.190 C  
HETATM   28  C   UNL     1      -9.469   8.497  66.703  1.00  0.00    -0.207 C  
HETATM   29  F   UNL     1      -8.858   9.430  65.939  1.00  0.00    -0.142 F  
HETATM   30  F   UNL     1     -10.483   7.978  65.949  1.00  0.00     0.115 F  
HETATM   31  F   UNL     1      -8.593   7.477  66.876  1.00  0.00    -0.115 F  
BRANCH  27  32
HETATM   32  C   UNL     1      -9.838   8.064  69.227  1.00  0.00    -0.178 A  
HETATM   33  C   UNL     1     -10.806   7.043  69.382  1.00  0.00    -0.253 A  
HETATM   34  C   UNL     1     -10.811   6.196  70.495  1.00  0.00    -0.364 A  
HETATM   35  C   UNL     1      -9.860   6.361  71.490  1.00  0.00    -0.168 A  
HETATM   36  C   UNL     1      -8.831   7.289  71.330  1.00  0.00    -0.130 A  
HETATM   37 CL   UNL     1      -9.942   5.412  72.923  1.00  0.00    -0.187 Cl 
HETATM   38  C   UNL     1      -8.775   8.101  70.178  1.00  0.00    -0.130 A  
BRANCH  38  39
HETATM   39  N   UNL     1      -7.621   8.917  69.993  1.00  0.00    -0.061 NA 
HETATM   40  C   UNL     1      -7.110   9.921  70.797  1.00  0.00     0.037 A  
HETATM   41  C   UNL     1      -6.114  10.535  70.070  1.00  0.00    -0.091 A  
HETATM   42  C   UNL     1      -6.035   9.787  68.888  1.00  0.00    -0.038 A  
HETATM   43  N   UNL     1      -6.821   8.723  68.934  1.00  0.00    -0.060 NA 
HETATM   44  C   UNL     1      -5.252  10.033  67.651  1.00  0.00    -0.034 C  
ENDBRANCH  38  39
ENDBRANCH  27  32
ENDBRANCH  26  27
ENDBRANCH  23  26
ENDBRANCH  14  17
ENDBRANCH  10  11
ENDBRANCH   6  10
ENDBRANCH   4   6
ENDBRANCH   3   4
ENDBRANCH   2   3
TORSDOF 10
ENDMDL
MODEL      163
REMARK 921   NORMALIZED FREE ENERGY PREDICTED BY IDOCK:   -4.47 KCAL/MOL
REMARK 922        TOTAL FREE ENERGY PREDICTED BY IDOCK:   -9.42 KCAL/MOL
REMARK 923 INTER-LIGAND FREE ENERGY PREDICTED BY IDOCK:   -8.94 KCAL/MOL
REMARK 924 INTRA-LIGAND FREE ENERGY PREDICTED BY IDOCK:   -0.48 KCAL/MOL
REMARK 927      BINDING AFFINITY PREDICTED BY RF-SCORE:    0.00 PKD
ROOT
HETATM    1  C   UNL     1      -8.884   2.431  70.399  1.00  0.00    -0.137 C  
HETATM    2  C   UNL     1      -9.874   2.678  71.523  1.00  0.00    -0.123 C  
ENDROOT
BRANCH   2   3
HETATM    3  O   UNL     1      -9.278   3.610  72.433  1.00  0.00    -0.109 OA 
BRANCH   3   4
HETATM    4  C   UNL     1      -8.993   4.834  71.892  1.00  0.00    -0.127 C  
HETATM    5  O   UNL     1      -7.869   5.264  71.674  1.00  0.00    -0.105 OA 
BRANCH   4   6
HETATM    6  C   UNL     1     -10.313   5.552  71.577  1.00  0.00    -0.222 C  
HETATM    7  N   UNL     1     -10.438   6.738  72.455  1.00  0.00    -0.203 NA 
HETATM    8  H2  UNL     1      -9.632   7.360  72.387  1.00  0.00     0.000 HD 
HETATM    9  H1  UNL     1     -11.315   7.215  72.246  1.00  0.00     0.000 HD 
BRANCH   6  10
HETATM   10  C   UNL     1     -10.385   5.933  70.082  1.00  0.00    -0.305 C  
BRANCH  10  11
HETATM   11  C   UNL     1      -9.822   7.293  69.689  1.00  0.00    -0.163 A  
HETATM   12  C   UNL     1     -10.502   8.498  69.893  1.00  0.00    -0.219 A  
HETATM   13  C   UNL     1      -9.937   9.731  69.483  1.00  0.00    -0.230 A  
HETATM   14  C   UNL     1      -8.679   9.816  68.847  1.00  0.00    -0.136 A  
HETATM   15  C   UNL     1      -7.985   8.597  68.728  1.00  0.00    -0.114 A  
HETATM   16  C   UNL     1      -8.544   7.370  69.130  1.00  0.00    -0.136 A  
BRANCH  14  17
HETATM   17  C   UNL     1      -8.166  11.096  68.245  1.00  0.00    -0.134 A  
HETATM   18  N   UNL     1      -7.035  11.012  67.506  1.00  0.00    -0.082 NA 
HETATM   19  C   UNL     1      -6.456  12.154  67.109  1.00  0.00    -0.135 A  
HETATM   20  N   UNL     1      -6.853  13.389  67.436  1.00  0.00    -0.152 NA 
HETATM   21  N   UNL     1      -5.297  12.052  66.368  1.00  0.00    -0.464 NA 
HETATM   22  H1  UNL     1      -4.856  12.920  66.065  1.00  0.00     0.000 HD 
HETATM   23  C   UNL     1      -7.981  13.452  68.148  1.00  0.00    -0.150 A  
HETATM   24  H2  UNL     1      -4.896  11.144  66.131  1.00  0.00     0.000 HD 
HETATM   25  C   UNL     1      -8.704  12.340  68.535  1.00  0.00    -0.071 A  
BRANCH  23  26
HETATM   26  O   UNL     1      -8.405  14.661  68.670  1.00  0.00    -0.155 OA 
BRANCH  26  27
HETATM   27  C   UNL     1      -9.272  15.481  67.848  1.00  0.00    -0.187 C  
HETATM   28  C   UNL     1      -8.594  16.644  67.080  1.00  0.00    -0.192 C  
HETATM   29  F   UNL     1      -7.318  16.887  67.452  1.00  0.00    -0.151 F  
HETATM   30  F   UNL     1      -9.292  17.796  67.308  1.00  0.00    -0.244 F  
HETATM   31  F   UNL     1      -8.601  16.481  65.735  1.00  0.00    -0.342 F  
BRANCH  27  32
HETATM   32  C   UNL     1     -10.162  14.592  66.925  1.00  0.00    -0.262 A  
HETATM   33  C   UNL     1      -9.679  14.370  65.613  1.00  0.00    -0.258 A  
HETATM   34  C   UNL     1     -10.448  13.719  64.645  1.00  0.00    -0.433 A  
HETATM   35  C   UNL     1     -11.728  13.289  64.958  1.00  0.00    -0.333 A  
HETATM   36  C   UNL     1     -12.206  13.399  66.264  1.00  0.00    -0.456 A  
HETATM   37 CL   UNL     1     -12.729  12.607  63.735  1.00  0.00    -0.388 Cl 
HETATM   38  C   UNL     1     -11.411  13.992  67.267  1.00  0.00    -0.348 A  
BRANCH  38  39
HETATM   39  N   UNL     1     -11.883  13.937  68.611  1.00  0.00    -0.356 NA 
HETATM   40  C   UNL     1     -12.001  14.947  69.548  1.00  0.00    -0.310 A  
HETATM   41  C   UNL     1     -12.302  14.336  70.746  1.00  0.00    -0.427 A  
HETATM   42  C   UNL     1     -12.431  12.980  70.421  1.00  0.00    -0.194 A  
HETATM   43  N   UNL     1     -12.349  12.784  69.114  1.00  0.00     0.012 NA 
HETATM   44  C   UNL     1     -12.610  11.798  71.302  1.00  0.00    -0.401 C  
ENDBRANCH  38  39
ENDBRANCH  27  32
ENDBRANCH  26  27
ENDBRANCH  23  26
ENDBRANCH  14  17
ENDBRANCH  10  11
ENDBRANCH   6  10
ENDBRANCH   4   6
ENDBRANCH   3   4
ENDBRANCH   2   3
TORSDOF 10
ENDMDL
MODEL      164
REMARK 921   NORMALIZED FREE ENERGY PREDICTED BY IDOCK:   -4.44 KCAL/MOL
REMARK 922        TOTAL FREE ENERGY PREDICTED BY IDOCK:   -9.38 KCAL/MOL
REMARK 923 INTER-LIGAND FREE ENERGY PREDICTED BY IDOCK:   -8.40 KCAL/MOL
REMARK 924 INTRA-LIGAND FREE ENERGY PREDICTED BY IDOCK:   -0.98 KCAL/MOL
REMARK 927      BINDING AFFINITY PREDICTED BY RF-SCORE:    0.00 PKD
ROOT
HETATM    1  C   UNL     1     -11.665  17.372  73.972  1.00  0.00     0.333 C  
HETATM    2  C   UNL     1     -11.820  16.102  73.155  1.00  0.00    -0.371 C  
ENDROOT
BRANCH   2   3
HETATM    3  O   UNL     1     -13.173  16.045  72.689  1.00  0.00    -0.460 OA 
BRANCH   3   4
HETATM    4  C   UNL     1     -13.335  15.424  71.480  1.00  0.00    -0.500 C  
HETATM    5  O   UNL     1     -14.399  15.297  70.890  1.00  0.00    -0.308 OA 
BRANCH   4   6
HETATM    6  C   UNL     1     -11.963  14.949  70.983  1.00  0.00    -0.320 C  
HETATM    7  N   UNL     1     -11.937  13.468  70.978  1.00  0.00    -0.448 NA 
HETATM    8  H2  UNL     1     -12.706  13.068  70.439  1.00  0.00     0.000 HD 
HETATM    9  H1  UNL     1     -11.025  13.153  70.648  1.00  0.00     0.000 HD 
BRANCH   6  10
HETATM   10  C   UNL     1     -11.654  15.534  69.588  1.00  0.00    -0.359 C  
BRANCH  10  11
HETATM   11  C   UNL     1     -11.059  14.583  68.557  1.00  0.00    -0.271 A  
HETATM   12  C   UNL     1     -11.764  14.108  67.447  1.00  0.00    -0.422 A  
HETATM   13  C   UNL     1     -11.164  13.205  66.536  1.00  0.00    -0.339 A  
HETATM   14  C   UNL     1      -9.844  12.730  66.695  1.00  0.00    -0.250 A  
HETATM   15  C   UNL     1      -9.134  13.286  67.774  1.00  0.00    -0.202 A  
HETATM   16  C   UNL     1      -9.726  14.180  68.684  1.00  0.00    -0.196 A  
BRANCH  14  17
HETATM   17  C   UNL     1      -9.275  11.631  65.838  1.00  0.00    -0.196 A  
HETATM   18  N   UNL     1      -9.814  11.479  64.606  1.00  0.00    -0.248 NA 
HETATM   19  C   UNL     1      -9.457  10.403  63.891  1.00  0.00    -0.304 A  
HETATM   20  N   UNL     1      -8.661   9.412  64.310  1.00  0.00    -0.201 NA 
HETATM   21  N   UNL     1     -10.025  10.254  62.642  1.00  0.00    -0.650 NA 
HETATM   22  H1  UNL     1      -9.754   9.435  62.098  1.00  0.00     0.000 HD 
HETATM   23  C   UNL     1      -8.123   9.591  65.519  1.00  0.00    -0.116 A  
HETATM   24  H2  UNL     1     -10.691  10.936  62.277  1.00  0.00     0.000 HD 
HETATM   25  C   UNL     1      -8.356  10.704  66.303  1.00  0.00    -0.155 A  
BRANCH  23  26
HETATM   26  O   UNL     1      -7.408   8.568  66.117  1.00  0.00    -0.079 OA 
BRANCH  26  27
HETATM   27  C   UNL     1      -8.155   7.443  66.643  1.00  0.00    -0.123 C  
HETATM   28  C   UNL     1      -8.542   6.339  65.627  1.00  0.00    -0.139 C  
HETATM   29  F   UNL     1      -8.332   6.674  64.335  1.00  0.00    -0.117 F  
HETATM   30  F   UNL     1      -9.875   6.070  65.749  1.00  0.00    -0.081 F  
HETATM   31  F   UNL     1      -7.915   5.157  65.847  1.00  0.00    -0.101 F  
BRANCH  27  32
HETATM   32  C   UNL     1      -7.463   6.868  67.919  1.00  0.00    -0.099 A  
HETATM   33  C   UNL     1      -6.208   6.244  67.723  1.00  0.00    -0.032 A  
HETATM   34  C   UNL     1      -5.556   5.561  68.754  1.00  0.00    -0.008 A  
HETATM   35  C   UNL     1      -6.152   5.468  70.002  1.00  0.00    -0.022 A  
HETATM   36  C   UNL     1      -7.340   6.150  70.266  1.00  0.00    -0.088 A  
HETATM   37 CL   UNL     1      -5.420   4.516  71.235  1.00  0.00    -0.010 Cl 
HETATM   38  C   UNL     1      -7.970   6.901  69.252  1.00  0.00    -0.116 A  
BRANCH  38  39
HETATM   39  N   UNL     1      -9.091   7.703  69.616  1.00  0.00    -0.147 NA 
HETATM   40  C   UNL     1      -9.533   8.900  69.082  1.00  0.00    -0.157 A  
HETATM   41  C   UNL     1     -10.520   9.364  69.923  1.00  0.00    -0.257 A  
HETATM   42  C   UNL     1     -10.666   8.350  70.879  1.00  0.00    -0.222 A  
HETATM   43  N   UNL     1      -9.929   7.292  70.580  1.00  0.00    -0.186 NA 
HETATM   44  C   UNL     1     -11.473   8.319  72.125  1.00  0.00    -0.427 C  
ENDBRANCH  38  39
ENDBRANCH  27  32
ENDBRANCH  26  27
ENDBRANCH  23  26
ENDBRANCH  14  17
ENDBRANCH  10  11
ENDBRANCH   6  10
ENDBRANCH   4   6
ENDBRANCH   3   4
ENDBRANCH   2   3
TORSDOF 10
ENDMDL
MODEL      165
REMARK 921   NORMALIZED FREE ENERGY PREDICTED BY IDOCK:   -4.41 KCAL/MOL
REMARK 922        TOTAL FREE ENERGY PREDICTED BY IDOCK:   -9.32 KCAL/MOL
REMARK 923 INTER-LIGAND FREE ENERGY PREDICTED BY IDOCK:   -9.29 KCAL/MOL
REMARK 924 INTRA-LIGAND FREE ENERGY PREDICTED BY IDOCK:   -0.03 KCAL/MOL
REMARK 927      BINDING AFFINITY PREDICTED BY RF-SCORE:    0.00 PKD
ROOT
HETATM    1  C   UNL     1     -12.534  16.183  74.559  1.00  0.00    -0.626 C  
HETATM    2  C   UNL     1     -12.772  15.961  73.076  1.00  0.00    -0.507 C  
ENDROOT
BRANCH   2   3
HETATM    3  O   UNL     1     -11.581  16.348  72.380  1.00  0.00    -0.435 OA 
BRANCH   3   4
HETATM    4  C   UNL     1     -11.374  15.694  71.196  1.00  0.00    -0.393 C  
HETATM    5  O   UNL     1     -10.289  15.305  70.786  1.00  0.00    -0.098 OA 
BRANCH   4   6
HETATM    6  C   UNL     1     -12.726  15.504  70.496  1.00  0.00    -0.388 C  
HETATM    7  N   UNL     1     -12.490  15.217  69.061  1.00  0.00    -0.577 NA 
HETATM    8  H2  UNL     1     -11.865  14.423  68.921  1.00  0.00     0.000 HD 
HETATM    9  H1  UNL     1     -13.389  15.091  68.596  1.00  0.00     0.000 HD 
BRANCH   6  10
HETATM   10  C   UNL     1     -13.543  14.385  71.178  1.00  0.00    -0.338 C  
BRANCH  10  11
HETATM   11  C   UNL     1     -12.973  12.974  71.109  1.00  0.00    -0.265 A  
HETATM   12  C   UNL     1     -12.053  12.560  70.141  1.00  0.00    -0.368 A  
HETATM   13  C   UNL     1     -11.577  11.225  70.113  1.00  0.00    -0.393 A  
HETATM   14  C   UNL     1     -12.002  10.247  71.039  1.00  0.00    -0.483 A  
HETATM   15  C   UNL     1     -12.866  10.714  72.047  1.00  0.00    -0.389 A  
HETATM   16  C   UNL     1     -13.344  12.036  72.077  1.00  0.00    -0.447 A  
BRANCH  14  17
HETATM   17  C   UNL     1     -11.645   8.793  70.895  1.00  0.00    -0.277 A  
HETATM   18  N   UNL     1     -12.044   7.966  71.889  1.00  0.00    -0.298 NA 
HETATM   19  C   UNL     1     -11.589   6.705  71.880  1.00  0.00    -0.303 A  
HETATM   20  N   UNL     1     -10.708   6.196  71.012  1.00  0.00    -0.248 NA 
HETATM   21  N   UNL     1     -11.995   5.877  72.907  1.00  0.00    -0.515 NA 
HETATM   22  H1  UNL     1     -11.649   4.918  72.901  1.00  0.00     0.000 HD 
HETATM   23  C   UNL     1     -10.341   7.020  70.027  1.00  0.00    -0.202 A  
HETATM   24  H2  UNL     1     -12.618   6.212  73.644  1.00  0.00     0.000 HD 
HETATM   25  C   UNL     1     -10.817   8.310  69.893  1.00  0.00    -0.213 A  
BRANCH  23  26
HETATM   26  O   UNL     1      -9.325   6.657  69.161  1.00  0.00    -0.136 OA 
BRANCH  26  27
HETATM   27  C   UNL     1      -8.281   7.629  68.904  1.00  0.00    -0.128 C  
HETATM   28  C   UNL     1      -7.086   7.633  69.891  1.00  0.00    -0.063 C  
HETATM   29  F   UNL     1      -7.278   6.883  70.999  1.00  0.00    -0.069 F  
HETATM   30  F   UNL     1      -6.865   8.911  70.318  1.00  0.00    -0.037 F  
HETATM   31  F   UNL     1      -5.919   7.235  69.329  1.00  0.00    -0.026 F  
BRANCH  27  32
HETATM   32  C   UNL     1      -7.826   7.569  67.413  1.00  0.00    -0.118 A  
HETATM   33  C   UNL     1      -7.477   8.804  66.814  1.00  0.00    -0.086 A  
HETATM   34  C   UNL     1      -7.197   8.908  65.449  1.00  0.00    -0.084 A  
HETATM   35  C   UNL     1      -7.277   7.783  64.642  1.00  0.00    -0.072 A  
HETATM   36  C   UNL     1      -7.520   6.531  65.206  1.00  0.00    -0.082 A  
HETATM   37 CL   UNL     1      -7.065   7.929  62.941  1.00  0.00    -0.084 Cl 
HETATM   38  C   UNL     1      -7.735   6.404  66.595  1.00  0.00    -0.099 A  
BRANCH  38  39
HETATM   39  N   UNL     1      -7.822   5.088  67.138  1.00  0.00    -0.095 NA 
HETATM   40  C   UNL     1      -8.659   4.043  66.791  1.00  0.00    -0.106 A  
HETATM   41  C   UNL     1      -8.491   3.071  67.753  1.00  0.00    -0.102 A  
HETATM   42  C   UNL     1      -7.480   3.575  68.582  1.00  0.00    -0.053 A  
HETATM   43  N   UNL     1      -6.973   4.699  68.100  1.00  0.00    -0.056 NA 
HETATM   44  C   UNL     1      -6.952   3.058  69.870  1.00  0.00    -0.034 C  
ENDBRANCH  38  39
ENDBRANCH  27  32
ENDBRANCH  26  27
ENDBRANCH  23  26
ENDBRANCH  14  17
ENDBRANCH  10  11
ENDBRANCH   6  10
ENDBRANCH   4   6
ENDBRANCH   3   4
ENDBRANCH   2   3
TORSDOF 10
ENDMDL
MODEL      166
REMARK 921   NORMALIZED FREE ENERGY PREDICTED BY IDOCK:   -4.40 KCAL/MOL
REMARK 922        TOTAL FREE ENERGY PREDICTED BY IDOCK:   -9.31 KCAL/MOL
REMARK 923 INTER-LIGAND FREE ENERGY PREDICTED BY IDOCK:   -7.81 KCAL/MOL
REMARK 924 INTRA-LIGAND FREE ENERGY PREDICTED BY IDOCK:   -1.51 KCAL/MOL
REMARK 927      BINDING AFFINITY PREDICTED BY RF-SCORE:    0.00 PKD
ROOT
HETATM    1  C   UNL     1     -10.861  20.381  66.593  1.00  0.00     0.355 C  
HETATM    2  C   UNL     1     -10.100  19.285  67.317  1.00  0.00    -0.384 C  
ENDROOT
BRANCH   2   3
HETATM    3  O   UNL     1      -9.498  18.444  66.326  1.00  0.00    -0.387 OA 
BRANCH   3   4
HETATM    4  C   UNL     1     -10.277  17.395  65.918  1.00  0.00    -0.256 C  
HETATM    5  O   UNL     1     -10.944  17.369  64.893  1.00  0.00    -0.862 OA 
BRANCH   4   6
HETATM    6  C   UNL     1     -10.143  16.257  66.939  1.00  0.00    -0.278 C  
HETATM    7  N   UNL     1     -10.975  16.571  68.124  1.00  0.00    -0.351 NA 
HETATM    8  H2  UNL     1     -11.947  16.760  67.878  1.00  0.00     0.000 HD 
HETATM    9  H1  UNL     1     -10.885  15.814  68.802  1.00  0.00     0.000 HD 
BRANCH   6  10
HETATM   10  C   UNL     1     -10.534  14.904  66.304  1.00  0.00    -0.306 C  
BRANCH  10  11
HETATM   11  C   UNL     1      -9.965  13.648  66.952  1.00  0.00    -0.260 A  
HETATM   12  C   UNL     1      -8.669  13.566  67.470  1.00  0.00    -0.208 A  
HETATM   13  C   UNL     1      -8.187  12.361  68.039  1.00  0.00    -0.168 A  
HETATM   14  C   UNL     1      -8.970  11.187  68.107  1.00  0.00    -0.159 A  
HETATM   15  C   UNL     1     -10.293  11.324  67.651  1.00  0.00    -0.212 A  
HETATM   16  C   UNL     1     -10.775  12.516  67.082  1.00  0.00    -0.263 A  
BRANCH  14  17
HETATM   17  C   UNL     1      -8.398   9.863  68.536  1.00  0.00    -0.108 A  
HETATM   18  N   UNL     1      -7.344   9.900  69.385  1.00  0.00    -0.080 NA 
HETATM   19  C   UNL     1      -6.701   8.753  69.642  1.00  0.00    -0.039 A  
HETATM   20  N   UNL     1      -6.959   7.567  69.079  1.00  0.00    -0.071 NA 
HETATM   21  N   UNL     1      -5.621   8.809  70.499  1.00  0.00    -0.027 NA 
HETATM   22  H1  UNL     1      -5.132   7.936  70.695  1.00  0.00     0.000 HD 
HETATM   23  C   UNL     1      -8.014   7.546  68.260  1.00  0.00    -0.123 A  
HETATM   24  H2  UNL     1      -5.323   9.690  70.921  1.00  0.00     0.000 HD 
HETATM   25  C   UNL     1      -8.798   8.652  67.993  1.00  0.00    -0.141 A  
BRANCH  23  26
HETATM   26  O   UNL     1      -8.285   6.417  67.507  1.00  0.00    -0.116 OA 
BRANCH  26  27
HETATM   27  C   UNL     1      -9.507   5.694  67.794  1.00  0.00    -0.115 C  
HETATM   28  C   UNL     1     -10.170   4.961  66.600  1.00  0.00    -0.255 C  
HETATM   29  F   UNL     1      -9.648   5.277  65.394  1.00  0.00    -0.161 F  
HETATM   30  F   UNL     1     -11.493   5.295  66.551  1.00  0.00     0.043 F  
HETATM   31  F   UNL     1     -10.144   3.611  66.712  1.00  0.00    -0.171 F  
BRANCH  27  32
HETATM   32  C   UNL     1      -9.323   4.769  69.037  1.00  0.00    -0.193 A  
HETATM   33  C   UNL     1      -8.472   3.651  68.866  1.00  0.00    -0.100 A  
HETATM   34  C   UNL     1      -8.341   2.668  69.850  1.00  0.00    -0.074 A  
HETATM   35  C   UNL     1      -9.071   2.767  71.024  1.00  0.00    -0.111 A  
HETATM   36  C   UNL     1      -9.845   3.899  71.276  1.00  0.00    -0.227 A  
HETATM   37 CL   UNL     1      -9.016   1.493  72.181  1.00  0.00    -0.090 Cl 
HETATM   38  C   UNL     1      -9.930   4.932  70.318  1.00  0.00    -0.251 A  
BRANCH  38  39
HETATM   39  N   UNL     1     -10.605   6.131  70.690  1.00  0.00    -0.234 NA 
HETATM   40  C   UNL     1     -10.111   7.270  71.301  1.00  0.00    -0.189 A  
HETATM   41  C   UNL     1     -11.203   8.041  71.632  1.00  0.00    -0.301 A  
HETATM   42  C   UNL     1     -12.296   7.338  71.110  1.00  0.00    -0.345 A  
HETATM   43  N   UNL     1     -11.905   6.290  70.402  1.00  0.00    -0.246 NA 
HETATM   44  C   UNL     1     -13.753   7.583  71.262  1.00  0.00    -0.344 C  
ENDBRANCH  38  39
ENDBRANCH  27  32
ENDBRANCH  26  27
ENDBRANCH  23  26
ENDBRANCH  14  17
ENDBRANCH  10  11
ENDBRANCH   6  10
ENDBRANCH   4   6
ENDBRANCH   3   4
ENDBRANCH   2   3
TORSDOF 10
ENDMDL
MODEL      167
REMARK 921   NORMALIZED FREE ENERGY PREDICTED BY IDOCK:   -4.40 KCAL/MOL
REMARK 922        TOTAL FREE ENERGY PREDICTED BY IDOCK:   -9.31 KCAL/MOL
REMARK 923 INTER-LIGAND FREE ENERGY PREDICTED BY IDOCK:   -7.51 KCAL/MOL
REMARK 924 INTRA-LIGAND FREE ENERGY PREDICTED BY IDOCK:   -1.80 KCAL/MOL
REMARK 927      BINDING AFFINITY PREDICTED BY RF-SCORE:    0.00 PKD
ROOT
HETATM    1  C   UNL     1     -10.607  18.566  67.916  1.00  0.00    -0.385 C  
HETATM    2  C   UNL     1     -10.488  19.296  66.591  1.00  0.00    -0.449 C  
ENDROOT
BRANCH   2   3
HETATM    3  O   UNL     1      -9.708  20.477  66.811  1.00  0.00    -0.413 OA 
BRANCH   3   4
HETATM    4  C   UNL     1      -8.381  20.246  67.057  1.00  0.00    -0.315 C  
HETATM    5  O   UNL     1      -7.795  20.540  68.090  1.00  0.00    -0.104 OA 
BRANCH   4   6
HETATM    6  C   UNL     1      -7.772  19.532  65.843  1.00  0.00    -0.275 C  
HETATM    7  N   UNL     1      -7.525  20.526  64.773  1.00  0.00    -0.304 NA 
HETATM    8  H2  UNL     1      -6.951  21.307  65.092  1.00  0.00     0.000 HD 
HETATM    9  H1  UNL     1      -7.120  20.051  63.966  1.00  0.00     0.000 HD 
BRANCH   6  10
HETATM   10  C   UNL     1      -6.482  18.782  66.240  1.00  0.00    -0.230 C  
BRANCH  10  11
HETATM   11  C   UNL     1      -6.641  17.352  66.741  1.00  0.00    -0.246 A  
HETATM   12  C   UNL     1      -7.830  16.624  66.633  1.00  0.00    -0.316 A  
HETATM   13  C   UNL     1      -7.924  15.304  67.140  1.00  0.00    -0.251 A  
HETATM   14  C   UNL     1      -6.844  14.658  67.782  1.00  0.00    -0.193 A  
HETATM   15  C   UNL     1      -5.640  15.385  67.803  1.00  0.00    -0.127 A  
HETATM   16  C   UNL     1      -5.542  16.697  67.305  1.00  0.00    -0.184 A  
BRANCH  14  17
HETATM   17  C   UNL     1      -7.000  13.336  68.484  1.00  0.00    -0.103 A  
HETATM   18  N   UNL     1      -6.253  13.146  69.597  1.00  0.00    -0.118 NA 
HETATM   19  C   UNL     1      -6.233  11.921  70.141  1.00  0.00    -0.087 A  
HETATM   20  N   UNL     1      -6.831  10.833  69.642  1.00  0.00    -0.120 NA 
HETATM   21  N   UNL     1      -5.457  11.740  71.268  1.00  0.00    -0.365 NA 
HETATM   22  H1  UNL     1      -5.442  10.808  71.681  1.00  0.00     0.000 HD 
HETATM   23  C   UNL     1      -7.579  11.045  68.556  1.00  0.00    -0.114 A  
HETATM   24  H2  UNL     1      -4.920  12.508  71.672  1.00  0.00     0.000 HD 
HETATM   25  C   UNL     1      -7.738  12.284  67.967  1.00  0.00    -0.132 A  
BRANCH  23  26
HETATM   26  O   UNL     1      -8.120   9.973  67.868  1.00  0.00    -0.108 OA 
BRANCH  26  27
HETATM   27  C   UNL     1      -8.665   8.880  68.647  1.00  0.00    -0.134 C  
HETATM   28  C   UNL     1     -10.182   8.944  68.956  1.00  0.00    -0.206 C  
HETATM   29  F   UNL     1     -10.762  10.126  68.655  1.00  0.00    -0.199 F  
HETATM   30  F   UNL     1     -10.373   8.746  70.294  1.00  0.00    -0.187 F  
HETATM   31  F   UNL     1     -10.901   7.972  68.343  1.00  0.00    -0.204 F  
BRANCH  27  32
HETATM   32  C   UNL     1      -8.233   7.505  68.048  1.00  0.00    -0.124 A  
HETATM   33  C   UNL     1      -8.312   6.390  68.916  1.00  0.00    -0.121 A  
HETATM   34  C   UNL     1      -7.817   5.135  68.551  1.00  0.00    -0.079 A  
HETATM   35  C   UNL     1      -7.213   4.967  67.314  1.00  0.00    -0.074 A  
HETATM   36  C   UNL     1      -7.201   6.012  66.391  1.00  0.00    -0.076 A  
HETATM   37 CL   UNL     1      -6.482   3.461  66.913  1.00  0.00    -0.036 Cl 
HETATM   38  C   UNL     1      -7.761   7.263  66.723  1.00  0.00    -0.109 A  
BRANCH  38  39
HETATM   39  N   UNL     1      -7.864   8.242  65.691  1.00  0.00    -0.098 NA 
HETATM   40  C   UNL     1      -6.865   8.912  65.007  1.00  0.00    -0.073 A  
HETATM   41  C   UNL     1      -7.488   9.897  64.272  1.00  0.00    -0.136 A  
HETATM   42  C   UNL     1      -8.855   9.692  64.505  1.00  0.00    -0.223 A  
HETATM   43  N   UNL     1      -9.067   8.595  65.215  1.00  0.00    -0.105 NA 
HETATM   44  C   UNL     1     -10.026  10.513  64.107  1.00  0.00    -0.385 C  
ENDBRANCH  38  39
ENDBRANCH  27  32
ENDBRANCH  26  27
ENDBRANCH  23  26
ENDBRANCH  14  17
ENDBRANCH  10  11
ENDBRANCH   6  10
ENDBRANCH   4   6
ENDBRANCH   3   4
ENDBRANCH   2   3
TORSDOF 10
ENDMDL
MODEL      168
REMARK 921   NORMALIZED FREE ENERGY PREDICTED BY IDOCK:   -4.39 KCAL/MOL
REMARK 922        TOTAL FREE ENERGY PREDICTED BY IDOCK:   -9.30 KCAL/MOL
REMARK 923 INTER-LIGAND FREE ENERGY PREDICTED BY IDOCK:   -7.48 KCAL/MOL
REMARK 924 INTRA-LIGAND FREE ENERGY PREDICTED BY IDOCK:   -1.82 KCAL/MOL
REMARK 927      BINDING AFFINITY PREDICTED BY RF-SCORE:    0.00 PKD
ROOT
HETATM    1  C   UNL     1     -11.123  17.619  67.293  1.00  0.00     0.139 C  
HETATM    2  C   UNL     1     -10.129  18.365  68.164  1.00  0.00    -0.382 C  
ENDROOT
BRANCH   2   3
HETATM    3  O   UNL     1      -9.075  18.838  67.317  1.00  0.00    -0.273 OA 
BRANCH   3   4
HETATM    4  C   UNL     1      -8.259  17.858  66.820  1.00  0.00    -0.250 C  
HETATM    5  O   UNL     1      -8.445  17.250  65.774  1.00  0.00    -0.532 OA 
BRANCH   4   6
HETATM    6  C   UNL     1      -7.068  17.680  67.770  1.00  0.00    -0.185 C  
HETATM    7  N   UNL     1      -6.645  19.011  68.267  1.00  0.00    -0.238 NA 
HETATM    8  H2  UNL     1      -7.412  19.527  68.698  1.00  0.00     0.000 HD 
HETATM    9  H1  UNL     1      -5.853  18.892  68.899  1.00  0.00     0.000 HD 
BRANCH   6  10
HETATM   10  C   UNL     1      -7.429  16.723  68.927  1.00  0.00    -0.240 C  
BRANCH  10  11
HETATM   11  C   UNL     1      -7.776  15.288  68.552  1.00  0.00    -0.128 A  
HETATM   12  C   UNL     1      -6.851  14.382  68.026  1.00  0.00    -0.150 A  
HETATM   13  C   UNL     1      -7.240  13.066  67.673  1.00  0.00    -0.151 A  
HETATM   14  C   UNL     1      -8.565  12.600  67.821  1.00  0.00    -0.179 A  
HETATM   15  C   UNL     1      -9.454  13.507  68.426  1.00  0.00    -0.185 A  
HETATM   16  C   UNL     1      -9.073  14.816  68.774  1.00  0.00    -0.191 A  
BRANCH  14  17
HETATM   17  C   UNL     1      -9.017  11.273  67.274  1.00  0.00    -0.149 A  
HETATM   18  N   UNL     1      -9.052  11.150  65.926  1.00  0.00    -0.200 NA 
HETATM   19  C   UNL     1      -9.618  10.051  65.409  1.00  0.00    -0.279 A  
HETATM   20  N   UNL     1     -10.225   9.081  66.103  1.00  0.00    -0.196 NA 
HETATM   21  N   UNL     1      -9.658   9.945  64.033  1.00  0.00    -0.399 NA 
HETATM   22  H1  UNL     1     -10.088   9.109  63.639  1.00  0.00     0.000 HD 
HETATM   23  C   UNL     1     -10.163   9.210  67.431  1.00  0.00    -0.247 A  
HETATM   24  H2  UNL     1      -9.271  10.675  63.434  1.00  0.00     0.000 HD 
HETATM   25  C   UNL     1      -9.529  10.259  68.068  1.00  0.00    -0.156 A  
BRANCH  23  26
HETATM   26  O   UNL     1     -10.881   8.353  68.245  1.00  0.00    -0.077 OA 
BRANCH  26  27
HETATM   27  C   UNL     1     -10.139   7.542  69.188  1.00  0.00    -0.192 C  
HETATM   28  C   UNL     1     -10.788   7.336  70.580  1.00  0.00    -0.243 C  
HETATM   29  F   UNL     1     -11.858   8.127  70.817  1.00  0.00    -0.289 F  
HETATM   30  F   UNL     1      -9.869   7.623  71.548  1.00  0.00    -0.169 F  
HETATM   31  F   UNL     1     -11.170   6.056  70.815  1.00  0.00    -0.333 F  
BRANCH  27  32
HETATM   32  C   UNL     1      -9.693   6.198  68.530  1.00  0.00    -0.141 A  
HETATM   33  C   UNL     1     -10.351   5.840  67.329  1.00  0.00    -0.284 A  
HETATM   34  C   UNL     1     -10.151   4.597  66.723  1.00  0.00    -0.246 A  
HETATM   35  C   UNL     1      -9.302   3.672  67.311  1.00  0.00    -0.202 A  
HETATM   36  C   UNL     1      -8.560   4.020  68.440  1.00  0.00    -0.113 A  
HETATM   37 CL   UNL     1      -9.156   2.093  66.643  1.00  0.00    -0.118 Cl 
HETATM   38  C   UNL     1      -8.701   5.297  69.021  1.00  0.00    -0.100 A  
BRANCH  38  39
HETATM   39  N   UNL     1      -7.807   5.653  70.072  1.00  0.00    -0.089 NA 
HETATM   40  C   UNL     1      -6.762   6.561  70.075  1.00  0.00    -0.049 A  
HETATM   41  C   UNL     1      -6.086   6.374  71.261  1.00  0.00    -0.039 A  
HETATM   42  C   UNL     1      -6.836   5.406  71.941  1.00  0.00    -0.062 A  
HETATM   43  N   UNL     1      -7.953   5.115  71.292  1.00  0.00    -0.105 NA 
HETATM   44  C   UNL     1      -6.546   4.686  73.206  1.00  0.00    -0.056 C  
ENDBRANCH  38  39
ENDBRANCH  27  32
ENDBRANCH  26  27
ENDBRANCH  23  26
ENDBRANCH  14  17
ENDBRANCH  10  11
ENDBRANCH   6  10
ENDBRANCH   4   6
ENDBRANCH   3   4
ENDBRANCH   2   3
TORSDOF 10
ENDMDL
MODEL      169
REMARK 921   NORMALIZED FREE ENERGY PREDICTED BY IDOCK:   -4.37 KCAL/MOL
REMARK 922        TOTAL FREE ENERGY PREDICTED BY IDOCK:   -9.26 KCAL/MOL
REMARK 923 INTER-LIGAND FREE ENERGY PREDICTED BY IDOCK:   -7.34 KCAL/MOL
REMARK 924 INTRA-LIGAND FREE ENERGY PREDICTED BY IDOCK:   -1.92 KCAL/MOL
REMARK 927      BINDING AFFINITY PREDICTED BY RF-SCORE:    0.00 PKD
ROOT
HETATM    1  C   UNL     1      -6.733  19.050  65.186  1.00  0.00    -0.135 C  
HETATM    2  C   UNL     1      -7.391  17.895  65.919  1.00  0.00    -0.212 C  
ENDROOT
BRANCH   2   3
HETATM    3  O   UNL     1      -8.033  18.426  67.084  1.00  0.00    -0.225 OA 
BRANCH   3   4
HETATM    4  C   UNL     1      -9.401  18.395  67.046  1.00  0.00    -0.281 C  
HETATM    5  O   UNL     1     -10.080  18.513  66.035  1.00  0.00    -0.485 OA 
BRANCH   4   6
HETATM    6  C   UNL     1      -9.928  18.153  68.466  1.00  0.00    -0.395 C  
HETATM    7  N   UNL     1     -10.565  19.396  68.962  1.00  0.00    -0.338 NA 
HETATM    8  H2  UNL     1     -11.290  19.739  68.332  1.00  0.00     0.000 HD 
HETATM    9  H1  UNL     1     -10.915  19.235  69.907  1.00  0.00     0.000 HD 
BRANCH   6  10
HETATM   10  C   UNL     1     -10.904  16.957  68.492  1.00  0.00    -0.335 C  
BRANCH  10  11
HETATM   11  C   UNL     1     -10.383  15.629  67.959  1.00  0.00    -0.246 A  
HETATM   12  C   UNL     1     -10.698  15.128  66.692  1.00  0.00    -0.310 A  
HETATM   13  C   UNL     1     -10.202  13.874  66.261  1.00  0.00    -0.299 A  
HETATM   14  C   UNL     1      -9.379  13.062  67.073  1.00  0.00    -0.236 A  
HETATM   15  C   UNL     1      -9.014  13.628  68.308  1.00  0.00    -0.187 A  
HETATM   16  C   UNL     1      -9.508  14.871  68.743  1.00  0.00    -0.214 A  
BRANCH  14  17
HETATM   17  C   UNL     1      -9.009  11.654  66.691  1.00  0.00    -0.189 A  
HETATM   18  N   UNL     1      -9.404  11.231  65.467  1.00  0.00    -0.222 NA 
HETATM   19  C   UNL     1      -9.250   9.934  65.169  1.00  0.00    -0.234 A  
HETATM   20  N   UNL     1      -8.802   8.987  66.001  1.00  0.00    -0.163 NA 
HETATM   21  N   UNL     1      -9.668   9.515  63.923  1.00  0.00    -0.346 NA 
HETATM   22  H1  UNL     1      -9.551   8.528  63.696  1.00  0.00     0.000 HD 
HETATM   23  C   UNL     1      -8.399   9.426  67.196  1.00  0.00    -0.124 A  
HETATM   24  H2  UNL     1     -10.079  10.167  63.254  1.00  0.00     0.000 HD 
HETATM   25  C   UNL     1      -8.434  10.754  67.574  1.00  0.00    -0.119 A  
BRANCH  23  26
HETATM   26  O   UNL     1      -8.060   8.524  68.189  1.00  0.00    -0.116 OA 
BRANCH  26  27
HETATM   27  C   UNL     1      -7.763   7.163  67.788  1.00  0.00    -0.112 C  
HETATM   28  C   UNL     1      -6.264   6.806  67.623  1.00  0.00    -0.040 C  
HETATM   29  F   UNL     1      -5.432   7.871  67.653  1.00  0.00    -0.028 F  
HETATM   30  F   UNL     1      -6.080   6.202  66.412  1.00  0.00    -0.027 F  
HETATM   31  F   UNL     1      -5.815   5.915  68.541  1.00  0.00    -0.012 F  
BRANCH  27  32
HETATM   32  C   UNL     1      -8.526   6.142  68.688  1.00  0.00    -0.114 A  
HETATM   33  C   UNL     1      -8.538   6.417  70.076  1.00  0.00    -0.135 A  
HETATM   34  C   UNL     1      -9.057   5.508  71.002  1.00  0.00    -0.163 A  
HETATM   35  C   UNL     1      -9.561   4.293  70.566  1.00  0.00    -0.197 A  
HETATM   36  C   UNL     1      -9.658   4.022  69.201  1.00  0.00    -0.233 A  
HETATM   37 CL   UNL     1     -10.077   3.116  71.711  1.00  0.00    -0.182 Cl 
HETATM   38  C   UNL     1      -9.201   4.962  68.254  1.00  0.00    -0.123 A  
BRANCH  38  39
HETATM   39  N   UNL     1      -9.468   4.704  66.878  1.00  0.00    -0.150 NA 
HETATM   40  C   UNL     1     -10.242   5.416  65.979  1.00  0.00    -0.069 A  
HETATM   41  C   UNL     1     -10.346   4.636  64.848  1.00  0.00     0.062 A  
HETATM   42  C   UNL     1      -9.539   3.523  65.119  1.00  0.00    -0.151 A  
HETATM   43  N   UNL     1      -8.888   3.663  66.263  1.00  0.00    -0.121 NA 
HETATM   44  C   UNL     1      -9.353   2.267  64.350  1.00  0.00    -0.132 C  
ENDBRANCH  38  39
ENDBRANCH  27  32
ENDBRANCH  26  27
ENDBRANCH  23  26
ENDBRANCH  14  17
ENDBRANCH  10  11
ENDBRANCH   6  10
ENDBRANCH   4   6
ENDBRANCH   3   4
ENDBRANCH   2   3
TORSDOF 10
ENDMDL
MODEL      170
REMARK 921   NORMALIZED FREE ENERGY PREDICTED BY IDOCK:   -4.34 KCAL/MOL
REMARK 922        TOTAL FREE ENERGY PREDICTED BY IDOCK:   -9.22 KCAL/MOL
REMARK 923 INTER-LIGAND FREE ENERGY PREDICTED BY IDOCK:   -9.11 KCAL/MOL
REMARK 924 INTRA-LIGAND FREE ENERGY PREDICTED BY IDOCK:   -0.11 KCAL/MOL
REMARK 927      BINDING AFFINITY PREDICTED BY RF-SCORE:    0.00 PKD
ROOT
HETATM    1  C   UNL     1      -9.892   6.548  72.334  1.00  0.00    -0.169 C  
HETATM    2  C   UNL     1      -8.754   5.878  71.585  1.00  0.00    -0.136 C  
ENDROOT
BRANCH   2   3
HETATM    3  O   UNL     1      -8.593   6.559  70.335  1.00  0.00    -0.142 OA 
BRANCH   3   4
HETATM    4  C   UNL     1      -7.370   6.388  69.745  1.00  0.00    -0.080 C  
HETATM    5  O   UNL     1      -6.939   5.329  69.311  1.00  0.00    -0.052 OA 
BRANCH   4   6
HETATM    6  C   UNL     1      -6.655   7.745  69.692  1.00  0.00    -0.035 C  
HETATM    7  N   UNL     1      -5.336   7.622  70.356  1.00  0.00    -0.023 NA 
HETATM    8  H2  UNL     1      -4.771   6.869  69.962  1.00  0.00     0.000 HD 
HETATM    9  H1  UNL     1      -4.862   8.524  70.321  1.00  0.00     0.000 HD 
BRANCH   6  10
HETATM   10  C   UNL     1      -6.521   8.236  68.234  1.00  0.00    -0.059 C  
BRANCH  10  11
HETATM   11  C   UNL     1      -7.365   9.439  67.830  1.00  0.00    -0.083 A  
HETATM   12  C   UNL     1      -7.989  10.287  68.750  1.00  0.00    -0.113 A  
HETATM   13  C   UNL     1      -8.782  11.377  68.312  1.00  0.00    -0.160 A  
HETATM   14  C   UNL     1      -8.994  11.662  66.945  1.00  0.00    -0.191 A  
HETATM   15  C   UNL     1      -8.289  10.840  66.047  1.00  0.00    -0.163 A  
HETATM   16  C   UNL     1      -7.504   9.755  66.476  1.00  0.00    -0.095 A  
BRANCH  14  17
HETATM   17  C   UNL     1      -9.983  12.697  66.483  1.00  0.00    -0.251 A  
HETATM   18  N   UNL     1     -11.140  12.240  65.950  1.00  0.00    -0.308 NA 
HETATM   19  C   UNL     1     -11.960  13.126  65.368  1.00  0.00    -0.406 A  
HETATM   20  N   UNL     1     -11.709  14.429  65.195  1.00  0.00    -0.358 NA 
HETATM   21  N   UNL     1     -13.129  12.642  64.818  1.00  0.00    -0.848 NA 
HETATM   22  H1  UNL     1     -13.753  13.316  64.375  1.00  0.00     0.000 HD 
HETATM   23  C   UNL     1     -10.572  14.865  65.744  1.00  0.00    -0.331 A  
HETATM   24  H2  UNL     1     -13.362  11.649  64.854  1.00  0.00     0.000 HD 
HETATM   25  C   UNL     1      -9.699  14.053  66.442  1.00  0.00    -0.309 A  
BRANCH  23  26
HETATM   26  O   UNL     1     -10.136  16.156  65.502  1.00  0.00    -0.435 OA 
BRANCH  26  27
HETATM   27  C   UNL     1      -9.836  16.990  66.648  1.00  0.00    -0.290 C  
HETATM   28  C   UNL     1     -10.306  18.465  66.567  1.00  0.00    -0.400 C  
HETATM   29  F   UNL     1     -10.735  18.846  65.344  1.00  0.00    -0.494 F  
HETATM   30  F   UNL     1      -9.261  19.284  66.886  1.00  0.00    -0.286 F  
HETATM   31  F   UNL     1     -11.285  18.770  67.454  1.00  0.00    -0.448 F  
BRANCH  27  32
HETATM   32  C   UNL     1     -10.279  16.292  67.971  1.00  0.00    -0.256 A  
HETATM   33  C   UNL     1     -11.661  16.012  68.100  1.00  0.00    -0.183 A  
HETATM   34  C   UNL     1     -12.206  15.526  69.292  1.00  0.00    -0.209 A  
HETATM   35  C   UNL     1     -11.387  15.326  70.392  1.00  0.00    -0.296 A  
HETATM   36  C   UNL     1     -10.007  15.496  70.281  1.00  0.00     0.044 A  
HETATM   37 CL   UNL     1     -12.072  14.858  71.900  1.00  0.00    -0.414 Cl 
HETATM   38  C   UNL     1      -9.437  15.919  69.061  1.00  0.00    -0.247 A  
BRANCH  38  39
HETATM   39  N   UNL     1      -8.015  15.924  68.957  1.00  0.00    -0.208 NA 
HETATM   40  C   UNL     1      -7.133  16.989  68.958  1.00  0.00    -0.233 A  
HETATM   41  C   UNL     1      -5.900  16.476  68.618  1.00  0.00    -0.125 A  
HETATM   42  C   UNL     1      -6.114  15.095  68.518  1.00  0.00    -0.095 A  
HETATM   43  N   UNL     1      -7.341  14.766  68.893  1.00  0.00    -0.122 NA 
HETATM   44  C   UNL     1      -5.207  14.018  68.047  1.00  0.00    -0.098 C  
ENDBRANCH  38  39
ENDBRANCH  27  32
ENDBRANCH  26  27
ENDBRANCH  23  26
ENDBRANCH  14  17
ENDBRANCH  10  11
ENDBRANCH   6  10
ENDBRANCH   4   6
ENDBRANCH   3   4
ENDBRANCH   2   3
TORSDOF 10
ENDMDL
MODEL      171
REMARK 921   NORMALIZED FREE ENERGY PREDICTED BY IDOCK:   -4.32 KCAL/MOL
REMARK 922        TOTAL FREE ENERGY PREDICTED BY IDOCK:   -9.18 KCAL/MOL
REMARK 923 INTER-LIGAND FREE ENERGY PREDICTED BY IDOCK:   -7.86 KCAL/MOL
REMARK 924 INTRA-LIGAND FREE ENERGY PREDICTED BY IDOCK:   -1.32 KCAL/MOL
REMARK 927      BINDING AFFINITY PREDICTED BY RF-SCORE:    0.00 PKD
ROOT
HETATM    1  C   UNL     1     -11.323   6.415  70.182  1.00  0.00    -0.485 C  
HETATM    2  C   UNL     1     -11.004   6.206  71.652  1.00  0.00    -0.267 C  
ENDROOT
BRANCH   2   3
HETATM    3  O   UNL     1      -9.825   5.397  71.732  1.00  0.00    -0.164 OA 
BRANCH   3   4
HETATM    4  C   UNL     1      -9.400   5.132  73.006  1.00  0.00    -0.132 C  
HETATM    5  O   UNL     1      -9.877   4.280  73.744  1.00  0.00    -0.118 OA 
BRANCH   4   6
HETATM    6  C   UNL     1      -8.216   6.050  73.332  1.00  0.00    -0.114 C  
HETATM    7  N   UNL     1      -7.477   5.493  74.490  1.00  0.00    -0.084 NA 
HETATM    8  H2  UNL     1      -7.189   4.526  74.338  1.00  0.00     0.000 HD 
HETATM    9  H1  UNL     1      -6.690   6.104  74.706  1.00  0.00     0.000 HD 
BRANCH   6  10
HETATM   10  C   UNL     1      -7.303   6.225  72.099  1.00  0.00    -0.093 C  
BRANCH  10  11
HETATM   11  C   UNL     1      -7.672   7.331  71.117  1.00  0.00    -0.092 A  
HETATM   12  C   UNL     1      -8.234   8.551  71.505  1.00  0.00    -0.199 A  
HETATM   13  C   UNL     1      -8.580   9.531  70.543  1.00  0.00    -0.231 A  
HETATM   14  C   UNL     1      -8.388   9.336  69.157  1.00  0.00    -0.127 A  
HETATM   15  C   UNL     1      -7.748   8.134  68.805  1.00  0.00    -0.107 A  
HETATM   16  C   UNL     1      -7.407   7.156  69.756  1.00  0.00    -0.085 A  
BRANCH  14  17
HETATM   17  C   UNL     1      -8.926  10.294  68.128  1.00  0.00    -0.130 A  
HETATM   18  N   UNL     1      -9.351   9.758  66.960  1.00  0.00    -0.145 NA 
HETATM   19  C   UNL     1      -9.665  10.593  65.960  1.00  0.00    -0.208 A  
HETATM   20  N   UNL     1      -9.530  11.924  65.980  1.00  0.00    -0.234 NA 
HETATM   21  N   UNL     1     -10.084  10.031  64.772  1.00  0.00    -0.354 NA 
HETATM   22  H1  UNL     1     -10.322  10.667  64.011  1.00  0.00     0.000 HD 
HETATM   23  C   UNL     1      -9.129  12.436  67.147  1.00  0.00    -0.199 A  
HETATM   24  H2  UNL     1     -10.152   9.019  64.658  1.00  0.00     0.000 HD 
HETATM   25  C   UNL     1      -8.862  11.672  68.266  1.00  0.00    -0.167 A  
BRANCH  23  26
HETATM   26  O   UNL     1      -8.810  13.779  67.242  1.00  0.00    -0.200 OA 
BRANCH  26  27
HETATM   27  C   UNL     1      -8.698  14.351  68.569  1.00  0.00    -0.180 C  
HETATM   28  C   UNL     1      -7.651  15.481  68.744  1.00  0.00    -0.152 C  
HETATM   29  F   UNL     1      -6.816  15.634  67.693  1.00  0.00    -0.127 F  
HETATM   30  F   UNL     1      -6.868  15.198  69.827  1.00  0.00    -0.144 F  
HETATM   31  F   UNL     1      -8.201  16.692  69.005  1.00  0.00    -0.220 F  
BRANCH  27  32
HETATM   32  C   UNL     1     -10.102  14.745  69.122  1.00  0.00    -0.201 A  
HETATM   33  C   UNL     1     -10.216  14.845  70.530  1.00  0.00     0.372 A  
HETATM   34  C   UNL     1     -11.449  15.043  71.157  1.00  0.00    -0.355 A  
HETATM   35  C   UNL     1     -12.603  15.128  70.395  1.00  0.00    -0.359 A  
HETATM   36  C   UNL     1     -12.526  15.133  69.002  1.00  0.00     0.076 A  
HETATM   37 CL   UNL     1     -14.137  15.237  71.168  1.00  0.00    -0.508 Cl 
HETATM   38  C   UNL     1     -11.279  15.003  68.357  1.00  0.00    -0.293 A  
BRANCH  38  39
HETATM   39  N   UNL     1     -11.240  15.173  66.942  1.00  0.00    -0.321 NA 
HETATM   40  C   UNL     1     -10.762  16.232  66.191  1.00  0.00    -0.197 A  
HETATM   41  C   UNL     1     -11.151  15.996  64.891  1.00  0.00    -0.381 A  
HETATM   42  C   UNL     1     -11.776  14.743  64.937  1.00  0.00    -0.390 A  
HETATM   43  N   UNL     1     -11.666  14.190  66.134  1.00  0.00    -0.378 NA 
HETATM   44  C   UNL     1     -12.525  14.009  63.886  1.00  0.00    -0.170 C  
ENDBRANCH  38  39
ENDBRANCH  27  32
ENDBRANCH  26  27
ENDBRANCH  23  26
ENDBRANCH  14  17
ENDBRANCH  10  11
ENDBRANCH   6  10
ENDBRANCH   4   6
ENDBRANCH   3   4
ENDBRANCH   2   3
TORSDOF 10
ENDMDL
MODEL      172
REMARK 921   NORMALIZED FREE ENERGY PREDICTED BY IDOCK:   -4.26 KCAL/MOL
REMARK 922        TOTAL FREE ENERGY PREDICTED BY IDOCK:   -9.09 KCAL/MOL
REMARK 923 INTER-LIGAND FREE ENERGY PREDICTED BY IDOCK:   -7.22 KCAL/MOL
REMARK 924 INTRA-LIGAND FREE ENERGY PREDICTED BY IDOCK:   -1.88 KCAL/MOL
REMARK 927      BINDING AFFINITY PREDICTED BY RF-SCORE:    0.00 PKD
ROOT
HETATM    1  C   UNL     1     -10.247   3.477  73.312  1.00  0.00    -0.225 C  
HETATM    2  C   UNL     1     -10.027   4.974  73.199  1.00  0.00    -0.159 C  
ENDROOT
BRANCH   2   3
HETATM    3  O   UNL     1     -11.305   5.590  73.004  1.00  0.00    -0.294 OA 
BRANCH   3   4
HETATM    4  C   UNL     1     -11.263   6.811  72.388  1.00  0.00    -0.264 C  
HETATM    5  O   UNL     1     -11.398   7.889  72.951  1.00  0.00    -0.406 OA 
BRANCH   4   6
HETATM    6  C   UNL     1     -10.986   6.600  70.894  1.00  0.00    -0.268 C  
HETATM    7  N   UNL     1     -12.216   6.907  70.127  1.00  0.00    -0.623 NA 
HETATM    8  H2  UNL     1     -12.575   7.841  70.326  1.00  0.00     0.000 HD 
HETATM    9  H1  UNL     1     -12.031   6.766  69.134  1.00  0.00     0.000 HD 
BRANCH   6  10
HETATM   10  C   UNL     1      -9.790   7.461  70.432  1.00  0.00    -0.183 C  
BRANCH  10  11
HETATM   11  C   UNL     1     -10.082   8.559  69.416  1.00  0.00    -0.205 A  
HETATM   12  C   UNL     1     -10.103   8.347  68.035  1.00  0.00    -0.245 A  
HETATM   13  C   UNL     1     -10.357   9.414  67.139  1.00  0.00    -0.326 A  
HETATM   14  C   UNL     1     -10.591  10.736  67.578  1.00  0.00    -0.280 A  
HETATM   15  C   UNL     1     -10.643  10.901  68.974  1.00  0.00    -0.248 A  
HETATM   16  C   UNL     1     -10.387   9.846  69.868  1.00  0.00    -0.298 A  
BRANCH  14  17
HETATM   17  C   UNL     1     -10.672  11.898  66.625  1.00  0.00    -0.256 A  
HETATM   18  N   UNL     1     -10.810  11.601  65.312  1.00  0.00    -0.292 NA 
HETATM   19  C   UNL     1     -10.705  12.600  64.425  1.00  0.00    -0.359 A  
HETATM   20  N   UNL     1     -10.401  13.872  64.711  1.00  0.00    -0.424 NA 
HETATM   21  N   UNL     1     -10.836  12.280  63.090  1.00  0.00    -0.643 NA 
HETATM   22  H1  UNL     1     -10.755  13.040  62.415  1.00  0.00     0.000 HD 
HETATM   23  C   UNL     1     -10.289  14.150  66.012  1.00  0.00    -0.309 A  
HETATM   24  H2  UNL     1     -11.006  11.320  62.788  1.00  0.00     0.000 HD 
HETATM   25  C   UNL     1     -10.464  13.213  67.012  1.00  0.00    -0.248 A  
BRANCH  23  26
HETATM   26  O   UNL     1      -9.831  15.390  66.419  1.00  0.00    -0.251 OA 
BRANCH  26  27
HETATM   27  C   UNL     1      -8.403  15.632  66.364  1.00  0.00    -0.180 C  
HETATM   28  C   UNL     1      -7.962  17.092  66.090  1.00  0.00    -0.264 C  
HETATM   29  F   UNL     1      -8.966  17.914  65.710  1.00  0.00    -0.123 F  
HETATM   30  F   UNL     1      -7.048  17.098  65.075  1.00  0.00     0.943 F  
HETATM   31  F   UNL     1      -7.336  17.675  67.141  1.00  0.00    -0.183 F  
BRANCH  27  32
HETATM   32  C   UNL     1      -7.690  15.014  67.607  1.00  0.00    -0.186 A  
HETATM   33  C   UNL     1      -6.527  14.249  67.346  1.00  0.00     0.099 A  
HETATM   34  C   UNL     1      -5.883  13.522  68.351  1.00  0.00    -0.092 A  
HETATM   35  C   UNL     1      -6.395  13.527  69.639  1.00  0.00    -0.105 A  
HETATM   36  C   UNL     1      -7.479  14.343  69.962  1.00  0.00     0.359 A  
HETATM   37 CL   UNL     1      -5.685  12.529  70.849  1.00  0.00    -0.131 Cl 
HETATM   38  C   UNL     1      -8.094  15.135  68.970  1.00  0.00    -0.191 A  
BRANCH  38  39
HETATM   39  N   UNL     1      -9.091  16.065  69.384  1.00  0.00    -0.235 NA 
HETATM   40  C   UNL     1     -10.346  15.836  69.921  1.00  0.00    -0.309 A  
HETATM   41  C   UNL     1     -10.989  17.053  69.946  1.00  0.00     0.254 A  
HETATM   42  C   UNL     1     -10.026  17.965  69.494  1.00  0.00     0.173 A  
HETATM   43  N   UNL     1      -8.849  17.383  69.328  1.00  0.00     0.094 NA 
HETATM   44  C   UNL     1     -10.154  19.408  69.167  1.00  0.00    -0.336 C  
ENDBRANCH  38  39
ENDBRANCH  27  32
ENDBRANCH  26  27
ENDBRANCH  23  26
ENDBRANCH  14  17
ENDBRANCH  10  11
ENDBRANCH   6  10
ENDBRANCH   4   6
ENDBRANCH   3   4
ENDBRANCH   2   3
TORSDOF 10
ENDMDL
MODEL      173
REMARK 921   NORMALIZED FREE ENERGY PREDICTED BY IDOCK:   -4.24 KCAL/MOL
REMARK 922        TOTAL FREE ENERGY PREDICTED BY IDOCK:   -9.05 KCAL/MOL
REMARK 923 INTER-LIGAND FREE ENERGY PREDICTED BY IDOCK:   -7.10 KCAL/MOL
REMARK 924 INTRA-LIGAND FREE ENERGY PREDICTED BY IDOCK:   -1.96 KCAL/MOL
REMARK 927      BINDING AFFINITY PREDICTED BY RF-SCORE:    0.00 PKD
ROOT
HETATM    1  C   UNL     1     -10.898  17.539  65.332  1.00  0.00     0.058 C  
HETATM    2  C   UNL     1     -10.161  16.259  65.684  1.00  0.00    -0.312 C  
ENDROOT
BRANCH   2   3
HETATM    3  O   UNL     1      -8.797  16.601  65.955  1.00  0.00    -0.486 OA 
BRANCH   3   4
HETATM    4  C   UNL     1      -8.145  15.733  66.788  1.00  0.00    -0.262 C  
HETATM    5  O   UNL     1      -7.447  14.797  66.424  1.00  0.00     0.660 OA 
BRANCH   4   6
HETATM    6  C   UNL     1      -8.410  16.152  68.240  1.00  0.00    -0.171 C  
HETATM    7  N   UNL     1      -7.955  17.550  68.429  1.00  0.00    -0.252 NA 
HETATM    8  H2  UNL     1      -8.378  18.191  67.757  1.00  0.00     0.000 HD 
HETATM    9  H1  UNL     1      -8.132  17.828  69.395  1.00  0.00     0.000 HD 
BRANCH   6  10
HETATM   10  C   UNL     1      -9.903  15.981  68.596  1.00  0.00    -0.218 C  
BRANCH  10  11
HETATM   11  C   UNL     1     -10.387  14.564  68.879  1.00  0.00    -0.237 A  
HETATM   12  C   UNL     1     -11.613  14.273  69.485  1.00  0.00    -0.353 A  
HETATM   13  C   UNL     1     -11.997  12.935  69.745  1.00  0.00    -0.365 A  
HETATM   14  C   UNL     1     -11.176  11.832  69.421  1.00  0.00    -0.300 A  
HETATM   15  C   UNL     1      -9.986  12.151  68.742  1.00  0.00    -0.066 A  
HETATM   16  C   UNL     1      -9.598  13.479  68.485  1.00  0.00    -0.151 A  
BRANCH  14  17
HETATM   17  C   UNL     1     -11.498  10.431  69.866  1.00  0.00    -0.297 A  
HETATM   18  N   UNL     1     -12.200  10.303  71.016  1.00  0.00    -0.350 NA 
HETATM   19  C   UNL     1     -12.346   9.075  71.532  1.00  0.00    -0.331 A  
HETATM   20  N   UNL     1     -11.798   7.953  71.051  1.00  0.00    -0.288 NA 
HETATM   21  N   UNL     1     -13.053   8.962  72.712  1.00  0.00    -0.636 NA 
HETATM   22  H1  UNL     1     -13.165   8.027  73.104  1.00  0.00     0.000 HD 
HETATM   23  C   UNL     1     -11.126   8.096  69.906  1.00  0.00    -0.102 A  
HETATM   24  H2  UNL     1     -13.450   9.781  73.173  1.00  0.00     0.000 HD 
HETATM   25  C   UNL     1     -10.988   9.301  69.245  1.00  0.00    -0.105 A  
BRANCH  23  26
HETATM   26  O   UNL     1     -10.392   7.039  69.396  1.00  0.00    -0.193 OA 
BRANCH  26  27
HETATM   27  C   UNL     1      -9.215   7.355  68.613  1.00  0.00    -0.143 C  
HETATM   28  C   UNL     1      -7.852   7.239  69.341  1.00  0.00    -0.122 C  
HETATM   29  F   UNL     1      -7.948   7.080  70.680  1.00  0.00    -0.100 F  
HETATM   30  F   UNL     1      -7.138   8.386  69.136  1.00  0.00    -0.058 F  
HETATM   31  F   UNL     1      -7.068   6.239  68.869  1.00  0.00    -0.070 F  
BRANCH  27  32
HETATM   32  C   UNL     1      -9.234   6.589  67.253  1.00  0.00    -0.124 A  
HETATM   33  C   UNL     1      -9.712   5.257  67.291  1.00  0.00    -0.163 A  
HETATM   34  C   UNL     1      -9.642   4.417  66.176  1.00  0.00    -0.194 A  
HETATM   35  C   UNL     1      -9.075   4.881  64.999  1.00  0.00    -0.131 A  
HETATM   36  C   UNL     1      -8.681   6.214  64.888  1.00  0.00     0.104 A  
HETATM   37 CL   UNL     1      -8.864   3.811  63.667  1.00  0.00    -0.098 Cl 
HETATM   38  C   UNL     1      -8.812   7.090  65.986  1.00  0.00    -0.135 A  
BRANCH  38  39
HETATM   39  N   UNL     1      -8.543   8.473  65.770  1.00  0.00    -0.159 NA 
HETATM   40  C   UNL     1      -7.388   9.197  66.008  1.00  0.00    -0.094 A  
HETATM   41  C   UNL     1      -7.714  10.524  65.833  1.00  0.00    -0.148 A  
HETATM   42  C   UNL     1      -9.049  10.500  65.408  1.00  0.00    -0.187 A  
HETATM   43  N   UNL     1      -9.473   9.261  65.210  1.00  0.00    -0.221 NA 
HETATM   44  C   UNL     1     -10.004  11.616  65.191  1.00  0.00    -0.297 C  
ENDBRANCH  38  39
ENDBRANCH  27  32
ENDBRANCH  26  27
ENDBRANCH  23  26
ENDBRANCH  14  17
ENDBRANCH  10  11
ENDBRANCH   6  10
ENDBRANCH   4   6
ENDBRANCH   3   4
ENDBRANCH   2   3
TORSDOF 10
ENDMDL
MODEL      174
REMARK 921   NORMALIZED FREE ENERGY PREDICTED BY IDOCK:   -4.21 KCAL/MOL
REMARK 922        TOTAL FREE ENERGY PREDICTED BY IDOCK:   -9.01 KCAL/MOL
REMARK 923 INTER-LIGAND FREE ENERGY PREDICTED BY IDOCK:   -7.60 KCAL/MOL
REMARK 924 INTRA-LIGAND FREE ENERGY PREDICTED BY IDOCK:   -1.41 KCAL/MOL
REMARK 927      BINDING AFFINITY PREDICTED BY RF-SCORE:    0.00 PKD
ROOT
HETATM    1  C   UNL     1      -9.883  19.165  69.562  1.00  0.00     0.004 C  
HETATM    2  C   UNL     1      -8.647  19.494  68.744  1.00  0.00    -0.298 C  
ENDROOT
BRANCH   2   3
HETATM    3  O   UNL     1      -9.082  20.102  67.522  1.00  0.00    -0.339 OA 
BRANCH   3   4
HETATM    4  C   UNL     1      -9.018  19.286  66.425  1.00  0.00    -0.352 C  
HETATM    5  O   UNL     1      -8.004  19.047  65.783  1.00  0.00    -0.465 OA 
BRANCH   4   6
HETATM    6  C   UNL     1     -10.413  18.703  66.162  1.00  0.00    -0.430 C  
HETATM    7  N   UNL     1     -11.245  19.728  65.489  1.00  0.00    -0.143 NA 
HETATM    8  H2  UNL     1     -10.808  20.088  64.640  1.00  0.00     0.000 HD 
HETATM    9  H1  UNL     1     -12.172  19.341  65.315  1.00  0.00     0.000 HD 
BRANCH   6  10
HETATM   10  C   UNL     1     -10.316  17.406  65.331  1.00  0.00     0.055 C  
BRANCH  10  11
HETATM   11  C   UNL     1     -10.108  16.107  66.100  1.00  0.00    -0.356 A  
HETATM   12  C   UNL     1      -9.407  16.029  67.307  1.00  0.00    -0.218 A  
HETATM   13  C   UNL     1      -9.225  14.787  67.964  1.00  0.00    -0.194 A  
HETATM   14  C   UNL     1      -9.724  13.573  67.445  1.00  0.00    -0.229 A  
HETATM   15  C   UNL     1     -10.492  13.694  66.272  1.00  0.00    -0.291 A  
HETATM   16  C   UNL     1     -10.672  14.924  65.614  1.00  0.00    -0.352 A  
BRANCH  14  17
HETATM   17  C   UNL     1      -9.371  12.237  68.041  1.00  0.00    -0.195 A  
HETATM   18  N   UNL     1      -8.206  12.164  68.726  1.00  0.00    -0.017 NA 
HETATM   19  C   UNL     1      -7.777  10.955  69.112  1.00  0.00    -0.127 A  
HETATM   20  N   UNL     1      -8.360   9.786  68.822  1.00  0.00    -0.109 NA 
HETATM   21  N   UNL     1      -6.581  10.895  69.798  1.00  0.00    -0.126 NA 
HETATM   22  H1  UNL     1      -6.254   9.975  70.092  1.00  0.00     0.000 HD 
HETATM   23  C   UNL     1      -9.519   9.879  68.164  1.00  0.00    -0.138 A  
HETATM   24  H2  UNL     1      -6.044  11.739  70.003  1.00  0.00     0.000 HD 
HETATM   25  C   UNL     1     -10.094  11.080  67.794  1.00  0.00    -0.201 A  
BRANCH  23  26
HETATM   26  O   UNL     1     -10.135   8.739  67.679  1.00  0.00    -0.187 OA 
BRANCH  26  27
HETATM   27  C   UNL     1      -9.685   7.462  68.194  1.00  0.00    -0.151 C  
HETATM   28  C   UNL     1     -10.489   6.877  69.383  1.00  0.00    -0.217 C  
HETATM   29  F   UNL     1     -11.368   7.740  69.938  1.00  0.00    -0.234 F  
HETATM   30  F   UNL     1      -9.621   6.515  70.373  1.00  0.00    -0.159 F  
HETATM   31  F   UNL     1     -11.170   5.747  69.072  1.00  0.00    -0.386 F  
BRANCH  27  32
HETATM   32  C   UNL     1      -9.497   6.434  67.035  1.00  0.00    -0.159 A  
HETATM   33  C   UNL     1     -10.153   5.189  67.189  1.00  0.00    -0.244 A  
HETATM   34  C   UNL     1      -9.946   4.132  66.298  1.00  0.00    -0.185 A  
HETATM   35  C   UNL     1      -9.063   4.286  65.240  1.00  0.00    -0.143 A  
HETATM   36  C   UNL     1      -8.471   5.525  64.995  1.00  0.00    -0.147 A  
HETATM   37 CL   UNL     1      -8.702   2.948  64.220  1.00  0.00    -0.094 Cl 
HETATM   38  C   UNL     1      -8.727   6.619  65.848  1.00  0.00    -0.137 A  
BRANCH  38  39
HETATM   39  N   UNL     1      -8.224   7.896  65.462  1.00  0.00    -0.133 NA 
HETATM   40  C   UNL     1      -7.044   8.524  65.818  1.00  0.00    -0.075 A  
HETATM   41  C   UNL     1      -7.134   9.818  65.352  1.00  0.00    -0.113 A  
HETATM   42  C   UNL     1      -8.352   9.854  64.660  1.00  0.00    -0.163 A  
HETATM   43  N   UNL     1      -8.905   8.653  64.589  1.00  0.00    -0.035 NA 
HETATM   44  C   UNL     1      -9.075  11.001  64.055  1.00  0.00    -0.115 C  
ENDBRANCH  38  39
ENDBRANCH  27  32
ENDBRANCH  26  27
ENDBRANCH  23  26
ENDBRANCH  14  17
ENDBRANCH  10  11
ENDBRANCH   6  10
ENDBRANCH   4   6
ENDBRANCH   3   4
ENDBRANCH   2   3
TORSDOF 10
ENDMDL
MODEL      175
REMARK 921   NORMALIZED FREE ENERGY PREDICTED BY IDOCK:   -4.20 KCAL/MOL
REMARK 922        TOTAL FREE ENERGY PREDICTED BY IDOCK:   -9.00 KCAL/MOL
REMARK 923 INTER-LIGAND FREE ENERGY PREDICTED BY IDOCK:   -6.84 KCAL/MOL
REMARK 924 INTRA-LIGAND FREE ENERGY PREDICTED BY IDOCK:   -2.16 KCAL/MOL
REMARK 927      BINDING AFFINITY PREDICTED BY RF-SCORE:    0.00 PKD
ROOT
HETATM    1  C   UNL     1      -7.349  20.533  67.726  1.00  0.00    -0.302 C  
HETATM    2  C   UNL     1      -8.767  20.351  67.215  1.00  0.00    -0.333 C  
ENDROOT
BRANCH   2   3
HETATM    3  O   UNL     1      -8.722  19.426  66.122  1.00  0.00    -0.341 OA 
BRANCH   3   4
HETATM    4  C   UNL     1      -9.131  18.157  66.431  1.00  0.00    -0.241 C  
HETATM    5  O   UNL     1     -10.257  17.850  66.799  1.00  0.00    -0.329 OA 
BRANCH   4   6
HETATM    6  C   UNL     1      -7.959  17.193  66.207  1.00  0.00    -0.304 C  
HETATM    7  N   UNL     1      -6.928  17.870  65.386  1.00  0.00    -0.361 NA 
HETATM    8  H2  UNL     1      -6.629  18.758  65.791  1.00  0.00     0.000 HD 
HETATM    9  H1  UNL     1      -6.149  17.229  65.236  1.00  0.00     0.000 HD 
BRANCH   6  10
HETATM   10  C   UNL     1      -7.388  16.702  67.555  1.00  0.00    -0.173 C  
BRANCH  10  11
HETATM   11  C   UNL     1      -7.609  15.236  67.905  1.00  0.00    -0.152 A  
HETATM   12  C   UNL     1      -6.574  14.301  68.003  1.00  0.00    -0.156 A  
HETATM   13  C   UNL     1      -6.845  12.944  68.308  1.00  0.00    -0.093 A  
HETATM   14  C   UNL     1      -8.155  12.460  68.521  1.00  0.00    -0.096 A  
HETATM   15  C   UNL     1      -9.165  13.439  68.495  1.00  0.00    -0.082 A  
HETATM   16  C   UNL     1      -8.902  14.786  68.188  1.00  0.00    -0.170 A  
BRANCH  14  17
HETATM   17  C   UNL     1      -8.458  10.993  68.657  1.00  0.00    -0.157 A  
HETATM   18  N   UNL     1      -9.527  10.525  67.971  1.00  0.00    -0.147 NA 
HETATM   19  C   UNL     1      -9.930   9.270  68.211  1.00  0.00    -0.173 A  
HETATM   20  N   UNL     1      -9.415   8.444  69.129  1.00  0.00    -0.154 NA 
HETATM   21  N   UNL     1     -11.029   8.812  67.513  1.00  0.00    -0.453 NA 
HETATM   22  H1  UNL     1     -11.336   7.857  67.695  1.00  0.00     0.000 HD 
HETATM   23  C   UNL     1      -8.350   8.915  69.782  1.00  0.00    -0.125 A  
HETATM   24  H2  UNL     1     -11.515   9.405  66.840  1.00  0.00     0.000 HD 
HETATM   25  C   UNL     1      -7.800  10.161  69.549  1.00  0.00    -0.165 A  
BRANCH  23  26
HETATM   26  O   UNL     1      -7.828   8.214  70.854  1.00  0.00    -0.083 OA 
BRANCH  26  27
HETATM   27  C   UNL     1      -7.500   6.817  70.649  1.00  0.00    -0.083 C  
HETATM   28  C   UNL     1      -6.027   6.411  70.903  1.00  0.00    -0.027 C  
HETATM   29  F   UNL     1      -5.182   7.454  71.064  1.00  0.00    -0.025 F  
HETATM   30  F   UNL     1      -5.569   5.700  69.831  1.00  0.00    -0.007 F  
HETATM   31  F   UNL     1      -5.867   5.592  71.972  1.00  0.00    -0.025 F  
BRANCH  27  32
HETATM   32  C   UNL     1      -8.513   5.896  71.398  1.00  0.00    -0.128 A  
HETATM   33  C   UNL     1      -8.773   6.221  72.752  1.00  0.00    -0.126 A  
HETATM   34  C   UNL     1      -9.542   5.392  73.573  1.00  0.00    -0.141 A  
HETATM   35  C   UNL     1     -10.057   4.208  73.068  1.00  0.00    -0.154 A  
HETATM   36  C   UNL     1      -9.908   3.898  71.717  1.00  0.00    -0.249 A  
HETATM   37 CL   UNL     1     -10.890   3.120  74.110  1.00  0.00    -0.248 Cl 
HETATM   38  C   UNL     1      -9.193   4.762  70.861  1.00  0.00    -0.140 A  
BRANCH  38  39
HETATM   39  N   UNL     1      -9.206   4.478  69.464  1.00  0.00    -0.115 NA 
HETATM   40  C   UNL     1      -8.298   3.770  68.698  1.00  0.00    -0.074 A  
HETATM   41  C   UNL     1      -8.657   3.969  67.383  1.00  0.00    -0.107 A  
HETATM   42  C   UNL     1      -9.833   4.728  67.455  1.00  0.00    -0.175 A  
HETATM   43  N   UNL     1     -10.239   4.875  68.706  1.00  0.00    -0.103 NA 
HETATM   44  C   UNL     1     -10.621   5.375  66.376  1.00  0.00    -0.322 C  
ENDBRANCH  38  39
ENDBRANCH  27  32
ENDBRANCH  26  27
ENDBRANCH  23  26
ENDBRANCH  14  17
ENDBRANCH  10  11
ENDBRANCH   6  10
ENDBRANCH   4   6
ENDBRANCH   3   4
ENDBRANCH   2   3
TORSDOF 10
ENDMDL
MODEL      176
REMARK 921   NORMALIZED FREE ENERGY PREDICTED BY IDOCK:   -4.18 KCAL/MOL
REMARK 922        TOTAL FREE ENERGY PREDICTED BY IDOCK:   -8.96 KCAL/MOL
REMARK 923 INTER-LIGAND FREE ENERGY PREDICTED BY IDOCK:   -9.42 KCAL/MOL
REMARK 924 INTRA-LIGAND FREE ENERGY PREDICTED BY IDOCK:    0.46 KCAL/MOL
REMARK 927      BINDING AFFINITY PREDICTED BY RF-SCORE:    0.00 PKD
ROOT
HETATM    1  C   UNL     1      -6.253  18.616  69.271  1.00  0.00    -0.273 C  
HETATM    2  C   UNL     1      -7.130  19.849  69.392  1.00  0.00    -0.219 C  
ENDROOT
BRANCH   2   3
HETATM    3  O   UNL     1      -8.164  19.748  68.406  1.00  0.00    -0.321 OA 
BRANCH   3   4
HETATM    4  C   UNL     1      -7.852  20.300  67.193  1.00  0.00    -0.333 C  
HETATM    5  O   UNL     1      -7.250  21.353  67.033  1.00  0.00    -0.451 OA 
BRANCH   4   6
HETATM    6  C   UNL     1      -8.350  19.365  66.084  1.00  0.00    -0.300 C  
HETATM    7  N   UNL     1      -7.237  18.481  65.662  1.00  0.00    -0.519 NA 
HETATM    8  H2  UNL     1      -6.827  17.972  66.445  1.00  0.00     0.000 HD 
HETATM    9  H1  UNL     1      -7.568  17.860  64.924  1.00  0.00     0.000 HD 
BRANCH   6  10
HETATM   10  C   UNL     1      -9.576  18.556  66.559  1.00  0.00    -0.335 C  
BRANCH  10  11
HETATM   11  C   UNL     1      -9.339  17.099  66.934  1.00  0.00    -0.260 A  
HETATM   12  C   UNL     1      -8.937  16.685  68.208  1.00  0.00    -0.214 A  
HETATM   13  C   UNL     1      -8.708  15.316  68.490  1.00  0.00    -0.176 A  
HETATM   14  C   UNL     1      -8.861  14.304  67.517  1.00  0.00    -0.202 A  
HETATM   15  C   UNL     1      -9.343  14.741  66.270  1.00  0.00    -0.310 A  
HETATM   16  C   UNL     1      -9.568  16.100  65.983  1.00  0.00    -0.381 A  
BRANCH  14  17
HETATM   17  C   UNL     1      -8.438  12.880  67.762  1.00  0.00    -0.185 A  
HETATM   18  N   UNL     1      -7.917  12.209  66.709  1.00  0.00    -0.083 NA 
HETATM   19  C   UNL     1      -7.699  10.894  66.845  1.00  0.00    -0.135 A  
HETATM   20  N   UNL     1      -8.017  10.154  67.913  1.00  0.00    -0.101 NA 
HETATM   21  N   UNL     1      -7.180  10.221  65.758  1.00  0.00    -0.128 NA 
HETATM   22  H1  UNL     1      -7.014   9.220  65.861  1.00  0.00     0.000 HD 
HETATM   23  C   UNL     1      -8.511  10.836  68.949  1.00  0.00    -0.149 A  
HETATM   24  H2  UNL     1      -6.970  10.705  64.885  1.00  0.00     0.000 HD 
HETATM   25  C   UNL     1      -8.695  12.206  68.946  1.00  0.00     0.236 A  
BRANCH  23  26
HETATM   26  O   UNL     1      -9.014  10.162  70.048  1.00  0.00    -0.151 OA 
BRANCH  26  27
HETATM   27  C   UNL     1     -10.336   9.579  69.931  1.00  0.00    -0.236 C  
HETATM   28  C   UNL     1     -11.485  10.548  69.557  1.00  0.00    -0.272 C  
HETATM   29  F   UNL     1     -11.149  11.856  69.609  1.00  0.00    -0.272 F  
HETATM   30  F   UNL     1     -12.517  10.376  70.434  1.00  0.00    -0.329 F  
HETATM   31  F   UNL     1     -12.013  10.314  68.331  1.00  0.00    -0.181 F  
BRANCH  27  32
HETATM   32  C   UNL     1     -10.302   8.310  69.023  1.00  0.00    -0.233 A  
HETATM   33  C   UNL     1     -10.390   8.536  67.628  1.00  0.00    -0.317 A  
HETATM   34  C   UNL     1     -10.521   7.483  66.719  1.00  0.00    -0.319 A  
HETATM   35  C   UNL     1     -10.585   6.177  67.181  1.00  0.00    -0.305 A  
HETATM   36  C   UNL     1     -10.404   5.903  68.537  1.00  0.00    -0.268 A  
HETATM   37 CL   UNL     1     -10.879   4.888  66.079  1.00  0.00    -0.281 Cl 
HETATM   38  C   UNL     1     -10.201   6.954  69.456  1.00  0.00    -0.186 A  
BRANCH  38  39
HETATM   39  N   UNL     1      -9.866   6.610  70.798  1.00  0.00    -0.183 NA 
HETATM   40  C   UNL     1      -8.659   6.724  71.464  1.00  0.00    -0.120 A  
HETATM   41  C   UNL     1      -8.808   6.058  72.661  1.00  0.00    -0.124 A  
HETATM   42  C   UNL     1     -10.150   5.656  72.669  1.00  0.00    -0.180 A  
HETATM   43  N   UNL     1     -10.809   6.143  71.629  1.00  0.00    -0.248 NA 
HETATM   44  C   UNL     1     -10.881   4.781  73.621  1.00  0.00    -0.377 C  
ENDBRANCH  38  39
ENDBRANCH  27  32
ENDBRANCH  26  27
ENDBRANCH  23  26
ENDBRANCH  14  17
ENDBRANCH  10  11
ENDBRANCH   6  10
ENDBRANCH   4   6
ENDBRANCH   3   4
ENDBRANCH   2   3
TORSDOF 10
ENDMDL
MODEL      177
REMARK 921   NORMALIZED FREE ENERGY PREDICTED BY IDOCK:   -4.16 KCAL/MOL
REMARK 922        TOTAL FREE ENERGY PREDICTED BY IDOCK:   -8.93 KCAL/MOL
REMARK 923 INTER-LIGAND FREE ENERGY PREDICTED BY IDOCK:   -7.51 KCAL/MOL
REMARK 924 INTRA-LIGAND FREE ENERGY PREDICTED BY IDOCK:   -1.42 KCAL/MOL
REMARK 927      BINDING AFFINITY PREDICTED BY RF-SCORE:    0.00 PKD
ROOT
HETATM    1  C   UNL     1     -10.875   5.240  66.900  1.00  0.00    -0.081 C  
HETATM    2  C   UNL     1     -10.783   6.745  67.081  1.00  0.00    -0.371 C  
ENDROOT
BRANCH   2   3
HETATM    3  O   UNL     1     -10.260   6.995  68.391  1.00  0.00    -0.165 OA 
BRANCH   3   4
HETATM    4  C   UNL     1      -9.055   7.644  68.410  1.00  0.00    -0.130 C  
HETATM    5  O   UNL     1      -8.345   7.840  67.433  1.00  0.00    -0.121 OA 
BRANCH   4   6
HETATM    6  C   UNL     1      -8.768   8.107  69.845  1.00  0.00    -0.138 C  
HETATM    7  N   UNL     1      -7.335   8.469  69.957  1.00  0.00    -0.054 NA 
HETATM    8  H2  UNL     1      -7.054   9.161  69.261  1.00  0.00     0.000 HD 
HETATM    9  H1  UNL     1      -7.145   8.777  70.910  1.00  0.00     0.000 HD 
BRANCH   6  10
HETATM   10  C   UNL     1      -9.690   9.282  70.235  1.00  0.00    -0.274 C  
BRANCH  10  11
HETATM   11  C   UNL     1      -9.811  10.426  69.236  1.00  0.00    -0.243 A  
HETATM   12  C   UNL     1      -8.732  11.222  68.840  1.00  0.00    -0.053 A  
HETATM   13  C   UNL     1      -8.913  12.288  67.924  1.00  0.00    -0.186 A  
HETATM   14  C   UNL     1     -10.172  12.612  67.373  1.00  0.00    -0.219 A  
HETATM   15  C   UNL     1     -11.221  11.744  67.729  1.00  0.00    -0.331 A  
HETATM   16  C   UNL     1     -11.048  10.687  68.640  1.00  0.00    -0.315 A  
BRANCH  14  17
HETATM   17  C   UNL     1     -10.396  13.854  66.553  1.00  0.00    -0.286 A  
HETATM   18  N   UNL     1     -11.501  13.876  65.772  1.00  0.00    -0.315 NA 
HETATM   19  C   UNL     1     -11.635  14.884  64.899  1.00  0.00    -0.395 A  
HETATM   20  N   UNL     1     -10.735  15.848  64.671  1.00  0.00    -0.525 NA 
HETATM   21  N   UNL     1     -12.760  14.886  64.100  1.00  0.00    -0.688 NA 
HETATM   22  H1  UNL     1     -12.862  15.653  63.435  1.00  0.00     0.000 HD 
HETATM   23  C   UNL     1      -9.661  15.820  65.465  1.00  0.00    -0.220 A  
HETATM   24  H2  UNL     1     -13.463  14.150  64.171  1.00  0.00     0.000 HD 
HETATM   25  C   UNL     1      -9.466  14.877  66.455  1.00  0.00    -0.327 A  
BRANCH  23  26
HETATM   26  O   UNL     1      -8.598  16.672  65.223  1.00  0.00     0.413 OA 
BRANCH  26  27
HETATM   27  C   UNL     1      -7.815  17.110  66.361  1.00  0.00    -0.317 C  
HETATM   28  C   UNL     1      -6.409  17.682  66.049  1.00  0.00    -0.218 C  
HETATM   29  F   UNL     1      -6.000  17.490  64.775  1.00  0.00     0.331 F  
HETATM   30  F   UNL     1      -5.490  17.068  66.851  1.00  0.00    -0.147 F  
HETATM   31  F   UNL     1      -6.292  19.006  66.317  1.00  0.00    -0.180 F  
BRANCH  27  32
HETATM   32  C   UNL     1      -8.654  18.050  67.280  1.00  0.00    -0.240 A  
HETATM   33  C   UNL     1      -9.902  18.479  66.767  1.00  0.00    -0.359 A  
HETATM   34  C   UNL     1     -10.679  19.437  67.424  1.00  0.00    -0.594 A  
HETATM   35  C   UNL     1     -10.221  20.005  68.602  1.00  0.00    -0.320 A  
HETATM   36  C   UNL     1      -9.046  19.542  69.194  1.00  0.00    -0.171 A  
HETATM   37 CL   UNL     1     -11.108  21.279  69.344  1.00  0.00     1.110 Cl 
HETATM   38  C   UNL     1      -8.288  18.525  68.575  1.00  0.00    -0.334 A  
BRANCH  38  39
HETATM   39  N   UNL     1      -7.186  17.982  69.298  1.00  0.00    -0.141 NA 
HETATM   40  C   UNL     1      -6.099  18.622  69.865  1.00  0.00    -0.203 A  
HETATM   41  C   UNL     1      -5.223  17.634  70.256  1.00  0.00    -0.241 A  
HETATM   42  C   UNL     1      -5.896  16.439  69.969  1.00  0.00    -0.190 A  
HETATM   43  N   UNL     1      -7.134  16.667  69.559  1.00  0.00    -0.156 NA 
HETATM   44  C   UNL     1      -5.421  15.034  70.033  1.00  0.00    -0.116 C  
ENDBRANCH  38  39
ENDBRANCH  27  32
ENDBRANCH  26  27
ENDBRANCH  23  26
ENDBRANCH  14  17
ENDBRANCH  10  11
ENDBRANCH   6  10
ENDBRANCH   4   6
ENDBRANCH   3   4
ENDBRANCH   2   3
TORSDOF 10
ENDMDL
MODEL      178
REMARK 921   NORMALIZED FREE ENERGY PREDICTED BY IDOCK:   -4.16 KCAL/MOL
REMARK 922        TOTAL FREE ENERGY PREDICTED BY IDOCK:   -8.93 KCAL/MOL
REMARK 923 INTER-LIGAND FREE ENERGY PREDICTED BY IDOCK:   -7.27 KCAL/MOL
REMARK 924 INTRA-LIGAND FREE ENERGY PREDICTED BY IDOCK:   -1.65 KCAL/MOL
REMARK 927      BINDING AFFINITY PREDICTED BY RF-SCORE:    0.00 PKD
ROOT
HETATM    1  C   UNL     1      -9.968  17.144  65.752  1.00  0.00    -0.142 C  
HETATM    2  C   UNL     1      -9.158  15.904  66.086  1.00  0.00    -0.350 C  
ENDROOT
BRANCH   2   3
HETATM    3  O   UNL     1      -9.590  15.434  67.368  1.00  0.00    -0.209 OA 
BRANCH   3   4
HETATM    4  C   UNL     1      -9.170  16.194  68.426  1.00  0.00    -0.203 C  
HETATM    5  O   UNL     1      -8.030  16.608  68.587  1.00  0.00    -0.212 OA 
BRANCH   4   6
HETATM    6  C   UNL     1     -10.369  16.464  69.345  1.00  0.00    -0.290 C  
HETATM    7  N   UNL     1     -10.587  17.927  69.436  1.00  0.00    -0.272 NA 
HETATM    8  H2  UNL     1     -10.693  18.362  68.520  1.00  0.00     0.000 HD 
HETATM    9  H1  UNL     1     -11.383  18.106  70.047  1.00  0.00     0.000 HD 
BRANCH   6  10
HETATM   10  C   UNL     1     -11.626  15.727  68.834  1.00  0.00    -0.400 C  
BRANCH  10  11
HETATM   11  C   UNL     1     -11.722  14.236  69.133  1.00  0.00    -0.360 A  
HETATM   12  C   UNL     1     -12.059  13.721  70.388  1.00  0.00    -0.421 A  
HETATM   13  C   UNL     1     -12.108  12.322  70.611  1.00  0.00    -0.330 A  
HETATM   14  C   UNL     1     -11.815  11.381  69.600  1.00  0.00    -0.431 A  
HETATM   15  C   UNL     1     -11.557  11.928  68.330  1.00  0.00    -0.390 A  
HETATM   16  C   UNL     1     -11.504  13.315  68.104  1.00  0.00    -0.347 A  
BRANCH  14  17
HETATM   17  C   UNL     1     -11.682   9.909  69.885  1.00  0.00    -0.071 A  
HETATM   18  N   UNL     1     -12.200   9.466  71.054  1.00  0.00    -0.295 NA 
HETATM   19  C   UNL     1     -11.942   8.202  71.419  1.00  0.00    -0.298 A  
HETATM   20  N   UNL     1     -11.151   7.344  70.764  1.00  0.00    -0.259 NA 
HETATM   21  N   UNL     1     -12.465   7.769  72.620  1.00  0.00    -0.560 NA 
HETATM   22  H1  UNL     1     -12.269   6.808  72.897  1.00  0.00     0.000 HD 
HETATM   23  C   UNL     1     -10.666   7.792  69.603  1.00  0.00    -0.223 A  
HETATM   24  H2  UNL     1     -13.027   8.386  73.207  1.00  0.00     0.000 HD 
HETATM   25  C   UNL     1     -10.941   9.046  69.093  1.00  0.00    -0.025 A  
BRANCH  23  26
HETATM   26  O   UNL     1      -9.719   7.054  68.916  1.00  0.00    -0.144 OA 
BRANCH  26  27
HETATM   27  C   UNL     1      -8.403   7.635  68.750  1.00  0.00    -0.129 C  
HETATM   28  C   UNL     1      -7.234   6.909  69.463  1.00  0.00    -0.081 C  
HETATM   29  F   UNL     1      -7.623   5.956  70.338  1.00  0.00    -0.080 F  
HETATM   30  F   UNL     1      -6.513   7.823  70.178  1.00  0.00    -0.033 F  
HETATM   31  F   UNL     1      -6.348   6.340  68.610  1.00  0.00    -0.033 F  
BRANCH  27  32
HETATM   32  C   UNL     1      -8.106   7.910  67.242  1.00  0.00    -0.118 A  
HETATM   33  C   UNL     1      -7.309   9.045  66.957  1.00  0.00    -0.087 A  
HETATM   34  C   UNL     1      -7.095   9.484  65.648  1.00  0.00    -0.093 A  
HETATM   35  C   UNL     1      -7.687   8.811  64.590  1.00  0.00    -0.119 A  
HETATM   36  C   UNL     1      -8.398   7.633  64.818  1.00  0.00    -0.034 A  
HETATM   37 CL   UNL     1      -7.538   9.425  62.989  1.00  0.00    -0.105 Cl 
HETATM   38  C   UNL     1      -8.562   7.141  66.130  1.00  0.00    -0.146 A  
BRANCH  38  39
HETATM   39  N   UNL     1      -9.159   5.857  66.290  1.00  0.00    -0.147 NA 
HETATM   40  C   UNL     1     -10.453   5.444  66.025  1.00  0.00    -0.071 A  
HETATM   41  C   UNL     1     -10.574   4.176  66.550  1.00  0.00     0.687 A  
HETATM   42  C   UNL     1      -9.293   3.874  67.029  1.00  0.00    -0.190 A  
HETATM   43  N   UNL     1      -8.421   4.818  66.710  1.00  0.00    -0.106 NA 
HETATM   44  C   UNL     1      -8.818   2.715  67.825  1.00  0.00    -0.160 C  
ENDBRANCH  38  39
ENDBRANCH  27  32
ENDBRANCH  26  27
ENDBRANCH  23  26
ENDBRANCH  14  17
ENDBRANCH  10  11
ENDBRANCH   6  10
ENDBRANCH   4   6
ENDBRANCH   3   4
ENDBRANCH   2   3
TORSDOF 10
ENDMDL
MODEL      179
REMARK 921   NORMALIZED FREE ENERGY PREDICTED BY IDOCK:   -4.13 KCAL/MOL
REMARK 922        TOTAL FREE ENERGY PREDICTED BY IDOCK:   -8.88 KCAL/MOL
REMARK 923 INTER-LIGAND FREE ENERGY PREDICTED BY IDOCK:   -8.61 KCAL/MOL
REMARK 924 INTRA-LIGAND FREE ENERGY PREDICTED BY IDOCK:   -0.27 KCAL/MOL
REMARK 927      BINDING AFFINITY PREDICTED BY RF-SCORE:    0.00 PKD
ROOT
HETATM    1  C   UNL     1      -6.330  18.216  68.855  1.00  0.00    -0.224 C  
HETATM    2  C   UNL     1      -7.061  19.488  69.246  1.00  0.00    -0.337 C  
ENDROOT
BRANCH   2   3
HETATM    3  O   UNL     1      -8.396  19.398  68.736  1.00  0.00    -0.363 OA 
BRANCH   3   4
HETATM    4  C   UNL     1      -8.602  20.058  67.555  1.00  0.00    -0.340 C  
HETATM    5  O   UNL     1      -8.311  21.228  67.342  1.00  0.00    -0.102 OA 
BRANCH   4   6
HETATM    6  C   UNL     1      -9.221  19.082  66.547  1.00  0.00    -0.337 C  
HETATM    7  N   UNL     1      -8.134  18.358  65.847  1.00  0.00    -0.511 NA 
HETATM    8  H2  UNL     1      -7.496  17.895  66.494  1.00  0.00     0.000 HD 
HETATM    9  H1  UNL     1      -8.546  17.709  65.176  1.00  0.00     0.000 HD 
BRANCH   6  10
HETATM   10  C   UNL     1     -10.197  18.113  67.250  1.00  0.00    -0.377 C  
BRANCH  10  11
HETATM   11  C   UNL     1      -9.980  16.624  67.015  1.00  0.00    -0.271 A  
HETATM   12  C   UNL     1      -9.224  15.810  67.865  1.00  0.00    -0.191 A  
HETATM   13  C   UNL     1      -9.038  14.435  67.579  1.00  0.00    -0.195 A  
HETATM   14  C   UNL     1      -9.587  13.815  66.435  1.00  0.00    -0.285 A  
HETATM   15  C   UNL     1     -10.407  14.640  65.644  1.00  0.00    -0.370 A  
HETATM   16  C   UNL     1     -10.592  16.006  65.920  1.00  0.00    -0.338 A  
BRANCH  14  17
HETATM   17  C   UNL     1      -9.235  12.408  66.035  1.00  0.00    -0.050 A  
HETATM   18  N   UNL     1      -9.716  11.974  64.846  1.00  0.00    -0.166 NA 
HETATM   19  C   UNL     1      -9.573  10.676  64.545  1.00  0.00    -0.286 A  
HETATM   20  N   UNL     1      -9.056   9.738  65.347  1.00  0.00    -0.187 NA 
HETATM   21  N   UNL     1     -10.080  10.246  63.336  1.00  0.00    -0.479 NA 
HETATM   22  H1  UNL     1      -9.972   9.258  63.106  1.00  0.00     0.000 HD 
HETATM   23  C   UNL     1      -8.569  10.188  66.506  1.00  0.00    -0.126 A  
HETATM   24  H2  UNL     1     -10.546  10.891  62.696  1.00  0.00     0.000 HD 
HETATM   25  C   UNL     1      -8.587  11.518  66.877  1.00  0.00    -0.163 A  
BRANCH  23  26
HETATM   26  O   UNL     1      -8.149   9.295  67.475  1.00  0.00    -0.106 OA 
BRANCH  26  27
HETATM   27  C   UNL     1      -9.154   8.456  68.097  1.00  0.00    -0.138 C  
HETATM   28  C   UNL     1     -10.591   9.031  68.154  1.00  0.00    -0.171 C  
HETATM   29  F   UNL     1     -10.681  10.338  67.820  1.00  0.00    -0.232 F  
HETATM   30  F   UNL     1     -11.066   8.921  69.430  1.00  0.00    -0.214 F  
HETATM   31  F   UNL     1     -11.477   8.354  67.382  1.00  0.00     0.209 F  
BRANCH  27  32
HETATM   32  C   UNL     1      -9.109   7.011  67.509  1.00  0.00    -0.122 A  
HETATM   33  C   UNL     1      -8.569   6.881  66.207  1.00  0.00    -0.138 A  
HETATM   34  C   UNL     1      -8.608   5.669  65.511  1.00  0.00    -0.151 A  
HETATM   35  C   UNL     1      -9.206   4.561  66.092  1.00  0.00    -0.139 A  
HETATM   36  C   UNL     1      -9.663   4.619  67.408  1.00  0.00    -0.215 A  
HETATM   37 CL   UNL     1      -9.377   3.106  65.189  1.00  0.00    -0.150 Cl 
HETATM   38  C   UNL     1      -9.564   5.818  68.145  1.00  0.00    -0.116 A  
BRANCH  38  39
HETATM   39  N   UNL     1      -9.900   5.777  69.530  1.00  0.00    -0.167 NA 
HETATM   40  C   UNL     1     -11.132   5.910  70.145  1.00  0.00    -0.325 A  
HETATM   41  C   UNL     1     -10.885   6.010  71.497  1.00  0.00    -0.322 A  
HETATM   42  C   UNL     1      -9.499   5.841  71.611  1.00  0.00    -0.152 A  
HETATM   43  N   UNL     1      -8.951   5.531  70.446  1.00  0.00    -0.137 NA 
HETATM   44  C   UNL     1      -8.612   5.984  72.793  1.00  0.00    -0.124 C  
ENDBRANCH  38  39
ENDBRANCH  27  32
ENDBRANCH  26  27
ENDBRANCH  23  26
ENDBRANCH  14  17
ENDBRANCH  10  11
ENDBRANCH   6  10
ENDBRANCH   4   6
ENDBRANCH   3   4
ENDBRANCH   2   3
TORSDOF 10
ENDMDL
MODEL      180
REMARK 921   NORMALIZED FREE ENERGY PREDICTED BY IDOCK:   -4.12 KCAL/MOL
REMARK 922        TOTAL FREE ENERGY PREDICTED BY IDOCK:   -8.87 KCAL/MOL
REMARK 923 INTER-LIGAND FREE ENERGY PREDICTED BY IDOCK:   -6.81 KCAL/MOL
REMARK 924 INTRA-LIGAND FREE ENERGY PREDICTED BY IDOCK:   -2.07 KCAL/MOL
REMARK 927      BINDING AFFINITY PREDICTED BY RF-SCORE:    0.00 PKD
ROOT
HETATM    1  C   UNL     1     -10.666  17.215  69.166  1.00  0.00    -0.184 C  
HETATM    2  C   UNL     1     -10.531  17.493  67.680  1.00  0.00    -0.370 C  
ENDROOT
BRANCH   2   3
HETATM    3  O   UNL     1     -10.134  18.861  67.526  1.00  0.00    -0.328 OA 
BRANCH   3   4
HETATM    4  C   UNL     1      -8.781  19.066  67.532  1.00  0.00    -0.290 C  
HETATM    5  O   UNL     1      -8.213  19.998  68.085  1.00  0.00    -0.281 OA 
BRANCH   4   6
HETATM    6  C   UNL     1      -8.105  17.922  66.765  1.00  0.00    -0.238 C  
HETATM    7  N   UNL     1      -7.513  18.460  65.518  1.00  0.00    -0.503 NA 
HETATM    8  H2  UNL     1      -6.877  19.238  65.694  1.00  0.00     0.000 HD 
HETATM    9  H1  UNL     1      -7.064  17.699  65.009  1.00  0.00     0.000 HD 
BRANCH   6  10
HETATM   10  C   UNL     1      -7.049  17.221  67.648  1.00  0.00    -0.179 C  
BRANCH  10  11
HETATM   11  C   UNL     1      -7.038  15.697  67.632  1.00  0.00    -0.192 A  
HETATM   12  C   UNL     1      -5.870  14.933  67.716  1.00  0.00    -0.112 A  
HETATM   13  C   UNL     1      -5.922  13.518  67.672  1.00  0.00    -0.100 A  
HETATM   14  C   UNL     1      -7.134  12.806  67.534  1.00  0.00    -0.148 A  
HETATM   15  C   UNL     1      -8.296  13.598  67.533  1.00  0.00    -0.191 A  
HETATM   16  C   UNL     1      -8.250  15.004  67.572  1.00  0.00    -0.199 A  
BRANCH  14  17
HETATM   17  C   UNL     1      -7.172  11.320  67.298  1.00  0.00    -0.114 A  
HETATM   18  N   UNL     1      -7.609  10.907  66.086  1.00  0.00    -0.142 NA 
HETATM   19  C   UNL     1      -7.825   9.596  65.907  1.00  0.00    -0.102 A  
HETATM   20  N   UNL     1      -7.717   8.649  66.846  1.00  0.00    -0.091 NA 
HETATM   21  N   UNL     1      -8.283   9.191  64.670  1.00  0.00    -0.143 NA 
HETATM   22  H1  UNL     1      -8.447   8.194  64.534  1.00  0.00     0.000 HD 
HETATM   23  C   UNL     1      -7.266   9.073  68.030  1.00  0.00    -0.080 A  
HETATM   24  H2  UNL     1      -8.450   9.863  63.920  1.00  0.00     0.000 HD 
HETATM   25  C   UNL     1      -6.931  10.387  68.294  1.00  0.00    -0.070 A  
BRANCH  23  26
HETATM   26  O   UNL     1      -7.258   8.216  69.116  1.00  0.00    -0.069 OA 
BRANCH  26  27
HETATM   27  C   UNL     1      -7.603   6.829  68.880  1.00  0.00    -0.105 C  
HETATM   28  C   UNL     1      -6.422   5.826  68.819  1.00  0.00    -0.042 C  
HETATM   29  F   UNL     1      -5.203   6.406  68.766  1.00  0.00    -0.008 F  
HETATM   30  F   UNL     1      -6.542   5.065  67.692  1.00  0.00    -0.043 F  
HETATM   31  F   UNL     1      -6.407   4.944  69.848  1.00  0.00    -0.025 F  
BRANCH  27  32
HETATM   32  C   UNL     1      -8.731   6.367  69.855  1.00  0.00    -0.142 A  
HETATM   33  C   UNL     1      -8.977   7.203  70.970  1.00  0.00    -0.150 A  
HETATM   34  C   UNL     1      -9.853   6.828  71.992  1.00  0.00    -0.166 A  
HETATM   35  C   UNL     1     -10.493   5.600  71.935  1.00  0.00    -0.225 A  
HETATM   36  C   UNL     1     -10.356   4.789  70.808  1.00  0.00    -0.184 A  
HETATM   37 CL   UNL     1     -11.468   5.076  73.253  1.00  0.00    -0.393 Cl 
HETATM   38  C   UNL     1      -9.528   5.189  69.739  1.00  0.00    -0.150 A  
BRANCH  38  39
HETATM   39  N   UNL     1      -9.548   4.401  68.551  1.00  0.00    -0.154 NA 
HETATM   40  C   UNL     1      -9.253   3.061  68.374  1.00  0.00    -0.185 A  
HETATM   41  C   UNL     1      -9.216   2.845  67.014  1.00  0.00    -0.176 A  
HETATM   42  C   UNL     1      -9.584   4.077  66.456  1.00  0.00    -0.205 A  
HETATM   43  N   UNL     1      -9.946   4.943  67.390  1.00  0.00    -0.176 NA 
HETATM   44  C   UNL     1      -9.594   4.520  65.039  1.00  0.00    -0.150 C  
ENDBRANCH  38  39
ENDBRANCH  27  32
ENDBRANCH  26  27
ENDBRANCH  23  26
ENDBRANCH  14  17
ENDBRANCH  10  11
ENDBRANCH   6  10
ENDBRANCH   4   6
ENDBRANCH   3   4
ENDBRANCH   2   3
TORSDOF 10
ENDMDL
MODEL      181
REMARK 921   NORMALIZED FREE ENERGY PREDICTED BY IDOCK:   -4.11 KCAL/MOL
REMARK 922        TOTAL FREE ENERGY PREDICTED BY IDOCK:   -8.85 KCAL/MOL
REMARK 923 INTER-LIGAND FREE ENERGY PREDICTED BY IDOCK:   -8.62 KCAL/MOL
REMARK 924 INTRA-LIGAND FREE ENERGY PREDICTED BY IDOCK:   -0.23 KCAL/MOL
REMARK 927      BINDING AFFINITY PREDICTED BY RF-SCORE:    0.00 PKD
ROOT
HETATM    1  C   UNL     1     -14.409  15.423  71.185  1.00  0.00    -0.284 C  
HETATM    2  C   UNL     1     -14.031  15.108  72.621  1.00  0.00    -0.424 C  
ENDROOT
BRANCH   2   3
HETATM    3  O   UNL     1     -12.973  14.142  72.592  1.00  0.00    -0.420 OA 
BRANCH   3   4
HETATM    4  C   UNL     1     -12.302  14.067  71.402  1.00  0.00    -0.326 C  
HETATM    5  O   UNL     1     -11.544  14.923  70.966  1.00  0.00    -0.299 OA 
BRANCH   4   6
HETATM    6  C   UNL     1     -12.631  12.726  70.734  1.00  0.00    -0.225 C  
HETATM    7  N   UNL     1     -11.428  12.232  70.023  1.00  0.00    -0.528 NA 
HETATM    8  H2  UNL     1     -10.613  12.173  70.634  1.00  0.00     0.000 HD 
HETATM    9  H1  UNL     1     -11.648  11.341  69.579  1.00  0.00     0.000 HD 
BRANCH   6  10
HETATM   10  C   UNL     1     -13.141  11.706  71.776  1.00  0.00    -0.487 C  
BRANCH  10  11
HETATM   11  C   UNL     1     -12.722  10.254  71.584  1.00  0.00    -0.561 A  
HETATM   12  C   UNL     1     -13.541   9.166  71.898  1.00  0.00    -0.493 A  
HETATM   13  C   UNL     1     -13.085   7.837  71.720  1.00  0.00    -0.353 A  
HETATM   14  C   UNL     1     -11.796   7.535  71.230  1.00  0.00    -0.319 A  
HETATM   15  C   UNL     1     -11.026   8.648  70.847  1.00  0.00    -0.301 A  
HETATM   16  C   UNL     1     -11.472   9.970  71.027  1.00  0.00    -0.463 A  
BRANCH  14  17
HETATM   17  C   UNL     1     -11.246   6.134  71.219  1.00  0.00    -0.287 A  
HETATM   18  N   UNL     1     -11.108   5.524  72.420  1.00  0.00    -0.258 NA 
HETATM   19  C   UNL     1     -10.458   4.353  72.461  1.00  0.00    -0.168 A  
HETATM   20  N   UNL     1      -9.861   3.752  71.425  1.00  0.00    -0.175 NA 
HETATM   21  N   UNL     1     -10.314   3.750  73.693  1.00  0.00    -0.148 NA 
HETATM   22  H1  UNL     1      -9.819   2.859  73.725  1.00  0.00     0.000 HD 
HETATM   23  C   UNL     1     -10.025   4.357  70.246  1.00  0.00    -0.177 A  
HETATM   24  H2  UNL     1     -10.688   4.178  74.541  1.00  0.00     0.000 HD 
HETATM   25  C   UNL     1     -10.750   5.521  70.079  1.00  0.00    -0.356 A  
BRANCH  23  26
HETATM   26  O   UNL     1      -9.331   3.912  69.135  1.00  0.00    -0.144 OA 
BRANCH  26  27
HETATM   27  C   UNL     1      -8.013   4.467  68.899  1.00  0.00    -0.074 C  
HETATM   28  C   UNL     1      -7.077   3.648  67.976  1.00  0.00    -0.051 C  
HETATM   29  F   UNL     1      -7.525   2.405  67.691  1.00  0.00    -0.054 F  
HETATM   30  F   UNL     1      -5.867   3.494  68.592  1.00  0.00    -0.020 F  
HETATM   31  F   UNL     1      -6.805   4.261  66.798  1.00  0.00    -0.047 F  
BRANCH  27  32
HETATM   32  C   UNL     1      -8.113   5.965  68.474  1.00  0.00    -0.106 A  
HETATM   33  C   UNL     1      -8.878   6.238  67.314  1.00  0.00    -0.107 A  
HETATM   34  C   UNL     1      -8.923   7.514  66.745  1.00  0.00    -0.164 A  
HETATM   35  C   UNL     1      -8.190   8.546  67.309  1.00  0.00    -0.108 A  
HETATM   36  C   UNL     1      -7.501   8.345  68.505  1.00  0.00    -0.094 A  
HETATM   37 CL   UNL     1      -8.135  10.083  66.537  1.00  0.00    -0.117 Cl 
HETATM   38  C   UNL     1      -7.506   7.079  69.127  1.00  0.00    -0.095 A  
BRANCH  38  39
HETATM   39  N   UNL     1      -6.920   6.971  70.422  1.00  0.00    -0.061 NA 
HETATM   40  C   UNL     1      -5.691   6.459  70.797  1.00  0.00    -0.023 A  
HETATM   41  C   UNL     1      -5.699   6.390  72.173  1.00  0.00    -0.037 A  
HETATM   42  C   UNL     1      -6.925   6.958  72.542  1.00  0.00    -0.066 A  
HETATM   43  N   UNL     1      -7.564   7.456  71.495  1.00  0.00    -0.084 NA 
HETATM   44  C   UNL     1      -7.576   7.045  73.873  1.00  0.00    -0.116 C  
ENDBRANCH  38  39
ENDBRANCH  27  32
ENDBRANCH  26  27
ENDBRANCH  23  26
ENDBRANCH  14  17
ENDBRANCH  10  11
ENDBRANCH   6  10
ENDBRANCH   4   6
ENDBRANCH   3   4
ENDBRANCH   2   3
TORSDOF 10
ENDMDL
MODEL      182
REMARK 921   NORMALIZED FREE ENERGY PREDICTED BY IDOCK:   -4.04 KCAL/MOL
REMARK 922        TOTAL FREE ENERGY PREDICTED BY IDOCK:   -8.75 KCAL/MOL
REMARK 923 INTER-LIGAND FREE ENERGY PREDICTED BY IDOCK:   -5.61 KCAL/MOL
REMARK 924 INTRA-LIGAND FREE ENERGY PREDICTED BY IDOCK:   -3.13 KCAL/MOL
REMARK 927      BINDING AFFINITY PREDICTED BY RF-SCORE:    0.00 PKD
ROOT
HETATM    1  C   UNL     1     -12.038   6.627  72.052  1.00  0.00    -0.353 C  
HETATM    2  C   UNL     1     -10.874   5.884  72.682  1.00  0.00    -0.251 C  
ENDROOT
BRANCH   2   3
HETATM    3  O   UNL     1     -10.181   5.193  71.637  1.00  0.00    -0.199 OA 
BRANCH   3   4
HETATM    4  C   UNL     1      -8.877   4.889  71.920  1.00  0.00    -0.128 C  
HETATM    5  O   UNL     1      -8.059   5.667  72.394  1.00  0.00    -0.106 OA 
BRANCH   4   6
HETATM    6  C   UNL     1      -8.629   3.414  71.579  1.00  0.00    -0.076 C  
HETATM    7  N   UNL     1      -9.833   2.865  70.912  1.00  0.00    -0.067 NA 
HETATM    8  H2  UNL     1     -10.109   3.411  70.096  1.00  0.00     0.000 HD 
HETATM    9  H1  UNL     1      -9.669   1.884  70.685  1.00  0.00     0.000 HD 
BRANCH   6  10
HETATM   10  C   UNL     1      -7.367   3.259  70.703  1.00  0.00    -0.037 C  
BRANCH  10  11
HETATM   11  C   UNL     1      -7.268   4.150  69.471  1.00  0.00    -0.050 A  
HETATM   12  C   UNL     1      -6.436   5.271  69.394  1.00  0.00    -0.035 A  
HETATM   13  C   UNL     1      -6.406   6.076  68.229  1.00  0.00    -0.044 A  
HETATM   14  C   UNL     1      -7.206   5.804  67.097  1.00  0.00    -0.075 A  
HETATM   15  C   UNL     1      -7.970   4.626  67.174  1.00  0.00    -0.102 A  
HETATM   16  C   UNL     1      -8.007   3.826  68.330  1.00  0.00    -0.071 A  
BRANCH  14  17
HETATM   17  C   UNL     1      -7.313   6.760  65.940  1.00  0.00    -0.075 A  
HETATM   18  N   UNL     1      -6.733   6.378  64.778  1.00  0.00    -0.038 NA 
HETATM   19  C   UNL     1      -6.655   7.277  63.787  1.00  0.00    -0.048 A  
HETATM   20  N   UNL     1      -7.036   8.557  63.859  1.00  0.00    -0.082 NA 
HETATM   21  N   UNL     1      -6.049   6.876  62.613  1.00  0.00    -0.039 NA 
HETATM   22  H1  UNL     1      -5.989   7.560  61.860  1.00  0.00     0.000 HD 
HETATM   23  C   UNL     1      -7.624   8.910  65.005  1.00  0.00    -0.100 A  
HETATM   24  H2  UNL     1      -5.676   5.933  62.504  1.00  0.00     0.000 HD 
HETATM   25  C   UNL     1      -7.833   8.040  66.057  1.00  0.00    -0.094 A  
BRANCH  23  26
HETATM   26  O   UNL     1      -7.921  10.239  65.251  1.00  0.00    -0.142 OA 
BRANCH  26  27
HETATM   27  C   UNL     1      -7.759  10.725  66.607  1.00  0.00    -0.141 C  
HETATM   28  C   UNL     1      -6.449  11.496  66.909  1.00  0.00    -0.144 C  
HETATM   29  F   UNL     1      -5.521  11.421  65.930  1.00  0.00    -0.144 F  
HETATM   30  F   UNL     1      -5.874  10.974  68.032  1.00  0.00    -0.043 F  
HETATM   31  F   UNL     1      -6.645  12.809  67.183  1.00  0.00    -0.159 F  
BRANCH  27  32
HETATM   32  C   UNL     1      -9.031  11.499  67.073  1.00  0.00    -0.174 A  
HETATM   33  C   UNL     1      -9.389  12.635  66.307  1.00  0.00    -0.162 A  
HETATM   34  C   UNL     1     -10.415  13.497  66.704  1.00  0.00    -0.274 A  
HETATM   35  C   UNL     1     -11.098  13.256  67.886  1.00  0.00    -0.262 A  
HETATM   36  C   UNL     1     -10.844  12.098  68.620  1.00  0.00    -0.268 A  
HETATM   37 CL   UNL     1     -12.269  14.386  68.447  1.00  0.00    -0.259 Cl 
HETATM   38  C   UNL     1      -9.859  11.184  68.191  1.00  0.00    -0.180 A  
BRANCH  38  39
HETATM   39  N   UNL     1      -9.751   9.945  68.889  1.00  0.00    -0.168 NA 
HETATM   40  C   UNL     1      -8.877   9.569  69.893  1.00  0.00    -0.211 A  
HETATM   41  C   UNL     1      -9.045   8.214  70.071  1.00  0.00    -0.151 A  
HETATM   42  C   UNL     1     -10.092   7.877  69.203  1.00  0.00    -0.197 A  
HETATM   43  N   UNL     1     -10.615   8.952  68.634  1.00  0.00    -0.186 NA 
HETATM   44  C   UNL     1     -10.641   6.547  68.837  1.00  0.00    -0.280 C  
ENDBRANCH  38  39
ENDBRANCH  27  32
ENDBRANCH  26  27
ENDBRANCH  23  26
ENDBRANCH  14  17
ENDBRANCH  10  11
ENDBRANCH   6  10
ENDBRANCH   4   6
ENDBRANCH   3   4
ENDBRANCH   2   3
TORSDOF 10
ENDMDL
MODEL      183
REMARK 921   NORMALIZED FREE ENERGY PREDICTED BY IDOCK:   -4.02 KCAL/MOL
REMARK 922        TOTAL FREE ENERGY PREDICTED BY IDOCK:   -8.71 KCAL/MOL
REMARK 923 INTER-LIGAND FREE ENERGY PREDICTED BY IDOCK:   -8.62 KCAL/MOL
REMARK 924 INTRA-LIGAND FREE ENERGY PREDICTED BY IDOCK:   -0.09 KCAL/MOL
REMARK 927      BINDING AFFINITY PREDICTED BY RF-SCORE:    0.00 PKD
ROOT
HETATM    1  C   UNL     1     -10.333  20.156  68.686  1.00  0.00    -0.307 C  
HETATM    2  C   UNL     1      -9.275  19.370  69.438  1.00  0.00     0.054 C  
ENDROOT
BRANCH   2   3
HETATM    3  O   UNL     1      -8.234  19.041  68.512  1.00  0.00    -0.331 OA 
BRANCH   3   4
HETATM    4  C   UNL     1      -7.405  20.082  68.192  1.00  0.00    -0.280 C  
HETATM    5  O   UNL     1      -7.545  20.823  67.228  1.00  0.00    -0.346 OA 
BRANCH   4   6
HETATM    6  C   UNL     1      -6.304  20.180  69.256  1.00  0.00    -0.320 C  
HETATM    7  N   UNL     1      -6.898  19.927  70.589  1.00  0.00     0.067 NA 
HETATM    8  H2  UNL     1      -7.400  19.040  70.630  1.00  0.00     0.000 HD 
HETATM    9  H1  UNL     1      -6.166  19.993  71.296  1.00  0.00     0.000 HD 
BRANCH   6  10
HETATM   10  C   UNL     1      -5.153  19.198  68.944  1.00  0.00    -0.192 C  
BRANCH  10  11
HETATM   11  C   UNL     1      -5.520  17.726  68.807  1.00  0.00    -0.168 A  
HETATM   12  C   UNL     1      -5.428  17.016  67.606  1.00  0.00    -0.139 A  
HETATM   13  C   UNL     1      -5.808  15.653  67.536  1.00  0.00    -0.103 A  
HETATM   14  C   UNL     1      -6.302  14.943  68.653  1.00  0.00    -0.084 A  
HETATM   15  C   UNL     1      -6.307  15.661  69.863  1.00  0.00    -0.150 A  
HETATM   16  C   UNL     1      -5.935  17.015  69.937  1.00  0.00    -0.219 A  
BRANCH  14  17
HETATM   17  C   UNL     1      -6.879  13.558  68.535  1.00  0.00    -0.099 A  
HETATM   18  N   UNL     1      -6.033  12.525  68.756  1.00  0.00    -0.063 NA 
HETATM   19  C   UNL     1      -6.468  11.286  68.484  1.00  0.00    -0.051 A  
HETATM   20  N   UNL     1      -7.649  10.972  67.940  1.00  0.00    -0.093 NA 
HETATM   21  N   UNL     1      -5.590  10.244  68.702  1.00  0.00    -0.038 NA 
HETATM   22  H1  UNL     1      -5.920   9.302  68.495  1.00  0.00     0.000 HD 
HETATM   23  C   UNL     1      -8.477  12.002  67.749  1.00  0.00    -0.157 A  
HETATM   24  H2  UNL     1      -4.647  10.410  69.056  1.00  0.00     0.000 HD 
HETATM   25  C   UNL     1      -8.162  13.307  68.075  1.00  0.00    -0.162 A  
BRANCH  23  26
HETATM   26  O   UNL     1      -9.662  11.821  67.057  1.00  0.00    -0.183 OA 
BRANCH  26  27
HETATM   27  C   UNL     1     -10.398  13.005  66.663  1.00  0.00    -0.260 C  
HETATM   28  C   UNL     1     -11.442  12.820  65.532  1.00  0.00    -0.337 C  
HETATM   29  F   UNL     1     -11.374  11.628  64.900  1.00  0.00    -0.364 F  
HETATM   30  F   UNL     1     -11.242  13.779  64.580  1.00  0.00    -0.326 F  
HETATM   31  F   UNL     1     -12.723  12.987  65.946  1.00  0.00    -0.461 F  
BRANCH  27  32
HETATM   32  C   UNL     1     -10.989  13.730  67.912  1.00  0.00    -0.270 A  
HETATM   33  C   UNL     1     -11.429  12.899  68.969  1.00  0.00    -0.358 A  
HETATM   34  C   UNL     1     -12.111  13.413  70.076  1.00  0.00    -0.404 A  
HETATM   35  C   UNL     1     -12.386  14.770  70.145  1.00  0.00    -0.330 A  
HETATM   36  C   UNL     1     -11.886  15.638  69.174  1.00  0.00    -0.378 A  
HETATM   37 CL   UNL     1     -13.341  15.389  71.437  1.00  0.00    -0.560 Cl 
HETATM   38  C   UNL     1     -11.137  15.138  68.089  1.00  0.00    -0.304 A  
BRANCH  38  39
HETATM   39  N   UNL     1     -10.519  16.081  67.216  1.00  0.00    -0.304 NA 
HETATM   40  C   UNL     1      -9.198  16.182  66.817  1.00  0.00    -0.231 A  
HETATM   41  C   UNL     1      -9.082  17.381  66.148  1.00  0.00    -0.177 A  
HETATM   42  C   UNL     1     -10.388  17.889  66.117  1.00  0.00    -0.352 A  
HETATM   43  N   UNL     1     -11.258  17.019  66.605  1.00  0.00     0.375 NA 
HETATM   44  C   UNL     1     -10.890  19.209  65.659  1.00  0.00    -0.218 C  
ENDBRANCH  38  39
ENDBRANCH  27  32
ENDBRANCH  26  27
ENDBRANCH  23  26
ENDBRANCH  14  17
ENDBRANCH  10  11
ENDBRANCH   6  10
ENDBRANCH   4   6
ENDBRANCH   3   4
ENDBRANCH   2   3
TORSDOF 10
ENDMDL
MODEL      184
REMARK 921   NORMALIZED FREE ENERGY PREDICTED BY IDOCK:   -4.00 KCAL/MOL
REMARK 922        TOTAL FREE ENERGY PREDICTED BY IDOCK:   -8.68 KCAL/MOL
REMARK 923 INTER-LIGAND FREE ENERGY PREDICTED BY IDOCK:   -7.38 KCAL/MOL
REMARK 924 INTRA-LIGAND FREE ENERGY PREDICTED BY IDOCK:   -1.30 KCAL/MOL
REMARK 927      BINDING AFFINITY PREDICTED BY RF-SCORE:    0.00 PKD
ROOT
HETATM    1  C   UNL     1     -10.249   4.584  69.034  1.00  0.00     0.065 C  
HETATM    2  C   UNL     1      -9.791   4.578  70.481  1.00  0.00    -0.227 C  
ENDROOT
BRANCH   2   3
HETATM    3  O   UNL     1      -8.417   4.173  70.502  1.00  0.00    -0.068 OA 
BRANCH   3   4
HETATM    4  C   UNL     1      -7.579   5.031  71.161  1.00  0.00    -0.086 C  
HETATM    5  O   UNL     1      -7.666   5.331  72.344  1.00  0.00    -0.097 OA 
BRANCH   4   6
HETATM    6  C   UNL     1      -6.504   5.519  70.181  1.00  0.00    -0.034 C  
HETATM    7  N   UNL     1      -5.401   4.530  70.143  1.00  0.00    -0.007 NA 
HETATM    8  H2  UNL     1      -5.730   3.590  69.922  1.00  0.00     0.000 HD 
HETATM    9  H1  UNL     1      -4.687   4.855  69.492  1.00  0.00     0.000 HD 
BRANCH   6  10
HETATM   10  C   UNL     1      -7.109   5.760  68.781  1.00  0.00    -0.073 C  
BRANCH  10  11
HETATM   11  C   UNL     1      -7.665   7.150  68.499  1.00  0.00    -0.120 A  
HETATM   12  C   UNL     1      -7.827   8.131  69.482  1.00  0.00    -0.104 A  
HETATM   13  C   UNL     1      -8.374   9.398  69.163  1.00  0.00    -0.125 A  
HETATM   14  C   UNL     1      -8.789   9.739  67.857  1.00  0.00    -0.122 A  
HETATM   15  C   UNL     1      -8.539   8.763  66.876  1.00  0.00    -0.120 A  
HETATM   16  C   UNL     1      -8.001   7.501  67.188  1.00  0.00    -0.117 A  
BRANCH  14  17
HETATM   17  C   UNL     1      -9.539  11.009  67.557  1.00  0.00    -0.164 A  
HETATM   18  N   UNL     1     -10.487  10.943  66.593  1.00  0.00    -0.246 NA 
HETATM   19  C   UNL     1     -11.045  12.089  66.178  1.00  0.00    -0.322 A  
HETATM   20  N   UNL     1     -10.700  13.318  66.579  1.00  0.00    -0.283 NA 
HETATM   21  N   UNL     1     -12.000  12.007  65.186  1.00  0.00    -0.334 NA 
HETATM   22  H1  UNL     1     -12.424  12.878  64.870  1.00  0.00     0.000 HD 
HETATM   23  C   UNL     1      -9.778  13.362  67.544  1.00  0.00    -0.224 A  
HETATM   24  H2  UNL     1     -12.272  11.109  64.784  1.00  0.00     0.000 HD 
HETATM   25  C   UNL     1      -9.202  12.237  68.103  1.00  0.00    -0.197 A  
BRANCH  23  26
HETATM   26  O   UNL     1      -9.236  14.575  67.931  1.00  0.00    -0.187 OA 
BRANCH  26  27
HETATM   27  C   UNL     1     -10.151  15.665  68.199  1.00  0.00    -0.222 C  
HETATM   28  C   UNL     1     -11.025  15.532  69.472  1.00  0.00    -0.273 C  
HETATM   29  F   UNL     1     -10.988  14.311  70.048  1.00  0.00    -0.226 F  
HETATM   30  F   UNL     1     -12.330  15.768  69.143  1.00  0.00    -0.349 F  
HETATM   31  F   UNL     1     -10.727  16.442  70.431  1.00  0.00    -0.287 F  
BRANCH  27  32
HETATM   32  C   UNL     1      -9.414  17.038  68.120  1.00  0.00    -0.262 A  
HETATM   33  C   UNL     1     -10.234  18.183  67.975  1.00  0.00    -0.392 A  
HETATM   34  C   UNL     1      -9.695  19.451  67.743  1.00  0.00    -0.431 A  
HETATM   35  C   UNL     1      -8.321  19.606  67.633  1.00  0.00    -0.308 A  
HETATM   36  C   UNL     1      -7.472  18.524  67.866  1.00  0.00    -0.249 A  
HETATM   37 CL   UNL     1      -7.660  21.139  67.215  1.00  0.00    -0.251 Cl 
HETATM   38  C   UNL     1      -8.004  17.253  68.169  1.00  0.00    -0.223 A  
BRANCH  38  39
HETATM   39  N   UNL     1      -7.094  16.224  68.552  1.00  0.00    -0.140 NA 
HETATM   40  C   UNL     1      -6.282  15.425  67.767  1.00  0.00    -0.159 A  
HETATM   41  C   UNL     1      -5.765  14.456  68.598  1.00  0.00    -0.088 A  
HETATM   42  C   UNL     1      -6.244  14.798  69.870  1.00  0.00    -0.150 A  
HETATM   43  N   UNL     1      -6.892  15.952  69.850  1.00  0.00    -0.094 NA 
HETATM   44  C   UNL     1      -6.150  14.063  71.157  1.00  0.00    -0.083 C  
ENDBRANCH  38  39
ENDBRANCH  27  32
ENDBRANCH  26  27
ENDBRANCH  23  26
ENDBRANCH  14  17
ENDBRANCH  10  11
ENDBRANCH   6  10
ENDBRANCH   4   6
ENDBRANCH   3   4
ENDBRANCH   2   3
TORSDOF 10
ENDMDL
MODEL      185
REMARK 921   NORMALIZED FREE ENERGY PREDICTED BY IDOCK:   -3.94 KCAL/MOL
REMARK 922        TOTAL FREE ENERGY PREDICTED BY IDOCK:   -8.59 KCAL/MOL
REMARK 923 INTER-LIGAND FREE ENERGY PREDICTED BY IDOCK:   -8.76 KCAL/MOL
REMARK 924 INTRA-LIGAND FREE ENERGY PREDICTED BY IDOCK:    0.17 KCAL/MOL
REMARK 927      BINDING AFFINITY PREDICTED BY RF-SCORE:    0.00 PKD
ROOT
HETATM    1  C   UNL     1      -6.723  18.559  68.487  1.00  0.00    -0.267 C  
HETATM    2  C   UNL     1      -7.554  19.829  68.450  1.00  0.00    -0.301 C  
ENDROOT
BRANCH   2   3
HETATM    3  O   UNL     1      -8.934  19.447  68.430  1.00  0.00    -0.334 OA 
BRANCH   3   4
HETATM    4  C   UNL     1      -9.586  19.723  67.259  1.00  0.00    -0.359 C  
HETATM    5  O   UNL     1      -9.663  20.828  66.739  1.00  0.00    -0.318 OA 
BRANCH   4   6
HETATM    6  C   UNL     1     -10.167  18.418  66.699  1.00  0.00    -0.394 C  
HETATM    7  N   UNL     1      -9.095  17.677  65.992  1.00  0.00    -0.514 NA 
HETATM    8  H2  UNL     1      -8.278  17.518  66.582  1.00  0.00     0.000 HD 
HETATM    9  H1  UNL     1      -9.481  16.810  65.621  1.00  0.00     0.000 HD 
BRANCH   6  10
HETATM   10  C   UNL     1     -10.801  17.573  67.826  1.00  0.00    -0.251 C  
BRANCH  10  11
HETATM   11  C   UNL     1     -10.453  16.090  67.857  1.00  0.00    -0.292 A  
HETATM   12  C   UNL     1      -9.330  15.574  68.511  1.00  0.00    -0.197 A  
HETATM   13  C   UNL     1      -9.046  14.186  68.483  1.00  0.00    -0.176 A  
HETATM   14  C   UNL     1      -9.860  13.258  67.798  1.00  0.00    -0.224 A  
HETATM   15  C   UNL     1     -11.023  13.796  67.218  1.00  0.00    -0.302 A  
HETATM   16  C   UNL     1     -11.308  15.173  67.239  1.00  0.00    -0.305 A  
BRANCH  14  17
HETATM   17  C   UNL     1      -9.457  11.820  67.610  1.00  0.00    -0.180 A  
HETATM   18  N   UNL     1      -9.822  11.232  66.447  1.00  0.00    -0.205 NA 
HETATM   19  C   UNL     1      -9.639   9.910  66.324  1.00  0.00    -0.209 A  
HETATM   20  N   UNL     1      -9.189   9.089  67.281  1.00  0.00    -0.133 NA 
HETATM   21  N   UNL     1     -10.027   9.323  65.137  1.00  0.00    -0.294 NA 
HETATM   22  H1  UNL     1      -9.888   8.317  65.044  1.00  0.00     0.000 HD 
HETATM   23  C   UNL     1      -8.816   9.690  68.414  1.00  0.00    -0.123 A  
HETATM   24  H2  UNL     1     -10.437   9.873  64.382  1.00  0.00     0.000 HD 
HETATM   25  C   UNL     1      -8.882  11.055  68.613  1.00  0.00    -0.164 A  
BRANCH  23  26
HETATM   26  O   UNL     1      -8.479   8.933  69.522  1.00  0.00    -0.121 OA 
BRANCH  26  27
HETATM   27  C   UNL     1      -9.473   8.789  70.566  1.00  0.00    -0.186 C  
HETATM   28  C   UNL     1     -10.947   9.026  70.150  1.00  0.00    -0.233 C  
HETATM   29  F   UNL     1     -11.099   9.559  68.918  1.00  0.00    -0.233 F  
HETATM   30  F   UNL     1     -11.523   9.901  71.027  1.00  0.00    -0.343 F  
HETATM   31  F   UNL     1     -11.711   7.908  70.205  1.00  0.00    -0.225 F  
BRANCH  27  32
HETATM   32  C   UNL     1      -9.276   7.447  71.337  1.00  0.00    -0.148 A  
HETATM   33  C   UNL     1      -9.242   7.534  72.749  1.00  0.00    -0.208 A  
HETATM   34  C   UNL     1      -8.924   6.432  73.548  1.00  0.00    -0.133 A  
HETATM   35  C   UNL     1      -8.614   5.218  72.954  1.00  0.00    -0.115 A  
HETATM   36  C   UNL     1      -8.731   5.062  71.573  1.00  0.00    -0.141 A  
HETATM   37 CL   UNL     1      -8.093   3.895  73.924  1.00  0.00    -0.086 Cl 
HETATM   38  C   UNL     1      -9.119   6.150  70.763  1.00  0.00    -0.150 A  
BRANCH  38  39
HETATM   39  N   UNL     1      -9.374   5.895  69.384  1.00  0.00    -0.129 NA 
HETATM   40  C   UNL     1     -10.567   5.610  68.744  1.00  0.00    -0.216 A  
HETATM   41  C   UNL     1     -10.242   5.238  67.458  1.00  0.00    -0.229 A  
HETATM   42  C   UNL     1      -8.854   5.412  67.387  1.00  0.00    -0.105 A  
HETATM   43  N   UNL     1      -8.378   5.968  68.489  1.00  0.00    -0.113 NA 
HETATM   44  C   UNL     1      -7.898   5.049  66.310  1.00  0.00    -0.099 C  
ENDBRANCH  38  39
ENDBRANCH  27  32
ENDBRANCH  26  27
ENDBRANCH  23  26
ENDBRANCH  14  17
ENDBRANCH  10  11
ENDBRANCH   6  10
ENDBRANCH   4   6
ENDBRANCH   3   4
ENDBRANCH   2   3
TORSDOF 10
ENDMDL
MODEL      186
REMARK 921   NORMALIZED FREE ENERGY PREDICTED BY IDOCK:   -3.94 KCAL/MOL
REMARK 922        TOTAL FREE ENERGY PREDICTED BY IDOCK:   -8.58 KCAL/MOL
REMARK 923 INTER-LIGAND FREE ENERGY PREDICTED BY IDOCK:   -8.39 KCAL/MOL
REMARK 924 INTRA-LIGAND FREE ENERGY PREDICTED BY IDOCK:   -0.19 KCAL/MOL
REMARK 927      BINDING AFFINITY PREDICTED BY RF-SCORE:    0.00 PKD
ROOT
HETATM    1  C   UNL     1      -9.554   5.103  69.697  1.00  0.00    -0.234 C  
HETATM    2  C   UNL     1      -9.483   3.620  70.012  1.00  0.00    -0.190 C  
ENDROOT
BRANCH   2   3
HETATM    3  O   UNL     1      -8.970   3.480  71.343  1.00  0.00    -0.091 OA 
BRANCH   3   4
HETATM    4  C   UNL     1      -9.735   2.705  72.171  1.00  0.00    -0.146 C  
HETATM    5  O   UNL     1     -10.419   1.755  71.814  1.00  0.00    -0.069 OA 
BRANCH   4   6
HETATM    6  C   UNL     1      -9.563   3.205  73.611  1.00  0.00    -0.098 C  
HETATM    7  N   UNL     1      -8.243   3.865  73.738  1.00  0.00    -0.087 NA 
HETATM    8  H2  UNL     1      -8.111   4.607  73.051  1.00  0.00     0.000 HD 
HETATM    9  H1  UNL     1      -8.129   4.197  74.696  1.00  0.00     0.000 HD 
BRANCH   6  10
HETATM   10  C   UNL     1     -10.719   4.152  74.004  1.00  0.00    -0.310 C  
BRANCH  10  11
HETATM   11  C   UNL     1     -10.773   5.502  73.300  1.00  0.00    -0.314 A  
HETATM   12  C   UNL     1     -11.712   5.822  72.315  1.00  0.00    -0.265 A  
HETATM   13  C   UNL     1     -11.696   7.088  71.679  1.00  0.00    -0.332 A  
HETATM   14  C   UNL     1     -10.744   8.083  71.990  1.00  0.00    -0.319 A  
HETATM   15  C   UNL     1      -9.865   7.762  73.040  1.00  0.00    -0.344 A  
HETATM   16  C   UNL     1      -9.873   6.505  73.672  1.00  0.00    -0.231 A  
BRANCH  14  17
HETATM   17  C   UNL     1     -10.610   9.349  71.187  1.00  0.00    -0.333 A  
HETATM   18  N   UNL     1     -11.692  10.162  71.147  1.00  0.00    -0.369 NA 
HETATM   19  C   UNL     1     -11.669  11.201  70.300  1.00  0.00    -0.341 A  
HETATM   20  N   UNL     1     -10.695  11.476  69.425  1.00  0.00    -0.132 NA 
HETATM   21  N   UNL     1     -12.783  12.013  70.262  1.00  0.00     0.059 NA 
HETATM   22  H1  UNL     1     -12.766  12.803  69.617  1.00  0.00     0.000 HD 
HETATM   23  C   UNL     1      -9.628  10.675  69.493  1.00  0.00    -0.031 A  
HETATM   24  H2  UNL     1     -13.594  11.830  70.855  1.00  0.00     0.000 HD 
HETATM   25  C   UNL     1      -9.513   9.630  70.389  1.00  0.00    -0.280 A  
BRANCH  23  26
HETATM   26  O   UNL     1      -8.628  10.770  68.541  1.00  0.00    -0.133 OA 
BRANCH  26  27
HETATM   27  C   UNL     1      -9.030  10.870  67.153  1.00  0.00    -0.138 C  
HETATM   28  C   UNL     1     -10.053   9.819  66.654  1.00  0.00    -0.237 C  
HETATM   29  F   UNL     1     -10.270   8.801  67.516  1.00  0.00    -0.228 F  
HETATM   30  F   UNL     1      -9.589   9.258  65.498  1.00  0.00    -0.297 F  
HETATM   31  F   UNL     1     -11.261  10.346  66.338  1.00  0.00    -0.131 F  
BRANCH  27  32
HETATM   32  C   UNL     1      -9.454  12.331  66.804  1.00  0.00    -0.222 A  
HETATM   33  C   UNL     1     -10.745  12.492  66.247  1.00  0.00    -0.288 A  
HETATM   34  C   UNL     1     -11.186  13.724  65.755  1.00  0.00    -0.300 A  
HETATM   35  C   UNL     1     -10.341  14.823  65.791  1.00  0.00    -0.340 A  
HETATM   36  C   UNL     1      -9.099  14.732  66.420  1.00  0.00    -0.267 A  
HETATM   37 CL   UNL     1     -10.829  16.306  65.067  1.00  0.00    -0.401 Cl 
HETATM   38  C   UNL     1      -8.672  13.511  66.982  1.00  0.00    -0.187 A  
BRANCH  38  39
HETATM   39  N   UNL     1      -7.469  13.515  67.747  1.00  0.00    -0.149 NA 
HETATM   40  C   UNL     1      -6.248  12.923  67.477  1.00  0.00    -0.152 A  
HETATM   41  C   UNL     1      -5.493  13.043  68.622  1.00  0.00    -0.070 A  
HETATM   42  C   UNL     1      -6.298  13.791  69.492  1.00  0.00    -0.118 A  
HETATM   43  N   UNL     1      -7.400  14.211  68.891  1.00  0.00    -0.124 NA 
HETATM   44  C   UNL     1      -6.100  14.132  70.923  1.00  0.00    -0.149 C  
ENDBRANCH  38  39
ENDBRANCH  27  32
ENDBRANCH  26  27
ENDBRANCH  23  26
ENDBRANCH  14  17
ENDBRANCH  10  11
ENDBRANCH   6  10
ENDBRANCH   4   6
ENDBRANCH   3   4
ENDBRANCH   2   3
TORSDOF 10
ENDMDL
MODEL      187
REMARK 921   NORMALIZED FREE ENERGY PREDICTED BY IDOCK:   -3.87 KCAL/MOL
REMARK 922        TOTAL FREE ENERGY PREDICTED BY IDOCK:   -8.47 KCAL/MOL
REMARK 923 INTER-LIGAND FREE ENERGY PREDICTED BY IDOCK:   -6.63 KCAL/MOL
REMARK 924 INTRA-LIGAND FREE ENERGY PREDICTED BY IDOCK:   -1.84 KCAL/MOL
REMARK 927      BINDING AFFINITY PREDICTED BY RF-SCORE:    0.00 PKD
ROOT
HETATM    1  C   UNL     1     -10.995  16.631  65.682  1.00  0.00    -0.028 C  
HETATM    2  C   UNL     1     -11.189  15.836  64.404  1.00  0.00    -0.236 C  
ENDROOT
BRANCH   2   3
HETATM    3  O   UNL     1     -11.649  14.530  64.768  1.00  0.00    -0.377 OA 
BRANCH   3   4
HETATM    4  C   UNL     1     -12.023  13.741  63.713  1.00  0.00    -0.321 C  
HETATM    5  O   UNL     1     -12.866  14.037  62.877  1.00  0.00    -0.252 OA 
BRANCH   4   6
HETATM    6  C   UNL     1     -11.187  12.455  63.739  1.00  0.00    -0.453 C  
HETATM    7  N   UNL     1      -9.761  12.810  63.931  1.00  0.00    -0.663 NA 
HETATM    8  H2  UNL     1      -9.612  13.387  64.759  1.00  0.00     0.000 HD 
HETATM    9  H1  UNL     1      -9.206  11.954  63.949  1.00  0.00     0.000 HD 
BRANCH   6  10
HETATM   10  C   UNL     1     -11.693  11.496  64.839  1.00  0.00     0.021 C  
BRANCH  10  11
HETATM   11  C   UNL     1     -10.654  10.949  65.810  1.00  0.00    -0.230 A  
HETATM   12  C   UNL     1      -9.888   9.807  65.558  1.00  0.00    -0.378 A  
HETATM   13  C   UNL     1      -8.954   9.333  66.512  1.00  0.00    -0.178 A  
HETATM   14  C   UNL     1      -8.750   9.969  67.757  1.00  0.00    -0.125 A  
HETATM   15  C   UNL     1      -9.476  11.159  67.947  1.00  0.00    -0.178 A  
HETATM   16  C   UNL     1     -10.408  11.631  67.005  1.00  0.00    -0.248 A  
BRANCH  14  17
HETATM   17  C   UNL     1      -7.900   9.362  68.841  1.00  0.00    -0.083 A  
HETATM   18  N   UNL     1      -7.029  10.188  69.466  1.00  0.00    -0.073 NA 
HETATM   19  C   UNL     1      -6.137   9.644  70.306  1.00  0.00    -0.062 A  
HETATM   20  N   UNL     1      -5.975   8.336  70.536  1.00  0.00    -0.032 NA 
HETATM   21  N   UNL     1      -5.247  10.497  70.926  1.00  0.00    -0.079 NA 
HETATM   22  H1  UNL     1      -4.569  10.083  71.564  1.00  0.00     0.000 HD 
HETATM   23  C   UNL     1      -6.856   7.539  69.926  1.00  0.00    -0.047 A  
HETATM   24  H2  UNL     1      -5.267  11.503  70.753  1.00  0.00     0.000 HD 
HETATM   25  C   UNL     1      -7.869   8.003  69.109  1.00  0.00    -0.108 A  
BRANCH  23  26
HETATM   26  O   UNL     1      -6.694   6.166  69.968  1.00  0.00    -0.051 OA 
BRANCH  26  27
HETATM   27  C   UNL     1      -7.774   5.345  69.458  1.00  0.00    -0.077 C  
HETATM   28  C   UNL     1      -7.430   4.419  68.264  1.00  0.00    -0.065 C  
HETATM   29  F   UNL     1      -6.225   4.661  67.702  1.00  0.00    -0.030 F  
HETATM   30  F   UNL     1      -8.361   4.595  67.281  1.00  0.00    -0.104 F  
HETATM   31  F   UNL     1      -7.477   3.100  68.571  1.00  0.00    -0.049 F  
BRANCH  27  32
HETATM   32  C   UNL     1      -8.487   4.585  70.620  1.00  0.00    -0.103 A  
HETATM   33  C   UNL     1      -7.758   3.529  71.217  1.00  0.00    -0.055 A  
HETATM   34  C   UNL     1      -8.337   2.677  72.162  1.00  0.00    -0.061 A  
HETATM   35  C   UNL     1      -9.665   2.848  72.521  1.00  0.00    -0.138 A  
HETATM   36  C   UNL     1     -10.390   3.934  72.031  1.00  0.00    -0.101 A  
HETATM   37 CL   UNL     1     -10.420   1.722  73.582  1.00  0.00    -0.166 Cl 
HETATM   38  C   UNL     1      -9.794   4.841  71.130  1.00  0.00    -0.190 A  
BRANCH  38  39
HETATM   39  N   UNL     1     -10.526   6.015  70.786  1.00  0.00    -0.226 NA 
HETATM   40  C   UNL     1     -10.980   6.443  69.551  1.00  0.00    -0.359 A  
HETATM   41  C   UNL     1     -11.436   7.731  69.727  1.00  0.00     0.186 A  
HETATM   42  C   UNL     1     -11.301   7.963  71.102  1.00  0.00    -0.266 A  
HETATM   43  N   UNL     1     -10.919   6.869  71.742  1.00  0.00    -0.226 NA 
HETATM   44  C   UNL     1     -11.491   9.209  71.885  1.00  0.00    -0.423 C  
ENDBRANCH  38  39
ENDBRANCH  27  32
ENDBRANCH  26  27
ENDBRANCH  23  26
ENDBRANCH  14  17
ENDBRANCH  10  11
ENDBRANCH   6  10
ENDBRANCH   4   6
ENDBRANCH   3   4
ENDBRANCH   2   3
TORSDOF 10
ENDMDL
MODEL      188
REMARK 921   NORMALIZED FREE ENERGY PREDICTED BY IDOCK:   -3.82 KCAL/MOL
REMARK 922        TOTAL FREE ENERGY PREDICTED BY IDOCK:   -8.40 KCAL/MOL
REMARK 923 INTER-LIGAND FREE ENERGY PREDICTED BY IDOCK:   -7.32 KCAL/MOL
REMARK 924 INTRA-LIGAND FREE ENERGY PREDICTED BY IDOCK:   -1.07 KCAL/MOL
REMARK 927      BINDING AFFINITY PREDICTED BY RF-SCORE:    0.00 PKD
ROOT
HETATM    1  C   UNL     1      -8.890   5.602  66.811  1.00  0.00    -0.115 C  
HETATM    2  C   UNL     1      -9.551   4.237  66.773  1.00  0.00    -0.202 C  
ENDROOT
BRANCH   2   3
HETATM    3  O   UNL     1      -8.564   3.263  67.133  1.00  0.00    -0.099 OA 
BRANCH   3   4
HETATM    4  C   UNL     1      -8.763   2.671  68.351  1.00  0.00    -0.093 C  
HETATM    5  O   UNL     1      -9.813   2.167  68.725  1.00  0.00     0.005 OA 
BRANCH   4   6
HETATM    6  C   UNL     1      -7.449   2.717  69.142  1.00  0.00    -0.044 C  
HETATM    7  N   UNL     1      -6.401   3.340  68.300  1.00  0.00    -0.032 NA 
HETATM    8  H2  UNL     1      -6.677   4.259  67.951  1.00  0.00     0.000 HD 
HETATM    9  H1  UNL     1      -5.528   3.371  68.826  1.00  0.00     0.000 HD 
BRANCH   6  10
HETATM   10  C   UNL     1      -7.640   3.473  70.475  1.00  0.00    -0.040 C  
BRANCH  10  11
HETATM   11  C   UNL     1      -8.158   4.903  70.390  1.00  0.00    -0.084 A  
HETATM   12  C   UNL     1      -9.497   5.252  70.589  1.00  0.00    -0.222 A  
HETATM   13  C   UNL     1      -9.924   6.597  70.472  1.00  0.00    -0.197 A  
HETATM   14  C   UNL     1      -9.040   7.649  70.145  1.00  0.00    -0.150 A  
HETATM   15  C   UNL     1      -7.687   7.280  70.031  1.00  0.00    -0.096 A  
HETATM   16  C   UNL     1      -7.259   5.944  70.141  1.00  0.00    -0.072 A  
BRANCH  14  17
HETATM   17  C   UNL     1      -9.523   9.041  69.837  1.00  0.00    -0.177 A  
HETATM   18  N   UNL     1     -10.864   9.223  69.790  1.00  0.00    -0.232 NA 
HETATM   19  C   UNL     1     -11.324  10.401  69.344  1.00  0.00    -0.250 A  
HETATM   20  N   UNL     1     -10.577  11.403  68.866  1.00  0.00    -0.203 NA 
HETATM   21  N   UNL     1     -12.692  10.567  69.289  1.00  0.00    -0.547 NA 
HETATM   22  H1  UNL     1     -13.042  11.462  68.949  1.00  0.00     0.000 HD 
HETATM   23  C   UNL     1      -9.257  11.212  68.939  1.00  0.00    -0.096 A  
HETATM   24  H2  UNL     1     -13.329   9.824  69.577  1.00  0.00     0.000 HD 
HETATM   25  C   UNL     1      -8.677  10.073  69.462  1.00  0.00    -0.205 A  
BRANCH  23  26
HETATM   26  O   UNL     1      -8.393  12.111  68.341  1.00  0.00    -0.160 OA 
BRANCH  26  27
HETATM   27  C   UNL     1      -8.086  11.916  66.938  1.00  0.00    -0.146 C  
HETATM   28  C   UNL     1      -7.227  10.675  66.588  1.00  0.00    -0.128 C  
HETATM   29  F   UNL     1      -6.680  10.056  67.658  1.00  0.00    -0.071 F  
HETATM   30  F   UNL     1      -6.188  11.063  65.790  1.00  0.00    -0.133 F  
HETATM   31  F   UNL     1      -7.896   9.737  65.875  1.00  0.00    -0.101 F  
BRANCH  27  32
HETATM   32  C   UNL     1      -9.379  12.014  66.070  1.00  0.00    -0.196 A  
HETATM   33  C   UNL     1      -9.852  10.803  65.512  1.00  0.00    -0.309 A  
HETATM   34  C   UNL     1     -10.910  10.776  64.599  1.00  0.00    -0.027 A  
HETATM   35  C   UNL     1     -11.510  11.962  64.205  1.00  0.00    -0.346 A  
HETATM   36  C   UNL     1     -11.141  13.167  64.803  1.00  0.00    -0.351 A  
HETATM   37 CL   UNL     1     -12.720  11.949  62.982  1.00  0.00    -0.362 Cl 
HETATM   38  C   UNL     1     -10.122  13.197  65.778  1.00  0.00    -0.285 A  
BRANCH  38  39
HETATM   39  N   UNL     1      -9.895  14.424  66.467  1.00  0.00    -0.276 NA 
HETATM   40  C   UNL     1      -8.964  15.417  66.220  1.00  0.00    -0.306 A  
HETATM   41  C   UNL     1      -9.018  16.280  67.293  1.00  0.00    -0.209 A  
HETATM   42  C   UNL     1     -10.061  15.782  68.086  1.00  0.00    -0.220 A  
HETATM   43  N   UNL     1     -10.685  14.777  67.492  1.00  0.00    -0.264 NA 
HETATM   44  C   UNL     1     -10.512  16.193  69.440  1.00  0.00    -0.283 C  
ENDBRANCH  38  39
ENDBRANCH  27  32
ENDBRANCH  26  27
ENDBRANCH  23  26
ENDBRANCH  14  17
ENDBRANCH  10  11
ENDBRANCH   6  10
ENDBRANCH   4   6
ENDBRANCH   3   4
ENDBRANCH   2   3
TORSDOF 10
ENDMDL
MODEL      189
REMARK 921   NORMALIZED FREE ENERGY PREDICTED BY IDOCK:   -3.76 KCAL/MOL
REMARK 922        TOTAL FREE ENERGY PREDICTED BY IDOCK:   -8.30 KCAL/MOL
REMARK 923 INTER-LIGAND FREE ENERGY PREDICTED BY IDOCK:   -7.63 KCAL/MOL
REMARK 924 INTRA-LIGAND FREE ENERGY PREDICTED BY IDOCK:   -0.68 KCAL/MOL
REMARK 927      BINDING AFFINITY PREDICTED BY RF-SCORE:    0.00 PKD
ROOT
HETATM    1  C   UNL     1      -6.480  20.560  68.337  1.00  0.00    -0.324 C  
HETATM    2  C   UNL     1      -7.603  20.689  67.324  1.00  0.00    -0.333 C  
ENDROOT
BRANCH   2   3
HETATM    3  O   UNL     1      -7.231  19.940  66.161  1.00  0.00    -0.258 OA 
BRANCH   3   4
HETATM    4  C   UNL     1      -7.860  18.732  66.035  1.00  0.00    -0.171 C  
HETATM    5  O   UNL     1      -9.073  18.568  66.007  1.00  0.00    -0.495 OA 
BRANCH   4   6
HETATM    6  C   UNL     1      -6.797  17.634  65.903  1.00  0.00    -0.218 C  
HETATM    7  N   UNL     1      -5.613  18.191  65.207  1.00  0.00    -0.146 NA 
HETATM    8  H2  UNL     1      -5.252  19.029  65.664  1.00  0.00     0.000 HD 
HETATM    9  H1  UNL     1      -4.906  17.461  65.119  1.00  0.00     0.000 HD 
BRANCH   6  10
HETATM   10  C   UNL     1      -6.430  17.057  67.287  1.00  0.00    -0.194 C  
BRANCH  10  11
HETATM   11  C   UNL     1      -7.024  15.701  67.649  1.00  0.00    -0.197 A  
HETATM   12  C   UNL     1      -6.288  14.513  67.655  1.00  0.00    -0.128 A  
HETATM   13  C   UNL     1      -6.902  13.278  67.977  1.00  0.00    -0.122 A  
HETATM   14  C   UNL     1      -8.274  13.172  68.297  1.00  0.00    -0.154 A  
HETATM   15  C   UNL     1      -8.968  14.393  68.362  1.00  0.00    -0.188 A  
HETATM   16  C   UNL     1      -8.364  15.622  68.039  1.00  0.00    -0.146 A  
BRANCH  14  17
HETATM   17  C   UNL     1      -8.964  11.844  68.453  1.00  0.00    -0.163 A  
HETATM   18  N   UNL     1     -10.317  11.856  68.450  1.00  0.00    -0.204 NA 
HETATM   19  C   UNL     1     -10.959  10.723  68.766  1.00  0.00    -0.247 A  
HETATM   20  N   UNL     1     -10.383   9.581  69.159  1.00  0.00    -0.199 NA 
HETATM   21  N   UNL     1     -12.338  10.755  68.771  1.00  0.00    -0.792 NA 
HETATM   22  H1  UNL     1     -12.826   9.892  69.011  1.00  0.00     0.000 HD 
HETATM   23  C   UNL     1      -9.048   9.581  69.136  1.00  0.00    -0.152 A  
HETATM   24  H2  UNL     1     -12.850  11.608  68.543  1.00  0.00     0.000 HD 
HETATM   25  C   UNL     1      -8.290  10.668  68.744  1.00  0.00    -0.144 A  
BRANCH  23  26
HETATM   26  O   UNL     1      -8.345   8.512  69.663  1.00  0.00    -0.116 OA 
BRANCH  26  27
HETATM   27  C   UNL     1      -7.783   7.553  68.733  1.00  0.00    -0.119 C  
HETATM   28  C   UNL     1      -6.287   7.737  68.375  1.00  0.00    -0.045 C  
HETATM   29  F   UNL     1      -5.753   8.905  68.798  1.00  0.00    -0.038 F  
HETATM   30  F   UNL     1      -6.148   7.715  67.016  1.00  0.00    -0.043 F  
HETATM   31  F   UNL     1      -5.493   6.739  68.833  1.00  0.00    -0.014 F  
BRANCH  27  32
HETATM   32  C   UNL     1      -8.119   6.094  69.174  1.00  0.00    -0.109 A  
HETATM   33  C   UNL     1      -7.546   5.058  68.398  1.00  0.00    -0.078 A  
HETATM   34  C   UNL     1      -7.885   3.716  68.595  1.00  0.00    -0.055 A  
HETATM   35  C   UNL     1      -8.820   3.377  69.561  1.00  0.00    -0.092 A  
HETATM   36  C   UNL     1      -9.335   4.355  70.412  1.00  0.00    -0.219 A  
HETATM   37 CL   UNL     1      -9.341   1.745  69.717  1.00  0.00    -0.170 Cl 
HETATM   38  C   UNL     1      -8.947   5.703  70.268  1.00  0.00    -0.139 A  
BRANCH  38  39
HETATM   39  N   UNL     1      -9.380   6.631  71.260  1.00  0.00    -0.159 NA 
HETATM   40  C   UNL     1      -8.703   7.130  72.358  1.00  0.00    -0.123 A  
HETATM   41  C   UNL     1      -9.630   7.819  73.109  1.00  0.00    -0.337 A  
HETATM   42  C   UNL     1     -10.807   7.756  72.351  1.00  0.00    -0.303 A  
HETATM   43  N   UNL     1     -10.594   7.193  71.172  1.00  0.00    -0.222 NA 
HETATM   44  C   UNL     1     -12.186   8.189  72.688  1.00  0.00    -0.270 C  
ENDBRANCH  38  39
ENDBRANCH  27  32
ENDBRANCH  26  27
ENDBRANCH  23  26
ENDBRANCH  14  17
ENDBRANCH  10  11
ENDBRANCH   6  10
ENDBRANCH   4   6
ENDBRANCH   3   4
ENDBRANCH   2   3
TORSDOF 10
ENDMDL
MODEL      190
REMARK 921   NORMALIZED FREE ENERGY PREDICTED BY IDOCK:   -3.75 KCAL/MOL
REMARK 922        TOTAL FREE ENERGY PREDICTED BY IDOCK:   -8.28 KCAL/MOL
REMARK 923 INTER-LIGAND FREE ENERGY PREDICTED BY IDOCK:   -6.87 KCAL/MOL
REMARK 924 INTRA-LIGAND FREE ENERGY PREDICTED BY IDOCK:   -1.41 KCAL/MOL
REMARK 927      BINDING AFFINITY PREDICTED BY RF-SCORE:    0.00 PKD
ROOT
HETATM    1  C   UNL     1      -8.442  15.507  68.721  1.00  0.00    -0.190 C  
HETATM    2  C   UNL     1      -9.324  16.384  67.851  1.00  0.00    -0.214 C  
ENDROOT
BRANCH   2   3
HETATM    3  O   UNL     1      -9.826  15.574  66.782  1.00  0.00    -0.231 OA 
BRANCH   3   4
HETATM    4  C   UNL     1     -11.140  15.214  66.907  1.00  0.00    -0.314 C  
HETATM    5  O   UNL     1     -11.807  15.324  67.927  1.00  0.00    -0.303 OA 
BRANCH   4   6
HETATM    6  C   UNL     1     -11.637  14.688  65.554  1.00  0.00    -0.335 C  
HETATM    7  N   UNL     1     -10.614  14.971  64.521  1.00  0.00    -0.545 NA 
HETATM    8  H2  UNL     1      -9.697  14.599  64.769  1.00  0.00     0.000 HD 
HETATM    9  H1  UNL     1     -10.945  14.622  63.622  1.00  0.00     0.000 HD 
BRANCH   6  10
HETATM   10  C   UNL     1     -11.966  13.182  65.640  1.00  0.00    -0.462 C  
BRANCH  10  11
HETATM   11  C   UNL     1     -10.957  12.295  66.360  1.00  0.00    -0.326 A  
HETATM   12  C   UNL     1      -9.682  12.014  65.861  1.00  0.00    -0.256 A  
HETATM   13  C   UNL     1      -8.797  11.161  66.566  1.00  0.00    -0.174 A  
HETATM   14  C   UNL     1      -9.145  10.548  67.789  1.00  0.00    -0.140 A  
HETATM   15  C   UNL     1     -10.402  10.914  68.305  1.00  0.00    -0.194 A  
HETATM   16  C   UNL     1     -11.286  11.756  67.607  1.00  0.00    -0.370 A  
BRANCH  14  17
HETATM   17  C   UNL     1      -8.282   9.500  68.438  1.00  0.00    -0.113 A  
HETATM   18  N   UNL     1      -7.190   9.939  69.107  1.00  0.00    -0.068 NA 
HETATM   19  C   UNL     1      -6.308   9.027  69.540  1.00  0.00    -0.043 A  
HETATM   20  N   UNL     1      -6.367   7.710  69.311  1.00  0.00    -0.035 NA 
HETATM   21  N   UNL     1      -5.193   9.491  70.209  1.00  0.00    -0.027 NA 
HETATM   22  H1  UNL     1      -4.522   8.797  70.538  1.00  0.00     0.000 HD 
HETATM   23  C   UNL     1      -7.461   7.294  68.668  1.00  0.00    -0.102 A  
HETATM   24  H2  UNL     1      -5.046  10.488  70.367  1.00  0.00     0.000 HD 
HETATM   25  C   UNL     1      -8.472   8.140  68.255  1.00  0.00    -0.130 A  
BRANCH  23  26
HETATM   26  O   UNL     1      -7.559   5.981  68.245  1.00  0.00    -0.088 OA 
BRANCH  26  27
HETATM   27  C   UNL     1      -8.884   5.457  67.979  1.00  0.00    -0.105 C  
HETATM   28  C   UNL     1      -8.950   4.062  67.309  1.00  0.00    -0.133 C  
HETATM   29  F   UNL     1      -7.764   3.609  66.848  1.00  0.00    -0.077 F  
HETATM   30  F   UNL     1      -9.788   4.125  66.232  1.00  0.00    -0.177 F  
HETATM   31  F   UNL     1      -9.469   3.100  68.111  1.00  0.00    -0.212 F  
BRANCH  27  32
HETATM   32  C   UNL     1      -9.782   5.554  69.252  1.00  0.00    -0.214 A  
HETATM   33  C   UNL     1     -11.035   6.191  69.088  1.00  0.00    -0.450 A  
HETATM   34  C   UNL     1     -11.866   6.473  70.176  1.00  0.00    -0.331 A  
HETATM   35  C   UNL     1     -11.457   6.143  71.459  1.00  0.00    -0.264 A  
HETATM   36  C   UNL     1     -10.276   5.427  71.656  1.00  0.00    -0.268 A  
HETATM   37 CL   UNL     1     -12.413   6.607  72.812  1.00  0.00     0.408 Cl 
HETATM   38  C   UNL     1      -9.463   5.075  70.558  1.00  0.00    -0.173 A  
BRANCH  38  39
HETATM   39  N   UNL     1      -8.355   4.212  70.800  1.00  0.00    -0.070 NA 
HETATM   40  C   UNL     1      -8.271   2.834  70.707  1.00  0.00    -0.049 A  
HETATM   41  C   UNL     1      -7.055   2.479  71.248  1.00  0.00    -0.032 A  
HETATM   42  C   UNL     1      -6.442   3.700  71.557  1.00  0.00    -0.015 A  
HETATM   43  N   UNL     1      -7.159   4.725  71.124  1.00  0.00    -0.050 NA 
HETATM   44  C   UNL     1      -5.181   3.980  72.289  1.00  0.00     0.000 C  
ENDBRANCH  38  39
ENDBRANCH  27  32
ENDBRANCH  26  27
ENDBRANCH  23  26
ENDBRANCH  14  17
ENDBRANCH  10  11
ENDBRANCH   6  10
ENDBRANCH   4   6
ENDBRANCH   3   4
ENDBRANCH   2   3
TORSDOF 10
ENDMDL
MODEL      191
REMARK 921   NORMALIZED FREE ENERGY PREDICTED BY IDOCK:   -3.75 KCAL/MOL
REMARK 922        TOTAL FREE ENERGY PREDICTED BY IDOCK:   -8.28 KCAL/MOL
REMARK 923 INTER-LIGAND FREE ENERGY PREDICTED BY IDOCK:   -7.93 KCAL/MOL
REMARK 924 INTRA-LIGAND FREE ENERGY PREDICTED BY IDOCK:   -0.35 KCAL/MOL
REMARK 927      BINDING AFFINITY PREDICTED BY RF-SCORE:    0.00 PKD
ROOT
HETATM    1  C   UNL     1     -10.586  19.805  68.007  1.00  0.00    -0.439 C  
HETATM    2  C   UNL     1      -9.467  19.069  68.723  1.00  0.00    -0.382 C  
ENDROOT
BRANCH   2   3
HETATM    3  O   UNL     1      -8.704  18.368  67.734  1.00  0.00    -0.261 OA 
BRANCH   3   4
HETATM    4  C   UNL     1      -7.826  19.148  67.031  1.00  0.00    -0.250 C  
HETATM    5  O   UNL     1      -7.999  19.547  65.887  1.00  0.00    -0.373 OA 
BRANCH   4   6
HETATM    6  C   UNL     1      -6.619  19.460  67.925  1.00  0.00    -0.232 C  
HETATM    7  N   UNL     1      -7.043  19.403  69.344  1.00  0.00    -0.316 NA 
HETATM    8  H2  UNL     1      -7.484  18.515  69.583  1.00  0.00     0.000 HD 
HETATM    9  H1  UNL     1      -6.240  19.611  69.938  1.00  0.00     0.000 HD 
BRANCH   6  10
HETATM   10  C   UNL     1      -5.456  18.487  67.634  1.00  0.00    -0.159 C  
BRANCH  10  11
HETATM   11  C   UNL     1      -5.641  17.039  68.071  1.00  0.00    -0.124 A  
HETATM   12  C   UNL     1      -6.196  16.050  67.253  1.00  0.00    -0.155 A  
HETATM   13  C   UNL     1      -6.365  14.726  67.725  1.00  0.00    -0.172 A  
HETATM   14  C   UNL     1      -5.999  14.332  69.031  1.00  0.00    -0.090 A  
HETATM   15  C   UNL     1      -5.371  15.327  69.801  1.00  0.00    -0.100 A  
HETATM   16  C   UNL     1      -5.205  16.645  69.339  1.00  0.00    -0.136 A  
BRANCH  14  17
HETATM   17  C   UNL     1      -6.350  12.980  69.592  1.00  0.00    -0.089 A  
HETATM   18  N   UNL     1      -5.685  12.591  70.705  1.00  0.00    -0.272 NA 
HETATM   19  C   UNL     1      -5.843  11.328  71.124  1.00  0.00     0.212 A  
HETATM   20  N   UNL     1      -6.549  10.378  70.500  1.00  0.00    -0.293 NA 
HETATM   21  N   UNL     1      -5.149  10.943  72.253  1.00  0.00    -0.317 NA 
HETATM   22  H1  UNL     1      -5.269   9.982  72.572  1.00  0.00     0.000 HD 
HETATM   23  C   UNL     1      -7.214  10.786  69.416  1.00  0.00    -0.132 A  
HETATM   24  H2  UNL     1      -4.539  11.594  72.749  1.00  0.00     0.000 HD 
HETATM   25  C   UNL     1      -7.190  12.085  68.948  1.00  0.00    -0.089 A  
BRANCH  23  26
HETATM   26  O   UNL     1      -7.853   9.863  68.607  1.00  0.00    -0.083 OA 
BRANCH  26  27
HETATM   27  C   UNL     1      -7.860  10.112  67.179  1.00  0.00    -0.099 C  
HETATM   28  C   UNL     1      -7.475   8.917  66.271  1.00  0.00    -0.091 C  
HETATM   29  F   UNL     1      -6.958   7.858  66.933  1.00  0.00    -0.066 F  
HETATM   30  F   UNL     1      -6.520   9.324  65.382  1.00  0.00    -0.065 F  
HETATM   31  F   UNL     1      -8.501   8.461  65.512  1.00  0.00    -0.131 F  
BRANCH  27  32
HETATM   32  C   UNL     1      -9.197  10.789  66.743  1.00  0.00    -0.174 A  
HETATM   33  C   UNL     1      -9.171  11.493  65.515  1.00  0.00    -0.156 A  
HETATM   34  C   UNL     1     -10.255  12.265  65.086  1.00  0.00    -0.305 A  
HETATM   35  C   UNL     1     -11.385  12.368  65.882  1.00  0.00    -0.356 A  
HETATM   36  C   UNL     1     -11.491  11.614  67.051  1.00  0.00    -0.336 A  
HETATM   37 CL   UNL     1     -12.666  13.422  65.423  1.00  0.00    -0.525 Cl 
HETATM   38  C   UNL     1     -10.431  10.777  67.458  1.00  0.00    -0.220 A  
BRANCH  38  39
HETATM   39  N   UNL     1     -10.655   9.913  68.570  1.00  0.00    -0.208 NA 
HETATM   40  C   UNL     1     -10.667  10.200  69.924  1.00  0.00    -0.295 A  
HETATM   41  C   UNL     1     -10.714   8.990  70.580  1.00  0.00    -0.285 A  
HETATM   42  C   UNL     1     -10.815   8.042  69.553  1.00  0.00    -0.129 A  
HETATM   43  N   UNL     1     -10.953   8.621  68.371  1.00  0.00     0.080 NA 
HETATM   44  C   UNL     1     -10.764   6.559  69.611  1.00  0.00    -0.323 C  
ENDBRANCH  38  39
ENDBRANCH  27  32
ENDBRANCH  26  27
ENDBRANCH  23  26
ENDBRANCH  14  17
ENDBRANCH  10  11
ENDBRANCH   6  10
ENDBRANCH   4   6
ENDBRANCH   3   4
ENDBRANCH   2   3
TORSDOF 10
ENDMDL
MODEL      192
REMARK 921   NORMALIZED FREE ENERGY PREDICTED BY IDOCK:   -3.74 KCAL/MOL
REMARK 922        TOTAL FREE ENERGY PREDICTED BY IDOCK:   -8.27 KCAL/MOL
REMARK 923 INTER-LIGAND FREE ENERGY PREDICTED BY IDOCK:   -7.24 KCAL/MOL
REMARK 924 INTRA-LIGAND FREE ENERGY PREDICTED BY IDOCK:   -1.03 KCAL/MOL
REMARK 927      BINDING AFFINITY PREDICTED BY RF-SCORE:    0.00 PKD
ROOT
HETATM    1  C   UNL     1      -9.180  19.508  69.345  1.00  0.00     0.024 C  
HETATM    2  C   UNL     1      -7.943  19.638  68.474  1.00  0.00    -0.315 C  
ENDROOT
BRANCH   2   3
HETATM    3  O   UNL     1      -8.379  19.808  67.120  1.00  0.00    -0.291 OA 
BRANCH   3   4
HETATM    4  C   UNL     1      -8.528  18.642  66.419  1.00  0.00    -0.272 C  
HETATM    5  O   UNL     1      -7.656  18.110  65.744  1.00  0.00    -0.519 OA 
BRANCH   4   6
HETATM    6  C   UNL     1      -9.947  18.106  66.650  1.00  0.00    -0.362 C  
HETATM    7  N   UNL     1     -10.922  19.183  66.359  1.00  0.00    -0.191 NA 
HETATM    8  H2  UNL     1     -10.802  19.575  65.425  1.00  0.00     0.000 HD 
HETATM    9  H1  UNL     1     -11.865  18.826  66.513  1.00  0.00     0.000 HD 
BRANCH   6  10
HETATM   10  C   UNL     1     -10.204  16.850  65.789  1.00  0.00    -0.287 C  
BRANCH  10  11
HETATM   11  C   UNL     1      -9.824  15.506  66.398  1.00  0.00    -0.298 A  
HETATM   12  C   UNL     1      -8.614  15.273  67.060  1.00  0.00    -0.256 A  
HETATM   13  C   UNL     1      -8.307  13.993  67.584  1.00  0.00    -0.191 A  
HETATM   14  C   UNL     1      -9.184  12.893  67.466  1.00  0.00    -0.192 A  
HETATM   15  C   UNL     1     -10.425  13.179  66.868  1.00  0.00    -0.256 A  
HETATM   16  C   UNL     1     -10.733  14.446  66.341  1.00  0.00    -0.306 A  
BRANCH  14  17
HETATM   17  C   UNL     1      -8.780  11.496  67.854  1.00  0.00    -0.144 A  
HETATM   18  N   UNL     1      -7.504  11.134  67.583  1.00  0.00    -0.097 NA 
HETATM   19  C   UNL     1      -7.166   9.847  67.749  1.00  0.00    -0.088 A  
HETATM   20  N   UNL     1      -7.997   8.857  68.095  1.00  0.00    -0.101 NA 
HETATM   21  N   UNL     1      -5.866   9.491  67.456  1.00  0.00    -0.044 NA 
HETATM   22  H1  UNL     1      -5.608   8.512  67.582  1.00  0.00     0.000 HD 
HETATM   23  C   UNL     1      -9.245   9.237  68.378  1.00  0.00    -0.131 A  
HETATM   24  H2  UNL     1      -5.188  10.179  67.125  1.00  0.00     0.000 HD 
HETATM   25  C   UNL     1      -9.676  10.549  68.323  1.00  0.00    -0.163 A  
BRANCH  23  26
HETATM   26  O   UNL     1     -10.226   8.287  68.600  1.00  0.00    -0.197 OA 
BRANCH  26  27
HETATM   27  C   UNL     1      -9.883   7.147  69.426  1.00  0.00    -0.161 C  
HETATM   28  C   UNL     1     -10.915   6.748  70.511  1.00  0.00    -0.280 C  
HETATM   29  F   UNL     1     -11.900   7.652  70.701  1.00  0.00    -0.297 F  
HETATM   30  F   UNL     1     -10.272   6.613  71.709  1.00  0.00    -0.191 F  
HETATM   31  F   UNL     1     -11.504   5.548  70.283  1.00  0.00    -0.255 F  
BRANCH  27  32
HETATM   32  C   UNL     1      -9.443   5.937  68.543  1.00  0.00    -0.134 A  
HETATM   33  C   UNL     1      -9.699   6.049  67.155  1.00  0.00    -0.148 A  
HETATM   34  C   UNL     1      -9.490   4.980  66.280  1.00  0.00    -0.162 A  
HETATM   35  C   UNL     1      -9.038   3.765  66.772  1.00  0.00    -0.159 A  
HETATM   36  C   UNL     1      -8.681   3.641  68.115  1.00  0.00    -0.130 A  
HETATM   37 CL   UNL     1      -8.908   2.407  65.722  1.00  0.00    -0.126 Cl 
HETATM   38  C   UNL     1      -8.822   4.735  68.994  1.00  0.00    -0.093 A  
BRANCH  38  39
HETATM   39  N   UNL     1      -8.296   4.601  70.312  1.00  0.00    -0.074 NA 
HETATM   40  C   UNL     1      -7.239   5.261  70.914  1.00  0.00    -0.069 A  
HETATM   41  C   UNL     1      -7.007   4.618  72.110  1.00  0.00    -0.060 A  
HETATM   42  C   UNL     1      -8.017   3.650  72.186  1.00  0.00    -0.071 A  
HETATM   43  N   UNL     1      -8.879   3.770  71.189  1.00  0.00    -0.081 NA 
HETATM   44  C   UNL     1      -8.220   2.555  73.167  1.00  0.00    -0.069 C  
ENDBRANCH  38  39
ENDBRANCH  27  32
ENDBRANCH  26  27
ENDBRANCH  23  26
ENDBRANCH  14  17
ENDBRANCH  10  11
ENDBRANCH   6  10
ENDBRANCH   4   6
ENDBRANCH   3   4
ENDBRANCH   2   3
TORSDOF 10
ENDMDL
MODEL      193
REMARK 921   NORMALIZED FREE ENERGY PREDICTED BY IDOCK:   -3.69 KCAL/MOL
REMARK 922        TOTAL FREE ENERGY PREDICTED BY IDOCK:   -8.18 KCAL/MOL
REMARK 923 INTER-LIGAND FREE ENERGY PREDICTED BY IDOCK:   -8.19 KCAL/MOL
REMARK 924 INTRA-LIGAND FREE ENERGY PREDICTED BY IDOCK:    0.01 KCAL/MOL
REMARK 927      BINDING AFFINITY PREDICTED BY RF-SCORE:    0.00 PKD
ROOT
HETATM    1  C   UNL     1      -5.275  18.523  70.148  1.00  0.00    -0.221 C  
HETATM    2  C   UNL     1      -5.906  19.833  70.583  1.00  0.00    -0.275 C  
ENDROOT
BRANCH   2   3
HETATM    3  O   UNL     1      -6.787  20.261  69.538  1.00  0.00    -0.211 OA 
BRANCH   3   4
HETATM    4  C   UNL     1      -6.158  20.668  68.393  1.00  0.00    -0.338 C  
HETATM    5  O   UNL     1      -5.127  21.325  68.351  1.00  0.00    -0.252 OA 
BRANCH   4   6
HETATM    6  C   UNL     1      -6.941  20.134  67.186  1.00  0.00    -0.240 C  
HETATM    7  N   UNL     1      -6.072  19.209  66.419  1.00  0.00    -0.165 NA 
HETATM    8  H2  UNL     1      -5.694  18.460  66.999  1.00  0.00     0.000 HD 
HETATM    9  H1  UNL     1      -6.593  18.855  65.617  1.00  0.00     0.000 HD 
BRANCH   6  10
HETATM   10  C   UNL     1      -8.248  19.449  67.640  1.00  0.00    -0.329 C  
BRANCH  10  11
HETATM   11  C   UNL     1      -8.263  17.926  67.648  1.00  0.00    -0.232 A  
HETATM   12  C   UNL     1      -7.916  17.156  68.762  1.00  0.00    -0.255 A  
HETATM   13  C   UNL     1      -7.926  15.741  68.700  1.00  0.00    -0.155 A  
HETATM   14  C   UNL     1      -8.273  15.034  67.528  1.00  0.00    -0.199 A  
HETATM   15  C   UNL     1      -8.694  15.833  66.450  1.00  0.00    -0.372 A  
HETATM   16  C   UNL     1      -8.682  17.239  66.505  1.00  0.00    -0.293 A  
BRANCH  14  17
HETATM   17  C   UNL     1      -8.102  13.544  67.407  1.00  0.00    -0.176 A  
HETATM   18  N   UNL     1      -6.835  13.085  67.273  1.00  0.00    -0.107 NA 
HETATM   19  C   UNL     1      -6.662  11.787  66.983  1.00  0.00    -0.139 A  
HETATM   20  N   UNL     1      -7.636  10.903  66.740  1.00  0.00    -0.128 NA 
HETATM   21  N   UNL     1      -5.366  11.337  66.837  1.00  0.00    -0.080 NA 
HETATM   22  H1  UNL     1      -5.235  10.351  66.617  1.00  0.00     0.000 HD 
HETATM   23  C   UNL     1      -8.878  11.369  66.897  1.00  0.00    -0.173 A  
HETATM   24  H2  UNL     1      -4.570  11.967  66.945  1.00  0.00     0.000 HD 
HETATM   25  C   UNL     1      -9.166  12.665  67.278  1.00  0.00    -0.195 A  
BRANCH  23  26
HETATM   26  O   UNL     1      -9.962  10.592  66.528  1.00  0.00    -0.199 OA 
BRANCH  26  27
HETATM   27  C   UNL     1     -10.129  10.296  65.119  1.00  0.00    -0.285 C  
HETATM   28  C   UNL     1     -10.232  11.515  64.167  1.00  0.00    -0.325 C  
HETATM   29  F   UNL     1     -10.383  12.701  64.797  1.00  0.00    -0.286 F  
HETATM   30  F   UNL     1     -11.324  11.360  63.362  1.00  0.00    -0.472 F  
HETATM   31  F   UNL     1      -9.178  11.634  63.324  1.00  0.00    -0.247 F  
BRANCH  27  32
HETATM   32  C   UNL     1      -9.069   9.253  64.644  1.00  0.00    -0.177 A  
HETATM   33  C   UNL     1      -8.342   9.587  63.476  1.00  0.00    -0.176 A  
HETATM   34  C   UNL     1      -7.474   8.678  62.865  1.00  0.00    -0.104 A  
HETATM   35  C   UNL     1      -7.325   7.405  63.394  1.00  0.00    -0.087 A  
HETATM   36  C   UNL     1      -7.946   7.068  64.597  1.00  0.00    -0.114 A  
HETATM   37 CL   UNL     1      -6.362   6.239  62.572  1.00  0.00    -0.030 Cl 
HETATM   38  C   UNL     1      -8.769   8.002  65.260  1.00  0.00    -0.029 A  
BRANCH  38  39
HETATM   39  N   UNL     1      -9.250   7.661  66.558  1.00  0.00    -0.168 NA 
HETATM   40  C   UNL     1     -10.517   7.278  66.959  1.00  0.00    -0.328 A  
HETATM   41  C   UNL     1     -10.507   7.273  68.337  1.00  0.00    -0.228 A  
HETATM   42  C   UNL     1      -9.182   7.577  68.675  1.00  0.00    -0.144 A  
HETATM   43  N   UNL     1      -8.408   7.634  67.603  1.00  0.00    -0.117 NA 
HETATM   44  C   UNL     1      -8.573   7.853  70.001  1.00  0.00    -0.135 C  
ENDBRANCH  38  39
ENDBRANCH  27  32
ENDBRANCH  26  27
ENDBRANCH  23  26
ENDBRANCH  14  17
ENDBRANCH  10  11
ENDBRANCH   6  10
ENDBRANCH   4   6
ENDBRANCH   3   4
ENDBRANCH   2   3
TORSDOF 10
ENDMDL
MODEL      194
REMARK 921   NORMALIZED FREE ENERGY PREDICTED BY IDOCK:   -3.66 KCAL/MOL
REMARK 922        TOTAL FREE ENERGY PREDICTED BY IDOCK:   -8.13 KCAL/MOL
REMARK 923 INTER-LIGAND FREE ENERGY PREDICTED BY IDOCK:   -6.58 KCAL/MOL
REMARK 924 INTRA-LIGAND FREE ENERGY PREDICTED BY IDOCK:   -1.56 KCAL/MOL
REMARK 927      BINDING AFFINITY PREDICTED BY RF-SCORE:    0.00 PKD
ROOT
HETATM    1  C   UNL     1      -9.631   3.352  67.454  1.00  0.00    -0.143 C  
HETATM    2  C   UNL     1      -8.787   3.215  68.708  1.00  0.00    -0.116 C  
ENDROOT
BRANCH   2   3
HETATM    3  O   UNL     1      -7.411   3.267  68.316  1.00  0.00    -0.050 OA 
BRANCH   3   4
HETATM    4  C   UNL     1      -6.825   4.496  68.453  1.00  0.00    -0.051 C  
HETATM    5  O   UNL     1      -6.955   5.236  69.419  1.00  0.00    -0.052 OA 
BRANCH   4   6
HETATM    6  C   UNL     1      -5.959   4.769  67.216  1.00  0.00    -0.023 C  
HETATM    7  N   UNL     1      -5.230   3.531  66.855  1.00  0.00    -0.011 NA 
HETATM    8  H2  UNL     1      -5.855   2.735  66.723  1.00  0.00     0.000 HD 
HETATM    9  H1  UNL     1      -4.654   3.712  66.033  1.00  0.00     0.000 HD 
BRANCH   6  10
HETATM   10  C   UNL     1      -6.823   5.289  66.046  1.00  0.00    -0.061 C  
BRANCH  10  11
HETATM   11  C   UNL     1      -7.286   6.738  66.121  1.00  0.00    -0.072 A  
HETATM   12  C   UNL     1      -6.968   7.597  67.178  1.00  0.00    -0.080 A  
HETATM   13  C   UNL     1      -7.449   8.929  67.203  1.00  0.00    -0.084 A  
HETATM   14  C   UNL     1      -8.272   9.459  66.186  1.00  0.00    -0.111 A  
HETATM   15  C   UNL     1      -8.508   8.598  65.098  1.00  0.00    -0.197 A  
HETATM   16  C   UNL     1      -8.037   7.273  65.070  1.00  0.00    -0.120 A  
BRANCH  14  17
HETATM   17  C   UNL     1      -8.934  10.805  66.305  1.00  0.00    -0.170 A  
HETATM   18  N   UNL     1      -9.776  11.161  65.307  1.00  0.00    -0.229 NA 
HETATM   19  C   UNL     1     -10.240  12.419  65.292  1.00  0.00    -0.282 A  
HETATM   20  N   UNL     1      -9.890  13.392  66.140  1.00  0.00    -0.289 NA 
HETATM   21  N   UNL     1     -11.087  12.770  64.261  1.00  0.00    -0.346 NA 
HETATM   22  H1  UNL     1     -11.439  13.727  64.249  1.00  0.00     0.000 HD 
HETATM   23  C   UNL     1      -9.075  13.018  67.129  1.00  0.00    -0.225 A  
HETATM   24  H2  UNL     1     -11.350  12.099  63.538  1.00  0.00     0.000 HD 
HETATM   25  C   UNL     1      -8.608  11.727  67.288  1.00  0.00    -0.162 A  
BRANCH  23  26
HETATM   26  O   UNL     1      -8.529  13.967  67.975  1.00  0.00    -0.153 OA 
BRANCH  26  27
HETATM   27  C   UNL     1      -9.285  15.182  68.199  1.00  0.00    -0.184 C  
HETATM   28  C   UNL     1     -10.449  15.091  69.218  1.00  0.00    -0.249 C  
HETATM   29  F   UNL     1     -10.758  13.831  69.598  1.00  0.00    -0.152 F  
HETATM   30  F   UNL     1     -11.577  15.614  68.653  1.00  0.00    -0.312 F  
HETATM   31  F   UNL     1     -10.242  15.816  70.344  1.00  0.00    -0.293 F  
BRANCH  27  32
HETATM   32  C   UNL     1      -8.329  16.382  68.488  1.00  0.00    -0.202 A  
HETATM   33  C   UNL     1      -7.219  16.112  69.324  1.00  0.00    -0.225 A  
HETATM   34  C   UNL     1      -6.375  17.129  69.778  1.00  0.00    -0.152 A  
HETATM   35  C   UNL     1      -6.629  18.445  69.424  1.00  0.00    -0.209 A  
HETATM   36  C   UNL     1      -7.652  18.744  68.524  1.00  0.00    -0.357 A  
HETATM   37 CL   UNL     1      -5.674  19.713  70.088  1.00  0.00    -0.277 Cl 
HETATM   38  C   UNL     1      -8.467  17.717  68.004  1.00  0.00    -0.253 A  
BRANCH  38  39
HETATM   39  N   UNL     1      -9.391  18.058  66.972  1.00  0.00    -0.259 NA 
HETATM   40  C   UNL     1     -10.078  19.239  66.757  1.00  0.00    -0.389 A  
HETATM   41  C   UNL     1     -10.995  18.981  65.761  1.00  0.00    -0.060 A  
HETATM   42  C   UNL     1     -10.732  17.659  65.380  1.00  0.00     0.042 A  
HETATM   43  N   UNL     1      -9.659  17.182  65.992  1.00  0.00    -0.494 NA 
HETATM   44  C   UNL     1     -11.472  16.765  64.454  1.00  0.00     0.474 C  
ENDBRANCH  38  39
ENDBRANCH  27  32
ENDBRANCH  26  27
ENDBRANCH  23  26
ENDBRANCH  14  17
ENDBRANCH  10  11
ENDBRANCH   6  10
ENDBRANCH   4   6
ENDBRANCH   3   4
ENDBRANCH   2   3
TORSDOF 10
ENDMDL
MODEL      195
REMARK 921   NORMALIZED FREE ENERGY PREDICTED BY IDOCK:   -3.65 KCAL/MOL
REMARK 922        TOTAL FREE ENERGY PREDICTED BY IDOCK:   -8.12 KCAL/MOL
REMARK 923 INTER-LIGAND FREE ENERGY PREDICTED BY IDOCK:   -7.22 KCAL/MOL
REMARK 924 INTRA-LIGAND FREE ENERGY PREDICTED BY IDOCK:   -0.90 KCAL/MOL
REMARK 927      BINDING AFFINITY PREDICTED BY RF-SCORE:    0.00 PKD
ROOT
HETATM    1  C   UNL     1     -10.114  18.835  66.435  1.00  0.00    -0.443 C  
HETATM    2  C   UNL     1     -10.156  17.317  66.413  1.00  0.00    -0.316 C  
ENDROOT
BRANCH   2   3
HETATM    3  O   UNL     1      -9.768  16.851  67.711  1.00  0.00    -0.242 OA 
BRANCH   3   4
HETATM    4  C   UNL     1     -10.558  15.856  68.219  1.00  0.00    -0.276 C  
HETATM    5  O   UNL     1     -11.511  16.027  68.968  1.00  0.00    -0.348 OA 
BRANCH   4   6
HETATM    6  C   UNL     1     -10.071  14.510  67.668  1.00  0.00    -0.228 C  
HETATM    7  N   UNL     1      -9.305  13.805  68.722  1.00  0.00    -0.395 NA 
HETATM    8  H2  UNL     1      -9.838  13.701  69.586  1.00  0.00     0.000 HD 
HETATM    9  H1  UNL     1      -8.982  12.911  68.355  1.00  0.00     0.000 HD 
BRANCH   6  10
HETATM   10  C   UNL     1     -11.259  13.665  67.159  1.00  0.00    -0.327 C  
BRANCH  10  11
HETATM   11  C   UNL     1     -11.105  12.150  67.219  1.00  0.00    -0.341 A  
HETATM   12  C   UNL     1     -11.582  11.367  68.275  1.00  0.00    -0.376 A  
HETATM   13  C   UNL     1     -11.386   9.964  68.286  1.00  0.00    -0.045 A  
HETATM   14  C   UNL     1     -10.702   9.284  67.255  1.00  0.00    -0.244 A  
HETATM   15  C   UNL     1     -10.305  10.087  66.170  1.00  0.00    -0.225 A  
HETATM   16  C   UNL     1     -10.493  11.481  66.156  1.00  0.00    -0.296 A  
BRANCH  14  17
HETATM   17  C   UNL     1     -10.331   7.829  67.359  1.00  0.00    -0.284 A  
HETATM   18  N   UNL     1     -10.751   7.021  66.358  1.00  0.00     0.180 NA 
HETATM   19  C   UNL     1     -10.594   5.698  66.508  1.00  0.00    -0.255 A  
HETATM   20  N   UNL     1     -10.120   5.085  67.599  1.00  0.00    -0.160 NA 
HETATM   21  N   UNL     1     -11.039   4.886  65.485  1.00  0.00    -0.884 NA 
HETATM   22  H1  UNL     1     -10.920   3.880  65.600  1.00  0.00     0.000 HD 
HETATM   23  C   UNL     1      -9.693   5.899  68.567  1.00  0.00    -0.126 A  
HETATM   24  H2  UNL     1     -11.470   5.277  64.647  1.00  0.00     0.000 HD 
HETATM   25  C   UNL     1      -9.728   7.277  68.478  1.00  0.00    -0.149 A  
BRANCH  23  26
HETATM   26  O   UNL     1      -9.324   5.382  69.796  1.00  0.00    -0.133 OA 
BRANCH  26  27
HETATM   27  C   UNL     1      -9.386   6.265  70.944  1.00  0.00    -0.161 C  
HETATM   28  C   UNL     1      -9.375   5.585  72.336  1.00  0.00    -0.143 C  
HETATM   29  F   UNL     1      -9.540   4.245  72.303  1.00  0.00    -0.153 F  
HETATM   30  F   UNL     1     -10.403   6.086  73.084  1.00  0.00    -0.181 F  
HETATM   31  F   UNL     1      -8.254   5.838  73.054  1.00  0.00    -0.114 F  
BRANCH  27  32
HETATM   32  C   UNL     1      -8.324   7.402  70.824  1.00  0.00    -0.119 A  
HETATM   33  C   UNL     1      -8.798   8.724  71.001  1.00  0.00    -0.260 A  
HETATM   34  C   UNL     1      -7.983   9.836  70.774  1.00  0.00     0.185 A  
HETATM   35  C   UNL     1      -6.677   9.655  70.344  1.00  0.00    -0.104 A  
HETATM   36  C   UNL     1      -6.140   8.371  70.251  1.00  0.00    -0.031 A  
HETATM   37 CL   UNL     1      -5.711  11.019  69.933  1.00  0.00    -0.061 Cl 
HETATM   38  C   UNL     1      -6.933   7.243  70.546  1.00  0.00    -0.057 A  
BRANCH  38  39
HETATM   39  N   UNL     1      -6.292   5.971  70.587  1.00  0.00    -0.038 NA 
HETATM   40  C   UNL     1      -5.868   5.161  69.549  1.00  0.00    -0.020 A  
HETATM   41  C   UNL     1      -5.512   3.956  70.113  1.00  0.00    -0.012 A  
HETATM   42  C   UNL     1      -5.669   4.157  71.491  1.00  0.00    -0.008 A  
HETATM   43  N   UNL     1      -5.969   5.417  71.765  1.00  0.00    -0.027 NA 
HETATM   44  C   UNL     1      -5.577   3.192  72.615  1.00  0.00    -0.004 C  
ENDBRANCH  38  39
ENDBRANCH  27  32
ENDBRANCH  26  27
ENDBRANCH  23  26
ENDBRANCH  14  17
ENDBRANCH  10  11
ENDBRANCH   6  10
ENDBRANCH   4   6
ENDBRANCH   3   4
ENDBRANCH   2   3
TORSDOF 10
ENDMDL
MODEL      196
REMARK 921   NORMALIZED FREE ENERGY PREDICTED BY IDOCK:   -3.64 KCAL/MOL
REMARK 922        TOTAL FREE ENERGY PREDICTED BY IDOCK:   -8.12 KCAL/MOL
REMARK 923 INTER-LIGAND FREE ENERGY PREDICTED BY IDOCK:   -8.98 KCAL/MOL
REMARK 924 INTRA-LIGAND FREE ENERGY PREDICTED BY IDOCK:    0.86 KCAL/MOL
REMARK 927      BINDING AFFINITY PREDICTED BY RF-SCORE:    0.00 PKD
ROOT
HETATM    1  C   UNL     1     -12.461  16.214  74.456  1.00  0.00    -0.626 C  
HETATM    2  C   UNL     1     -12.079  15.352  73.266  1.00  0.00    -0.478 C  
ENDROOT
BRANCH   2   3
HETATM    3  O   UNL     1     -11.815  16.225  72.161  1.00  0.00    -0.507 OA 
BRANCH   3   4
HETATM    4  C   UNL     1     -11.460  15.588  71.003  1.00  0.00    -0.383 C  
HETATM    5  O   UNL     1     -10.311  15.412  70.620  1.00  0.00    -0.197 OA 
BRANCH   4   6
HETATM    6  C   UNL     1     -12.733  15.108  70.294  1.00  0.00    -0.299 C  
HETATM    7  N   UNL     1     -12.491  15.084  68.832  1.00  0.00    -0.549 NA 
HETATM    8  H2  UNL     1     -11.674  14.526  68.583  1.00  0.00     0.000 HD 
HETATM    9  H1  UNL     1     -13.338  14.765  68.362  1.00  0.00     0.000 HD 
BRANCH   6  10
HETATM   10  C   UNL     1     -13.169  13.726  70.828  1.00  0.00    -0.077 C  
BRANCH  10  11
HETATM   11  C   UNL     1     -12.349  12.523  70.379  1.00  0.00    -0.311 A  
HETATM   12  C   UNL     1     -11.583  12.504  69.209  1.00  0.00    -0.378 A  
HETATM   13  C   UNL     1     -10.861  11.346  68.831  1.00  0.00    -0.259 A  
HETATM   14  C   UNL     1     -10.876  10.158  69.595  1.00  0.00    -0.299 A  
HETATM   15  C   UNL     1     -11.589  10.234  70.805  1.00  0.00    -0.446 A  
HETATM   16  C   UNL     1     -12.312  11.380  71.182  1.00  0.00    -0.404 A  
BRANCH  14  17
HETATM   17  C   UNL     1     -10.265   8.875  69.099  1.00  0.00    -0.206 A  
HETATM   18  N   UNL     1     -10.127   7.877  70.003  1.00  0.00    -0.196 NA 
HETATM   19  C   UNL     1      -9.427   6.792  69.643  1.00  0.00    -0.146 A  
HETATM   20  N   UNL     1      -8.781   6.627  68.483  1.00  0.00    -0.124 NA 
HETATM   21  N   UNL     1      -9.285   5.789  70.579  1.00  0.00    -0.146 NA 
HETATM   22  H1  UNL     1      -8.752   4.964  70.305  1.00  0.00     0.000 HD 
HETATM   23  C   UNL     1      -8.945   7.613  67.597  1.00  0.00    -0.127 A  
HETATM   24  H2  UNL     1      -9.696   5.869  71.510  1.00  0.00     0.000 HD 
HETATM   25  C   UNL     1      -9.717   8.734  67.834  1.00  0.00    -0.188 A  
BRANCH  23  26
HETATM   26  O   UNL     1      -8.207   7.623  66.427  1.00  0.00    -0.114 OA 
BRANCH  26  27
HETATM   27  C   UNL     1      -7.476   8.832  66.103  1.00  0.00    -0.090 C  
HETATM   28  C   UNL     1      -6.519   8.753  64.887  1.00  0.00    -0.065 C  
HETATM   29  F   UNL     1      -6.315   7.501  64.420  1.00  0.00    -0.042 F  
HETATM   30  F   UNL     1      -5.295   9.238  65.251  1.00  0.00    -0.039 F  
HETATM   31  F   UNL     1      -6.911   9.518  63.839  1.00  0.00    -0.093 F  
BRANCH  27  32
HETATM   32  C   UNL     1      -8.440  10.057  66.029  1.00  0.00    -0.137 A  
HETATM   33  C   UNL     1      -9.619   9.882  65.266  1.00  0.00    -0.361 A  
HETATM   34  C   UNL     1     -10.488  10.943  64.998  1.00  0.00    -0.331 A  
HETATM   35  C   UNL     1     -10.191  12.212  65.471  1.00  0.00    -0.265 A  
HETATM   36  C   UNL     1      -9.093  12.410  66.309  1.00  0.00    -0.099 A  
HETATM   37 CL   UNL     1     -11.185  13.547  65.033  1.00  0.00    -0.320 Cl 
HETATM   38  C   UNL     1      -8.248  11.331  66.643  1.00  0.00    -0.164 A  
BRANCH  38  39
HETATM   39  N   UNL     1      -7.238  11.555  67.624  1.00  0.00    -0.097 NA 
HETATM   40  C   UNL     1      -6.699  10.683  68.552  1.00  0.00    -0.056 A  
HETATM   41  C   UNL     1      -5.920  11.444  69.397  1.00  0.00    -0.066 A  
HETATM   42  C   UNL     1      -5.977  12.734  68.854  1.00  0.00    -0.075 A  
HETATM   43  N   UNL     1      -6.626  12.747  67.701  1.00  0.00    -0.136 NA 
HETATM   44  C   UNL     1      -5.460  14.020  69.387  1.00  0.00    -0.083 C  
ENDBRANCH  38  39
ENDBRANCH  27  32
ENDBRANCH  26  27
ENDBRANCH  23  26
ENDBRANCH  14  17
ENDBRANCH  10  11
ENDBRANCH   6  10
ENDBRANCH   4   6
ENDBRANCH   3   4
ENDBRANCH   2   3
TORSDOF 10
ENDMDL
MODEL      197
REMARK 921   NORMALIZED FREE ENERGY PREDICTED BY IDOCK:   -3.63 KCAL/MOL
REMARK 922        TOTAL FREE ENERGY PREDICTED BY IDOCK:   -8.09 KCAL/MOL
REMARK 923 INTER-LIGAND FREE ENERGY PREDICTED BY IDOCK:   -6.50 KCAL/MOL
REMARK 924 INTRA-LIGAND FREE ENERGY PREDICTED BY IDOCK:   -1.58 KCAL/MOL
REMARK 927      BINDING AFFINITY PREDICTED BY RF-SCORE:    0.00 PKD
ROOT
HETATM    1  C   UNL     1      -9.212  19.342  69.105  1.00  0.00    -0.232 C  
HETATM    2  C   UNL     1      -7.963  19.321  68.241  1.00  0.00    -0.326 C  
ENDROOT
BRANCH   2   3
HETATM    3  O   UNL     1      -8.380  19.359  66.871  1.00  0.00    -0.267 OA 
BRANCH   3   4
HETATM    4  C   UNL     1      -8.306  18.158  66.219  1.00  0.00    -0.198 C  
HETATM    5  O   UNL     1      -7.318  17.734  65.635  1.00  0.00    -0.518 OA 
BRANCH   4   6
HETATM    6  C   UNL     1      -9.648  17.431  66.374  1.00  0.00    -0.276 C  
HETATM    7  N   UNL     1     -10.721  18.266  65.784  1.00  0.00    -0.450 NA 
HETATM    8  H2  UNL     1     -10.527  18.521  64.816  1.00  0.00     0.000 HD 
HETATM    9  H1  UNL     1     -11.612  17.782  65.888  1.00  0.00     0.000 HD 
BRANCH   6  10
HETATM   10  C   UNL     1      -9.589  16.030  65.727  1.00  0.00    -0.311 C  
BRANCH  10  11
HETATM   11  C   UNL     1      -9.280  14.856  66.648  1.00  0.00    -0.302 A  
HETATM   12  C   UNL     1      -8.417  14.942  67.745  1.00  0.00    -0.160 A  
HETATM   13  C   UNL     1      -8.151  13.808  68.551  1.00  0.00    -0.128 A  
HETATM   14  C   UNL     1      -8.723  12.542  68.296  1.00  0.00    -0.171 A  
HETATM   15  C   UNL     1      -9.648  12.507  67.236  1.00  0.00    -0.205 A  
HETATM   16  C   UNL     1      -9.913  13.629  66.430  1.00  0.00    -0.299 A  
BRANCH  14  17
HETATM   17  C   UNL     1      -8.296  11.302  69.033  1.00  0.00    -0.008 A  
HETATM   18  N   UNL     1      -7.067  11.323  69.599  1.00  0.00    -0.066 NA 
HETATM   19  C   UNL     1      -6.586  10.179  70.105  1.00  0.00    -0.128 A  
HETATM   20  N   UNL     1      -7.183   8.983  70.041  1.00  0.00    -0.052 NA 
HETATM   21  N   UNL     1      -5.327  10.213  70.667  1.00  0.00    -0.052 NA 
HETATM   22  H1  UNL     1      -4.961   9.342  71.052  1.00  0.00     0.000 HD 
HETATM   23  C   UNL     1      -8.403   8.986  69.498  1.00  0.00    -0.117 A  
HETATM   24  H2  UNL     1      -4.782  11.075  70.697  1.00  0.00     0.000 HD 
HETATM   25  C   UNL     1      -9.026  10.124  69.025  1.00  0.00    -0.168 A  
BRANCH  23  26
HETATM   26  O   UNL     1      -9.051   7.790  69.242  1.00  0.00    -0.145 OA 
BRANCH  26  27
HETATM   27  C   UNL     1      -8.470   6.580  69.787  1.00  0.00    -0.131 C  
HETATM   28  C   UNL     1      -9.117   6.028  71.083  1.00  0.00    -0.146 C  
HETATM   29  F   UNL     1      -9.996   6.871  71.668  1.00  0.00    -0.173 F  
HETATM   30  F   UNL     1      -8.137   5.788  72.003  1.00  0.00    -0.106 F  
HETATM   31  F   UNL     1      -9.747   4.841  70.910  1.00  0.00    -0.199 F  
BRANCH  27  32
HETATM   32  C   UNL     1      -8.322   5.490  68.680  1.00  0.00    -0.101 A  
HETATM   33  C   UNL     1      -9.112   4.326  68.838  1.00  0.00    -0.183 A  
HETATM   34  C   UNL     1      -8.965   3.217  68.000  1.00  0.00    -0.188 A  
HETATM   35  C   UNL     1      -8.011   3.236  66.994  1.00  0.00    -0.079 A  
HETATM   36  C   UNL     1      -7.280   4.397  66.742  1.00  0.00    -0.079 A  
HETATM   37 CL   UNL     1      -7.732   1.826  66.048  1.00  0.00    -0.066 Cl 
HETATM   38  C   UNL     1      -7.470   5.546  67.537  1.00  0.00    -0.084 A  
BRANCH  38  39
HETATM   39  N   UNL     1      -6.816   6.748  67.137  1.00  0.00    -0.066 NA 
HETATM   40  C   UNL     1      -5.564   7.228  67.480  1.00  0.00    -0.025 A  
HETATM   41  C   UNL     1      -5.498   8.520  67.004  1.00  0.00    -0.037 A  
HETATM   42  C   UNL     1      -6.707   8.701  66.320  1.00  0.00    -0.069 A  
HETATM   43  N   UNL     1      -7.404   7.577  66.263  1.00  0.00    -0.081 NA 
HETATM   44  C   UNL     1      -7.287   9.924  65.710  1.00  0.00    -0.111 C  
ENDBRANCH  38  39
ENDBRANCH  27  32
ENDBRANCH  26  27
ENDBRANCH  23  26
ENDBRANCH  14  17
ENDBRANCH  10  11
ENDBRANCH   6  10
ENDBRANCH   4   6
ENDBRANCH   3   4
ENDBRANCH   2   3
TORSDOF 10
ENDMDL
MODEL      198
REMARK 921   NORMALIZED FREE ENERGY PREDICTED BY IDOCK:   -3.60 KCAL/MOL
REMARK 922        TOTAL FREE ENERGY PREDICTED BY IDOCK:   -8.05 KCAL/MOL
REMARK 923 INTER-LIGAND FREE ENERGY PREDICTED BY IDOCK:   -6.24 KCAL/MOL
REMARK 924 INTRA-LIGAND FREE ENERGY PREDICTED BY IDOCK:   -1.82 KCAL/MOL
REMARK 927      BINDING AFFINITY PREDICTED BY RF-SCORE:    0.00 PKD
ROOT
HETATM    1  C   UNL     1     -13.312  13.408  65.153  1.00  0.00     0.445 C  
HETATM    2  C   UNL     1     -12.504  14.688  65.268  1.00  0.00    -0.182 C  
ENDROOT
BRANCH   2   3
HETATM    3  O   UNL     1     -11.432  14.446  66.187  1.00  0.00    -0.343 OA 
BRANCH   3   4
HETATM    4  C   UNL     1     -10.225  14.181  65.598  1.00  0.00    -0.339 C  
HETATM    5  O   UNL     1     -10.060  13.462  64.622  1.00  0.00    -0.335 OA 
BRANCH   4   6
HETATM    6  C   UNL     1      -9.133  14.960  66.343  1.00  0.00    -0.258 C  
HETATM    7  N   UNL     1      -9.757  16.093  67.067  1.00  0.00    -0.226 NA 
HETATM    8  H2  UNL     1     -10.509  15.791  67.686  1.00  0.00     0.000 HD 
HETATM    9  H1  UNL     1      -9.030  16.610  67.562  1.00  0.00     0.000 HD 
BRANCH   6  10
HETATM   10  C   UNL     1      -8.350  14.030  67.296  1.00  0.00    -0.209 C  
BRANCH  10  11
HETATM   11  C   UNL     1      -9.070  12.778  67.783  1.00  0.00    -0.197 A  
HETATM   12  C   UNL     1     -10.097  12.798  68.731  1.00  0.00    -0.057 A  
HETATM   13  C   UNL     1     -10.712  11.597  69.163  1.00  0.00    -0.188 A  
HETATM   14  C   UNL     1     -10.325  10.329  68.678  1.00  0.00    -0.203 A  
HETATM   15  C   UNL     1      -9.346  10.347  67.668  1.00  0.00    -0.161 A  
HETATM   16  C   UNL     1      -8.729  11.537  67.239  1.00  0.00    -0.151 A  
BRANCH  14  17
HETATM   17  C   UNL     1     -10.844   9.047  69.272  1.00  0.00    -0.113 A  
HETATM   18  N   UNL     1     -11.370   9.122  70.518  1.00  0.00    -0.264 NA 
HETATM   19  C   UNL     1     -11.674   7.977  71.143  1.00  0.00    -0.284 A  
HETATM   20  N   UNL     1     -11.439   6.744  70.678  1.00  0.00    -0.329 NA 
HETATM   21  N   UNL     1     -12.197   8.069  72.417  1.00  0.00    -0.503 NA 
HETATM   22  H1  UNL     1     -12.428   7.197  72.893  1.00  0.00     0.000 HD 
HETATM   23  C   UNL     1     -10.939   6.690  69.441  1.00  0.00    -0.309 A  
HETATM   24  H2  UNL     1     -12.346   8.973  72.865  1.00  0.00     0.000 HD 
HETATM   25  C   UNL     1     -10.671   7.808  68.675  1.00  0.00    -0.084 A  
BRANCH  23  26
HETATM   26  O   UNL     1     -10.517   5.482  68.916  1.00  0.00    -0.223 OA 
BRANCH  26  27
HETATM   27  C   UNL     1      -9.132   5.107  69.120  1.00  0.00    -0.102 C  
HETATM   28  C   UNL     1      -8.769   3.629  68.828  1.00  0.00    -0.098 C  
HETATM   29  F   UNL     1      -9.835   2.821  68.640  1.00  0.00    -0.206 F  
HETATM   30  F   UNL     1      -8.079   3.122  69.892  1.00  0.00    -0.046 F  
HETATM   31  F   UNL     1      -7.948   3.474  67.761  1.00  0.00    -0.077 F  
BRANCH  27  32
HETATM   32  C   UNL     1      -8.177   6.112  68.403  1.00  0.00    -0.115 A  
HETATM   33  C   UNL     1      -8.314   6.213  66.998  1.00  0.00    -0.105 A  
HETATM   34  C   UNL     1      -7.423   6.961  66.223  1.00  0.00    -0.077 A  
HETATM   35  C   UNL     1      -6.361   7.613  66.831  1.00  0.00    -0.053 A  
HETATM   36  C   UNL     1      -6.245   7.621  68.220  1.00  0.00    -0.040 A  
HETATM   37 CL   UNL     1      -5.187   8.424  65.869  1.00  0.00    -0.031 Cl 
HETATM   38  C   UNL     1      -7.179   6.926  69.018  1.00  0.00    -0.091 A  
BRANCH  38  39
HETATM   39  N   UNL     1      -7.106   7.097  70.431  1.00  0.00    -0.065 NA 
HETATM   40  C   UNL     1      -6.230   6.537  71.345  1.00  0.00    -0.041 A  
HETATM   41  C   UNL     1      -6.715   6.853  72.595  1.00  0.00    -0.062 A  
HETATM   42  C   UNL     1      -7.825   7.670  72.341  1.00  0.00    -0.103 A  
HETATM   43  N   UNL     1      -7.939   7.946  71.051  1.00  0.00    -0.088 NA 
HETATM   44  C   UNL     1      -8.846   8.212  73.272  1.00  0.00    -0.324 C  
ENDBRANCH  38  39
ENDBRANCH  27  32
ENDBRANCH  26  27
ENDBRANCH  23  26
ENDBRANCH  14  17
ENDBRANCH  10  11
ENDBRANCH   6  10
ENDBRANCH   4   6
ENDBRANCH   3   4
ENDBRANCH   2   3
TORSDOF 10
ENDMDL
MODEL      199
REMARK 921   NORMALIZED FREE ENERGY PREDICTED BY IDOCK:   -3.59 KCAL/MOL
REMARK 922        TOTAL FREE ENERGY PREDICTED BY IDOCK:   -8.02 KCAL/MOL
REMARK 923 INTER-LIGAND FREE ENERGY PREDICTED BY IDOCK:   -7.24 KCAL/MOL
REMARK 924 INTRA-LIGAND FREE ENERGY PREDICTED BY IDOCK:   -0.78 KCAL/MOL
REMARK 927      BINDING AFFINITY PREDICTED BY RF-SCORE:    0.00 PKD
ROOT
HETATM    1  C   UNL     1      -8.758   2.149  71.107  1.00  0.00    -0.108 C  
HETATM    2  C   UNL     1      -9.982   2.702  71.815  1.00  0.00    -0.118 C  
ENDROOT
BRANCH   2   3
HETATM    3  O   UNL     1      -9.541   3.725  72.715  1.00  0.00    -0.121 OA 
BRANCH   3   4
HETATM    4  C   UNL     1      -9.899   4.996  72.354  1.00  0.00    -0.169 C  
HETATM    5  O   UNL     1      -9.267   5.715  71.592  1.00  0.00    -0.142 OA 
BRANCH   4   6
HETATM    6  C   UNL     1     -11.229   5.345  73.034  1.00  0.00    -0.311 C  
HETATM    7  N   UNL     1     -10.958   6.194  74.218  1.00  0.00    -0.259 NA 
HETATM    8  H2  UNL     1     -10.411   7.024  73.984  1.00  0.00     0.000 HD 
HETATM    9  H1  UNL     1     -11.842   6.426  74.669  1.00  0.00     0.000 HD 
BRANCH   6  10
HETATM   10  C   UNL     1     -12.187   6.035  72.039  1.00  0.00    -0.091 C  
BRANCH  10  11
HETATM   11  C   UNL     1     -11.605   7.153  71.183  1.00  0.00    -0.336 A  
HETATM   12  C   UNL     1     -11.328   8.434  71.669  1.00  0.00    -0.349 A  
HETATM   13  C   UNL     1     -10.810   9.440  70.817  1.00  0.00    -0.372 A  
HETATM   14  C   UNL     1     -10.553   9.216  69.446  1.00  0.00    -0.232 A  
HETATM   15  C   UNL     1     -10.766   7.897  69.005  1.00  0.00    -0.113 A  
HETATM   16  C   UNL     1     -11.285   6.896  69.846  1.00  0.00    -0.334 A  
BRANCH  14  17
HETATM   17  C   UNL     1     -10.183  10.330  68.505  1.00  0.00    -0.172 A  
HETATM   18  N   UNL     1     -10.199  10.041  67.182  1.00  0.00    -0.215 NA 
HETATM   19  C   UNL     1      -9.704  10.951  66.332  1.00  0.00    -0.201 A  
HETATM   20  N   UNL     1      -9.122  12.106  66.673  1.00  0.00    -0.205 NA 
HETATM   21  N   UNL     1      -9.716  10.636  64.989  1.00  0.00    -0.254 NA 
HETATM   22  H1  UNL     1      -9.339  11.329  64.342  1.00  0.00     0.000 HD 
HETATM   23  C   UNL     1      -9.134  12.383  67.980  1.00  0.00    -0.195 A  
HETATM   24  H2  UNL     1     -10.087   9.746  64.655  1.00  0.00     0.000 HD 
HETATM   25  C   UNL     1      -9.696  11.555  68.932  1.00  0.00    -0.069 A  
BRANCH  23  26
HETATM   26  O   UNL     1      -8.431  13.472  68.464  1.00  0.00    -0.157 OA 
BRANCH  26  27
HETATM   27  C   UNL     1      -9.024  14.784  68.297  1.00  0.00    -0.181 C  
HETATM   28  C   UNL     1      -9.531  15.478  69.586  1.00  0.00    -0.243 C  
HETATM   29  F   UNL     1      -9.564  14.677  70.674  1.00  0.00     0.537 F  
HETATM   30  F   UNL     1     -10.810  15.913  69.384  1.00  0.00    -0.216 F  
HETATM   31  F   UNL     1      -8.824  16.585  69.919  1.00  0.00     0.128 F  
BRANCH  27  32
HETATM   32  C   UNL     1      -8.097  15.706  67.445  1.00  0.00    -0.195 A  
HETATM   33  C   UNL     1      -6.776  15.880  67.924  1.00  0.00    -0.163 A  
HETATM   34  C   UNL     1      -5.895  16.794  67.338  1.00  0.00    -0.190 A  
HETATM   35  C   UNL     1      -6.318  17.570  66.270  1.00  0.00    -0.244 A  
HETATM   36  C   UNL     1      -7.576  17.362  65.706  1.00  0.00     0.097 A  
HETATM   37 CL   UNL     1      -5.285  18.790  65.632  1.00  0.00    -0.175 Cl 
HETATM   38  C   UNL     1      -8.448  16.393  66.245  1.00  0.00    -0.337 A  
BRANCH  38  39
HETATM   39  N   UNL     1      -9.652  16.112  65.536  1.00  0.00    -0.444 NA 
HETATM   40  C   UNL     1     -10.660  16.969  65.131  1.00  0.00    -0.015 A  
HETATM   41  C   UNL     1     -11.691  16.175  64.679  1.00  0.00    -0.010 A  
HETATM   42  C   UNL     1     -11.187  14.870  64.764  1.00  0.00    -0.386 A  
HETATM   43  N   UNL     1      -9.910  14.865  65.114  1.00  0.00    -0.235 NA 
HETATM   44  C   UNL     1     -11.867  13.567  64.553  1.00  0.00    -0.442 C  
ENDBRANCH  38  39
ENDBRANCH  27  32
ENDBRANCH  26  27
ENDBRANCH  23  26
ENDBRANCH  14  17
ENDBRANCH  10  11
ENDBRANCH   6  10
ENDBRANCH   4   6
ENDBRANCH   3   4
ENDBRANCH   2   3
TORSDOF 10
ENDMDL
MODEL      200
REMARK 921   NORMALIZED FREE ENERGY PREDICTED BY IDOCK:   -3.57 KCAL/MOL
REMARK 922        TOTAL FREE ENERGY PREDICTED BY IDOCK:   -7.99 KCAL/MOL
REMARK 923 INTER-LIGAND FREE ENERGY PREDICTED BY IDOCK:   -7.36 KCAL/MOL
REMARK 924 INTRA-LIGAND FREE ENERGY PREDICTED BY IDOCK:   -0.63 KCAL/MOL
REMARK 927      BINDING AFFINITY PREDICTED BY RF-SCORE:    0.00 PKD
ROOT
HETATM    1  C   UNL     1     -10.452   3.284  72.786  1.00  0.00    -0.211 C  
HETATM    2  C   UNL     1      -9.421   3.930  71.878  1.00  0.00    -0.140 C  
ENDROOT
BRANCH   2   3
HETATM    3  O   UNL     1      -8.771   4.966  72.623  1.00  0.00    -0.118 OA 
BRANCH   3   4
HETATM    4  C   UNL     1      -8.180   5.935  71.859  1.00  0.00    -0.115 C  
HETATM    5  O   UNL     1      -6.980   6.174  71.828  1.00  0.00    -0.073 OA 
BRANCH   4   6
HETATM    6  C   UNL     1      -9.263   6.637  71.030  1.00  0.00    -0.160 C  
HETATM    7  N   UNL     1      -9.642   7.901  71.704  1.00  0.00    -0.157 NA 
HETATM    8  H2  UNL     1      -8.838   8.503  71.882  1.00  0.00     0.000 HD 
HETATM    9  H1  UNL     1     -10.363   8.368  71.153  1.00  0.00     0.000 HD 
BRANCH   6  10
HETATM   10  C   UNL     1      -8.775   6.881  69.585  1.00  0.00    -0.141 C  
BRANCH  10  11
HETATM   11  C   UNL     1      -9.141   8.216  68.949  1.00  0.00    -0.147 A  
HETATM   12  C   UNL     1     -10.352   8.452  68.291  1.00  0.00    -0.244 A  
HETATM   13  C   UNL     1     -10.624   9.709  67.698  1.00  0.00    -0.334 A  
HETATM   14  C   UNL     1      -9.702  10.779  67.726  1.00  0.00    -0.179 A  
HETATM   15  C   UNL     1      -8.529  10.537  68.462  1.00  0.00    -0.131 A  
HETATM   16  C   UNL     1      -8.251   9.290  69.050  1.00  0.00    -0.111 A  
BRANCH  14  17
HETATM   17  C   UNL     1      -9.913  12.043  66.937  1.00  0.00    -0.202 A  
HETATM   18  N   UNL     1     -10.381  11.903  65.675  1.00  0.00    -0.238 NA 
HETATM   19  C   UNL     1     -10.408  12.989  64.889  1.00  0.00    -0.324 A  
HETATM   20  N   UNL     1      -9.944  14.201  65.212  1.00  0.00    -0.312 NA 
HETATM   21  N   UNL     1     -10.875  12.828  63.601  1.00  0.00    -0.514 NA 
HETATM   22  H1  UNL     1     -10.895  13.653  63.003  1.00  0.00     0.000 HD 
HETATM   23  C   UNL     1      -9.505  14.325  66.467  1.00  0.00    -0.287 A  
HETATM   24  H2  UNL     1     -11.188  11.918  63.260  1.00  0.00     0.000 HD 
HETATM   25  C   UNL     1      -9.514  13.293  67.386  1.00  0.00    -0.218 A  
BRANCH  23  26
HETATM   26  O   UNL     1      -8.866  15.485  66.868  1.00  0.00    -0.216 OA 
BRANCH  26  27
HETATM   27  C   UNL     1      -8.443  15.577  68.251  1.00  0.00    -0.156 C  
HETATM   28  C   UNL     1      -7.309  16.587  68.558  1.00  0.00    -0.186 C  
HETATM   29  F   UNL     1      -6.700  17.090  67.462  1.00  0.00    -0.134 F  
HETATM   30  F   UNL     1      -6.341  15.961  69.290  1.00  0.00    -0.121 F  
HETATM   31  F   UNL     1      -7.710  17.637  69.317  1.00  0.00    -0.206 F  
BRANCH  27  32
HETATM   32  C   UNL     1      -9.674  15.753  69.194  1.00  0.00    -0.250 A  
HETATM   33  C   UNL     1      -9.875  14.737  70.159  1.00  0.00     0.438 A  
HETATM   34  C   UNL     1     -11.018  14.698  70.962  1.00  0.00     0.247 A  
HETATM   35  C   UNL     1     -12.000  15.665  70.808  1.00  0.00    -0.398 A  
HETATM   36  C   UNL     1     -11.799  16.738  69.940  1.00  0.00     1.041 A  
HETATM   37 CL   UNL     1     -13.468  15.547  71.698  1.00  0.00    -0.569 Cl 
HETATM   38  C   UNL     1     -10.616  16.824  69.175  1.00  0.00    -0.343 A  
BRANCH  38  39
HETATM   39  N   UNL     1     -10.394  18.017  68.426  1.00  0.00    -0.380 NA 
HETATM   40  C   UNL     1      -9.977  19.264  68.854  1.00  0.00    -0.427 A  
HETATM   41  C   UNL     1     -10.127  20.116  67.782  1.00  0.00    -0.540 A  
HETATM   42  C   UNL     1     -10.551  19.286  66.736  1.00  0.00    -0.448 A  
HETATM   43  N   UNL     1     -10.538  18.011  67.092  1.00  0.00    -0.358 NA 
HETATM   44  C   UNL     1     -11.013  19.632  65.368  1.00  0.00    -0.001 C  
ENDBRANCH  38  39
ENDBRANCH  27  32
ENDBRANCH  26  27
ENDBRANCH  23  26
ENDBRANCH  14  17
ENDBRANCH  10  11
ENDBRANCH   6  10
ENDBRANCH   4   6
ENDBRANCH   3   4
ENDBRANCH   2   3
TORSDOF 10
ENDMDL
MODEL      201
REMARK 921   NORMALIZED FREE ENERGY PREDICTED BY IDOCK:   -3.56 KCAL/MOL
REMARK 922        TOTAL FREE ENERGY PREDICTED BY IDOCK:   -7.98 KCAL/MOL
REMARK 923 INTER-LIGAND FREE ENERGY PREDICTED BY IDOCK:   -7.89 KCAL/MOL
REMARK 924 INTRA-LIGAND FREE ENERGY PREDICTED BY IDOCK:   -0.09 KCAL/MOL
REMARK 927      BINDING AFFINITY PREDICTED BY RF-SCORE:    0.00 PKD
ROOT
HETATM    1  C   UNL     1     -10.839  16.911  69.193  1.00  0.00    -0.237 C  
HETATM    2  C   UNL     1     -10.513  17.259  67.752  1.00  0.00    -0.371 C  
ENDROOT
BRANCH   2   3
HETATM    3  O   UNL     1     -10.076  18.623  67.721  1.00  0.00    -0.335 OA 
BRANCH   3   4
HETATM    4  C   UNL     1      -8.726  18.786  67.566  1.00  0.00    -0.274 C  
HETATM    5  O   UNL     1      -8.079  19.737  67.983  1.00  0.00    -0.303 OA 
BRANCH   4   6
HETATM    6  C   UNL     1      -8.165  17.568  66.819  1.00  0.00    -0.244 C  
HETATM    7  N   UNL     1      -7.556  18.021  65.547  1.00  0.00    -0.435 NA 
HETATM    8  H2  UNL     1      -6.854  18.747  65.688  1.00  0.00     0.000 HD 
HETATM    9  H1  UNL     1      -7.184  17.212  65.051  1.00  0.00     0.000 HD 
BRANCH   6  10
HETATM   10  C   UNL     1      -7.153  16.804  67.701  1.00  0.00    -0.154 C  
BRANCH  10  11
HETATM   11  C   UNL     1      -7.225  15.282  67.673  1.00  0.00    -0.204 A  
HETATM   12  C   UNL     1      -6.099  14.455  67.732  1.00  0.00    -0.132 A  
HETATM   13  C   UNL     1      -6.229  13.046  67.678  1.00  0.00    -0.158 A  
HETATM   14  C   UNL     1      -7.479  12.401  67.555  1.00  0.00    -0.150 A  
HETATM   15  C   UNL     1      -8.597  13.256  67.579  1.00  0.00    -0.200 A  
HETATM   16  C   UNL     1      -8.474  14.656  67.628  1.00  0.00    -0.187 A  
BRANCH  14  17
HETATM   17  C   UNL     1      -7.602  10.922  67.308  1.00  0.00    -0.104 A  
HETATM   18  N   UNL     1      -7.806  10.532  66.028  1.00  0.00    -0.142 NA 
HETATM   19  C   UNL     1      -8.098   9.244  65.801  1.00  0.00    -0.115 A  
HETATM   20  N   UNL     1      -8.280   8.305  66.736  1.00  0.00    -0.102 NA 
HETATM   21  N   UNL     1      -8.317   8.865  64.492  1.00  0.00    -0.166 NA 
HETATM   22  H1  UNL     1      -8.539   7.885  64.318  1.00  0.00     0.000 HD 
HETATM   23  C   UNL     1      -8.055   8.703  67.991  1.00  0.00    -0.111 A  
HETATM   24  H2  UNL     1      -8.258   9.539  63.727  1.00  0.00     0.000 HD 
HETATM   25  C   UNL     1      -7.665   9.985  68.328  1.00  0.00    -0.084 A  
BRANCH  23  26
HETATM   26  O   UNL     1      -8.356   7.865  69.049  1.00  0.00    -0.127 OA 
BRANCH  26  27
HETATM   27  C   UNL     1      -9.671   7.982  69.647  1.00  0.00    -0.169 C  
HETATM   28  C   UNL     1     -10.867   8.076  68.666  1.00  0.00     0.080 C  
HETATM   29  F   UNL     1     -10.514   8.266  67.375  1.00  0.00    -0.278 F  
HETATM   30  F   UNL     1     -11.649   9.139  69.017  1.00  0.00     0.125 F  
HETATM   31  F   UNL     1     -11.688   6.998  68.708  1.00  0.00     0.066 F  
BRANCH  27  32
HETATM   32  C   UNL     1      -9.879   6.891  70.743  1.00  0.00    -0.190 A  
HETATM   33  C   UNL     1      -8.856   5.920  70.864  1.00  0.00    -0.141 A  
HETATM   34  C   UNL     1      -8.990   4.809  71.701  1.00  0.00    -0.160 A  
HETATM   35  C   UNL     1     -10.158   4.629  72.425  1.00  0.00    -0.182 A  
HETATM   36  C   UNL     1     -11.150   5.610  72.411  1.00  0.00    -0.324 A  
HETATM   37 CL   UNL     1     -10.383   3.197  73.352  1.00  0.00    -0.213 Cl 
HETATM   38  C   UNL     1     -10.995   6.770  71.624  1.00  0.00    -0.235 A  
BRANCH  38  39
HETATM   39  N   UNL     1     -11.962   7.807  71.769  1.00  0.00    -0.285 NA 
HETATM   40  C   UNL     1     -13.343   7.743  71.703  1.00  0.00    -0.342 A  
HETATM   41  C   UNL     1     -13.794   9.045  71.695  1.00  0.00    -0.422 A  
HETATM   42  C   UNL     1     -12.634   9.816  71.846  1.00  0.00    -0.391 A  
HETATM   43  N   UNL     1     -11.572   9.056  72.062  1.00  0.00    -0.364 NA 
HETATM   44  C   UNL     1     -12.447  11.287  71.771  1.00  0.00    -0.125 C  
ENDBRANCH  38  39
ENDBRANCH  27  32
ENDBRANCH  26  27
ENDBRANCH  23  26
ENDBRANCH  14  17
ENDBRANCH  10  11
ENDBRANCH   6  10
ENDBRANCH   4   6
ENDBRANCH   3   4
ENDBRANCH   2   3
TORSDOF 10
ENDMDL
MODEL      202
REMARK 921   NORMALIZED FREE ENERGY PREDICTED BY IDOCK:   -3.55 KCAL/MOL
REMARK 922        TOTAL FREE ENERGY PREDICTED BY IDOCK:   -7.96 KCAL/MOL
REMARK 923 INTER-LIGAND FREE ENERGY PREDICTED BY IDOCK:   -7.08 KCAL/MOL
REMARK 924 INTRA-LIGAND FREE ENERGY PREDICTED BY IDOCK:   -0.88 KCAL/MOL
REMARK 927      BINDING AFFINITY PREDICTED BY RF-SCORE:    0.00 PKD
ROOT
HETATM    1  C   UNL     1     -10.491  19.626  66.068  1.00  0.00    -0.622 C  
HETATM    2  C   UNL     1     -10.196  18.146  66.235  1.00  0.00    -0.395 C  
ENDROOT
BRANCH   2   3
HETATM    3  O   UNL     1     -10.744  17.730  67.491  1.00  0.00    -0.375 OA 
BRANCH   3   4
HETATM    4  C   UNL     1     -10.348  16.487  67.904  1.00  0.00    -0.294 C  
HETATM    5  O   UNL     1     -11.094  15.615  68.327  1.00  0.00    -0.304 OA 
BRANCH   4   6
HETATM    6  C   UNL     1      -8.830  16.366  67.713  1.00  0.00    -0.189 C  
HETATM    7  N   UNL     1      -8.183  16.264  69.042  1.00  0.00    -0.239 NA 
HETATM    8  H2  UNL     1      -8.566  15.504  69.604  1.00  0.00     0.000 HD 
HETATM    9  H1  UNL     1      -7.175  16.184  68.914  1.00  0.00     0.000 HD 
BRANCH   6  10
HETATM   10  C   UNL     1      -8.487  15.159  66.813  1.00  0.00    -0.272 C  
BRANCH  10  11
HETATM   11  C   UNL     1      -8.307  13.812  67.503  1.00  0.00    -0.197 A  
HETATM   12  C   UNL     1      -9.323  12.857  67.609  1.00  0.00    -0.195 A  
HETATM   13  C   UNL     1      -9.102  11.632  68.286  1.00  0.00    -0.187 A  
HETATM   14  C   UNL     1      -7.867  11.310  68.891  1.00  0.00    -0.114 A  
HETATM   15  C   UNL     1      -6.843  12.255  68.699  1.00  0.00    -0.087 A  
HETATM   16  C   UNL     1      -7.058  13.474  68.032  1.00  0.00    -0.127 A  
BRANCH  14  17
HETATM   17  C   UNL     1      -7.692  10.099  69.767  1.00  0.00    -0.168 A  
HETATM   18  N   UNL     1      -6.646   9.288  69.483  1.00  0.00    -0.043 NA 
HETATM   19  C   UNL     1      -6.566   8.114  70.124  1.00  0.00    -0.036 A  
HETATM   20  N   UNL     1      -7.472   7.625  70.978  1.00  0.00    -0.073 NA 
HETATM   21  N   UNL     1      -5.501   7.293  69.814  1.00  0.00    -0.022 NA 
HETATM   22  H1  UNL     1      -5.441   6.399  70.301  1.00  0.00     0.000 HD 
HETATM   23  C   UNL     1      -8.486   8.447  71.261  1.00  0.00    -0.149 A  
HETATM   24  H2  UNL     1      -4.801   7.569  69.124  1.00  0.00     0.000 HD 
HETATM   25  C   UNL     1      -8.618   9.713  70.723  1.00  0.00     0.068 A  
BRANCH  23  26
HETATM   26  O   UNL     1      -9.557   7.995  72.011  1.00  0.00    -0.171 OA 
BRANCH  26  27
HETATM   27  C   UNL     1      -9.952   6.610  71.852  1.00  0.00    -0.177 C  
HETATM   28  C   UNL     1     -11.271   6.186  72.546  1.00  0.00    -0.287 C  
HETATM   29  F   UNL     1     -11.769   7.105  73.403  1.00  0.00    -0.035 F  
HETATM   30  F   UNL     1     -11.047   5.054  73.276  1.00  0.00    -0.277 F  
HETATM   31  F   UNL     1     -12.261   5.863  71.678  1.00  0.00    -0.243 F  
BRANCH  27  32
HETATM   32  C   UNL     1      -9.905   6.191  70.349  1.00  0.00    -0.214 A  
HETATM   33  C   UNL     1     -10.507   7.084  69.431  1.00  0.00    -0.227 A  
HETATM   34  C   UNL     1     -10.663   6.758  68.080  1.00  0.00    -0.295 A  
HETATM   35  C   UNL     1     -10.238   5.522  67.617  1.00  0.00    -0.193 A  
HETATM   36  C   UNL     1      -9.553   4.653  68.465  1.00  0.00    -0.220 A  
HETATM   37 CL   UNL     1     -10.548   5.062  65.988  1.00  0.00    -0.321 Cl 
HETATM   38  C   UNL     1      -9.328   5.001  69.814  1.00  0.00    -0.134 A  
BRANCH  38  39
HETATM   39  N   UNL     1      -8.489   4.149  70.591  1.00  0.00    -0.070 NA 
HETATM   40  C   UNL     1      -8.787   2.958  71.227  1.00  0.00    -0.078 A  
HETATM   41  C   UNL     1      -7.697   2.650  72.011  1.00  0.00    -0.052 A  
HETATM   42  C   UNL     1      -6.765   3.655  71.720  1.00  0.00    -0.023 A  
HETATM   43  N   UNL     1      -7.189   4.441  70.743  1.00  0.00    -0.041 NA 
HETATM   44  C   UNL     1      -5.453   3.954  72.348  1.00  0.00     0.000 C  
ENDBRANCH  38  39
ENDBRANCH  27  32
ENDBRANCH  26  27
ENDBRANCH  23  26
ENDBRANCH  14  17
ENDBRANCH  10  11
ENDBRANCH   6  10
ENDBRANCH   4   6
ENDBRANCH   3   4
ENDBRANCH   2   3
TORSDOF 10
ENDMDL
MODEL      203
REMARK 921   NORMALIZED FREE ENERGY PREDICTED BY IDOCK:   -3.54 KCAL/MOL
REMARK 922        TOTAL FREE ENERGY PREDICTED BY IDOCK:   -7.95 KCAL/MOL
REMARK 923 INTER-LIGAND FREE ENERGY PREDICTED BY IDOCK:   -6.13 KCAL/MOL
REMARK 924 INTRA-LIGAND FREE ENERGY PREDICTED BY IDOCK:   -1.83 KCAL/MOL
REMARK 927      BINDING AFFINITY PREDICTED BY RF-SCORE:    0.00 PKD
ROOT
HETATM    1  C   UNL     1      -7.336  20.533  67.726  1.00  0.00    -0.302 C  
HETATM    2  C   UNL     1      -8.697  20.165  67.161  1.00  0.00    -0.344 C  
ENDROOT
BRANCH   2   3
HETATM    3  O   UNL     1      -8.486  19.271  66.062  1.00  0.00    -0.427 OA 
BRANCH   3   4
HETATM    4  C   UNL     1      -8.647  17.946  66.365  1.00  0.00    -0.227 C  
HETATM    5  O   UNL     1      -9.674  17.443  66.798  1.00  0.00    -0.266 OA 
BRANCH   4   6
HETATM    6  C   UNL     1      -7.344  17.205  66.038  1.00  0.00    -0.135 C  
HETATM    7  N   UNL     1      -6.540  18.030  65.106  1.00  0.00    -0.235 NA 
HETATM    8  H2  UNL     1      -6.372  18.970  65.464  1.00  0.00     0.000 HD 
HETATM    9  H1  UNL     1      -5.674  17.536  64.889  1.00  0.00     0.000 HD 
BRANCH   6  10
HETATM   10  C   UNL     1      -6.565  16.873  67.330  1.00  0.00    -0.205 C  
BRANCH  10  11
HETATM   11  C   UNL     1      -6.647  15.438  67.836  1.00  0.00    -0.169 A  
HETATM   12  C   UNL     1      -5.591  14.526  67.745  1.00  0.00    -0.055 A  
HETATM   13  C   UNL     1      -5.736  13.196  68.212  1.00  0.00    -0.088 A  
HETATM   14  C   UNL     1      -6.937  12.717  68.779  1.00  0.00    -0.096 A  
HETATM   15  C   UNL     1      -7.952  13.678  68.930  1.00  0.00     0.061 A  
HETATM   16  C   UNL     1      -7.815  14.998  68.464  1.00  0.00    -0.137 A  
BRANCH  14  17
HETATM   17  C   UNL     1      -7.151  11.262  69.099  1.00  0.00    -0.122 A  
HETATM   18  N   UNL     1      -6.065  10.457  69.032  1.00  0.00    -0.040 NA 
HETATM   19  C   UNL     1      -6.253   9.134  69.134  1.00  0.00    -0.042 A  
HETATM   20  N   UNL     1      -7.437   8.517  69.226  1.00  0.00    -0.081 NA 
HETATM   21  N   UNL     1      -5.138   8.326  69.051  1.00  0.00    -0.027 NA 
HETATM   22  H1  UNL     1      -5.282   7.319  69.128  1.00  0.00     0.000 HD 
HETATM   23  C   UNL     1      -8.495   9.328  69.311  1.00  0.00    -0.137 A  
HETATM   24  H2  UNL     1      -4.206   8.719  68.917  1.00  0.00     0.000 HD 
HETATM   25  C   UNL     1      -8.404  10.706  69.304  1.00  0.00    -0.112 A  
BRANCH  23  26
HETATM   26  O   UNL     1      -9.775   8.805  69.259  1.00  0.00    -0.167 OA 
BRANCH  26  27
HETATM   27  C   UNL     1     -10.031   7.579  69.987  1.00  0.00    -0.186 C  
HETATM   28  C   UNL     1     -11.380   7.499  70.745  1.00  0.00    -0.280 C  
HETATM   29  F   UNL     1     -12.048   8.671  70.820  1.00  0.00    -0.284 F  
HETATM   30  F   UNL     1     -11.145   7.102  72.031  1.00  0.00    -0.234 F  
HETATM   31  F   UNL     1     -12.234   6.577  70.236  1.00  0.00    -0.458 F  
BRANCH  27  32
HETATM   32  C   UNL     1      -9.779   6.334  69.080  1.00  0.00    -0.154 A  
HETATM   33  C   UNL     1     -10.084   6.488  67.706  1.00  0.00    -0.176 A  
HETATM   34  C   UNL     1     -10.043   5.410  66.818  1.00  0.00    -0.246 A  
HETATM   35  C   UNL     1      -9.715   4.146  67.284  1.00  0.00    -0.170 A  
HETATM   36  C   UNL     1      -9.313   3.968  68.608  1.00  0.00    -0.224 A  
HETATM   37 CL   UNL     1      -9.795   2.792  66.224  1.00  0.00     0.361 Cl 
HETATM   38  C   UNL     1      -9.282   5.063  69.496  1.00  0.00    -0.119 A  
BRANCH  38  39
HETATM   39  N   UNL     1      -8.716   4.857  70.788  1.00  0.00    -0.119 NA 
HETATM   40  C   UNL     1      -8.882   3.802  71.668  1.00  0.00    -0.100 A  
HETATM   41  C   UNL     1      -8.294   4.185  72.853  1.00  0.00    -0.093 A  
HETATM   42  C   UNL     1      -7.728   5.436  72.572  1.00  0.00    -0.102 A  
HETATM   43  N   UNL     1      -7.840   5.741  71.289  1.00  0.00    -0.109 NA 
HETATM   44  C   UNL     1      -7.081   6.418  73.478  1.00  0.00    -0.082 C  
ENDBRANCH  38  39
ENDBRANCH  27  32
ENDBRANCH  26  27
ENDBRANCH  23  26
ENDBRANCH  14  17
ENDBRANCH  10  11
ENDBRANCH   6  10
ENDBRANCH   4   6
ENDBRANCH   3   4
ENDBRANCH   2   3
TORSDOF 10
ENDMDL
MODEL      204
REMARK 921   NORMALIZED FREE ENERGY PREDICTED BY IDOCK:   -3.52 KCAL/MOL
REMARK 922        TOTAL FREE ENERGY PREDICTED BY IDOCK:   -7.93 KCAL/MOL
REMARK 923 INTER-LIGAND FREE ENERGY PREDICTED BY IDOCK:   -7.77 KCAL/MOL
REMARK 924 INTRA-LIGAND FREE ENERGY PREDICTED BY IDOCK:   -0.15 KCAL/MOL
REMARK 927      BINDING AFFINITY PREDICTED BY RF-SCORE:    0.00 PKD
ROOT
HETATM    1  C   UNL     1      -8.817  19.930  67.763  1.00  0.00    -0.390 C  
HETATM    2  C   UNL     1     -10.310  19.717  67.930  1.00  0.00    -0.454 C  
ENDROOT
BRANCH   2   3
HETATM    3  O   UNL     1     -10.653  18.493  67.269  1.00  0.00    -0.405 OA 
BRANCH   3   4
HETATM    4  C   UNL     1     -10.650  18.562  65.902  1.00  0.00    -0.300 C  
HETATM    5  O   UNL     1     -11.062  19.508  65.244  1.00  0.00    -0.406 OA 
BRANCH   4   6
HETATM    6  C   UNL     1     -10.015  17.281  65.345  1.00  0.00     0.356 C  
HETATM    7  N   UNL     1      -9.070  16.735  66.348  1.00  0.00    -0.272 NA 
HETATM    8  H2  UNL     1      -9.510  16.588  67.256  1.00  0.00     0.000 HD 
HETATM    9  H1  UNL     1      -8.649  15.884  65.977  1.00  0.00     0.000 HD 
BRANCH   6  10
HETATM   10  C   UNL     1     -11.103  16.254  64.962  1.00  0.00    -0.262 C  
BRANCH  10  11
HETATM   11  C   UNL     1     -10.959  14.850  65.536  1.00  0.00    -0.355 A  
HETATM   12  C   UNL     1     -11.265  14.523  66.861  1.00  0.00    -0.340 A  
HETATM   13  C   UNL     1     -11.087  13.203  67.344  1.00  0.00    -0.301 A  
HETATM   14  C   UNL     1     -10.591  12.158  66.534  1.00  0.00    -0.269 A  
HETATM   15  C   UNL     1     -10.370  12.498  65.188  1.00  0.00    -0.312 A  
HETATM   16  C   UNL     1     -10.540  13.808  64.704  1.00  0.00    -0.443 A  
BRANCH  14  17
HETATM   17  C   UNL     1     -10.226  10.810  67.095  1.00  0.00    -0.213 A  
HETATM   18  N   UNL     1      -9.826  10.775  68.387  1.00  0.00    -0.163 NA 
HETATM   19  C   UNL     1      -9.324   9.626  68.861  1.00  0.00    -0.151 A  
HETATM   20  N   UNL     1      -9.111   8.512  68.151  1.00  0.00    -0.138 NA 
HETATM   21  N   UNL     1      -8.909   9.610  70.177  1.00  0.00    -0.228 NA 
HETATM   22  H1  UNL     1      -8.527   8.736  70.538  1.00  0.00     0.000 HD 
HETATM   23  C   UNL     1      -9.531   8.559  66.884  1.00  0.00    -0.183 A  
HETATM   24  H2  UNL     1      -8.980  10.440  70.766  1.00  0.00     0.000 HD 
HETATM   25  C   UNL     1     -10.140   9.663  66.320  1.00  0.00    -0.322 A  
BRANCH  23  26
HETATM   26  O   UNL     1      -9.229   7.525  66.015  1.00  0.00    -0.143 OA 
BRANCH  26  27
HETATM   27  C   UNL     1      -9.349   6.170  66.515  1.00  0.00    -0.153 C  
HETATM   28  C   UNL     1     -10.783   5.679  66.834  1.00  0.00    -0.272 C  
HETATM   29  F   UNL     1     -11.720   6.653  66.822  1.00  0.00    -0.289 F  
HETATM   30  F   UNL     1     -10.800   5.137  68.087  1.00  0.00    -0.152 F  
HETATM   31  F   UNL     1     -11.214   4.692  66.010  1.00  0.00    -0.211 F  
BRANCH  27  32
HETATM   32  C   UNL     1      -8.563   5.175  65.606  1.00  0.00    -0.139 A  
HETATM   33  C   UNL     1      -8.893   3.805  65.745  1.00  0.00    -0.124 A  
HETATM   34  C   UNL     1      -8.163   2.802  65.100  1.00  0.00    -0.091 A  
HETATM   35  C   UNL     1      -7.072   3.142  64.315  1.00  0.00    -0.057 A  
HETATM   36  C   UNL     1      -6.772   4.482  64.072  1.00  0.00    -0.044 A  
HETATM   37 CL   UNL     1      -6.090   1.906  63.628  1.00  0.00    -0.013 Cl 
HETATM   38  C   UNL     1      -7.545   5.504  64.661  1.00  0.00    -0.079 A  
BRANCH  38  39
HETATM   39  N   UNL     1      -7.293   6.847  64.256  1.00  0.00    -0.078 NA 
HETATM   40  C   UNL     1      -7.788   7.550  63.171  1.00  0.00    -0.133 A  
HETATM   41  C   UNL     1      -7.075   8.727  63.111  1.00  0.00    -0.089 A  
HETATM   42  C   UNL     1      -6.242   8.688  64.237  1.00  0.00    -0.067 A  
HETATM   43  N   UNL     1      -6.510   7.641  65.001  1.00  0.00    -0.038 NA 
HETATM   44  C   UNL     1      -5.144   9.599  64.647  1.00  0.00    -0.050 C  
ENDBRANCH  38  39
ENDBRANCH  27  32
ENDBRANCH  26  27
ENDBRANCH  23  26
ENDBRANCH  14  17
ENDBRANCH  10  11
ENDBRANCH   6  10
ENDBRANCH   4   6
ENDBRANCH   3   4
ENDBRANCH   2   3
TORSDOF 10
ENDMDL
MODEL      205
REMARK 921   NORMALIZED FREE ENERGY PREDICTED BY IDOCK:   -3.48 KCAL/MOL
REMARK 922        TOTAL FREE ENERGY PREDICTED BY IDOCK:   -7.86 KCAL/MOL
REMARK 923 INTER-LIGAND FREE ENERGY PREDICTED BY IDOCK:   -6.96 KCAL/MOL
REMARK 924 INTRA-LIGAND FREE ENERGY PREDICTED BY IDOCK:   -0.90 KCAL/MOL
REMARK 927      BINDING AFFINITY PREDICTED BY RF-SCORE:    0.00 PKD
ROOT
HETATM    1  C   UNL     1     -12.970  15.596  73.260  1.00  0.00    -0.664 C  
HETATM    2  C   UNL     1     -12.286  14.775  72.182  1.00  0.00    -0.316 C  
ENDROOT
BRANCH   2   3
HETATM    3  O   UNL     1     -11.504  15.669  71.381  1.00  0.00    -0.358 OA 
BRANCH   3   4
HETATM    4  C   UNL     1     -11.001  15.117  70.235  1.00  0.00    -0.251 C  
HETATM    5  O   UNL     1      -9.811  14.981  69.981  1.00  0.00    -0.071 OA 
BRANCH   4   6
HETATM    6  C   UNL     1     -12.171  14.671  69.348  1.00  0.00    -0.235 C  
HETATM    7  N   UNL     1     -11.893  15.065  67.947  1.00  0.00    -0.471 NA 
HETATM    8  H2  UNL     1     -10.996  14.710  67.614  1.00  0.00     0.000 HD 
HETATM    9  H1  UNL     1     -12.671  14.769  67.358  1.00  0.00     0.000 HD 
BRANCH   6  10
HETATM   10  C   UNL     1     -12.410  13.151  69.481  1.00  0.00    -0.087 C  
BRANCH  10  11
HETATM   11  C   UNL     1     -11.336  12.232  68.913  1.00  0.00    -0.337 A  
HETATM   12  C   UNL     1     -11.065  12.112  67.547  1.00  0.00    -0.328 A  
HETATM   13  C   UNL     1     -10.069  11.220  67.078  1.00  0.00    -0.238 A  
HETATM   14  C   UNL     1      -9.309  10.406  67.945  1.00  0.00    -0.147 A  
HETATM   15  C   UNL     1      -9.548  10.607  69.317  1.00  0.00    -0.164 A  
HETATM   16  C   UNL     1     -10.538  11.488  69.788  1.00  0.00     0.286 A  
BRANCH  14  17
HETATM   17  C   UNL     1      -8.389   9.329  67.438  1.00  0.00    -0.122 A  
HETATM   18  N   UNL     1      -7.898   9.487  66.187  1.00  0.00    -0.100 NA 
HETATM   19  C   UNL     1      -7.225   8.464  65.640  1.00  0.00    -0.075 A  
HETATM   20  N   UNL     1      -7.050   7.258  66.192  1.00  0.00    -0.068 NA 
HETATM   21  N   UNL     1      -6.741   8.636  64.359  1.00  0.00    -0.070 NA 
HETATM   22  H1  UNL     1      -6.230   7.858  63.943  1.00  0.00     0.000 HD 
HETATM   23  C   UNL     1      -7.523   7.128  67.433  1.00  0.00    -0.100 A  
HETATM   24  H2  UNL     1      -6.890   9.506  63.848  1.00  0.00     0.000 HD 
HETATM   25  C   UNL     1      -8.156   8.146  68.121  1.00  0.00    -0.128 A  
BRANCH  23  26
HETATM   26  O   UNL     1      -7.534   5.887  68.045  1.00  0.00    -0.082 OA 
BRANCH  26  27
HETATM   27  C   UNL     1      -8.814   5.226  68.202  1.00  0.00    -0.105 C  
HETATM   28  C   UNL     1      -8.788   3.677  68.247  1.00  0.00    -0.115 C  
HETATM   29  F   UNL     1      -7.601   3.131  67.904  1.00  0.00    -0.056 F  
HETATM   30  F   UNL     1      -9.710   3.190  67.365  1.00  0.00    -0.244 F  
HETATM   31  F   UNL     1      -9.138   3.164  69.452  1.00  0.00    -0.133 F  
BRANCH  27  32
HETATM   32  C   UNL     1      -9.614   5.846  69.390  1.00  0.00    -0.171 A  
HETATM   33  C   UNL     1     -10.993   6.072  69.167  1.00  0.00    -0.429 A  
HETATM   34  C   UNL     1     -11.787   6.756  70.092  1.00  0.00    -0.321 A  
HETATM   35  C   UNL     1     -11.218   7.248  71.257  1.00  0.00    -0.256 A  
HETATM   36  C   UNL     1      -9.887   6.963  71.562  1.00  0.00    -0.175 A  
HETATM   37 CL   UNL     1     -12.158   8.205  72.334  1.00  0.00    -0.410 Cl 
HETATM   38  C   UNL     1      -9.095   6.213  70.668  1.00  0.00    -0.150 A  
BRANCH  38  39
HETATM   39  N   UNL     1      -7.795   5.819  71.100  1.00  0.00    -0.108 NA 
HETATM   40  C   UNL     1      -6.770   6.583  71.628  1.00  0.00    -0.062 A  
HETATM   41  C   UNL     1      -5.660   5.768  71.678  1.00  0.00    -0.021 A  
HETATM   42  C   UNL     1      -6.127   4.519  71.247  1.00  0.00    -0.018 A  
HETATM   43  N   UNL     1      -7.439   4.526  71.072  1.00  0.00    -0.054 NA 
HETATM   44  C   UNL     1      -5.382   3.269  70.952  1.00  0.00    -0.008 C  
ENDBRANCH  38  39
ENDBRANCH  27  32
ENDBRANCH  26  27
ENDBRANCH  23  26
ENDBRANCH  14  17
ENDBRANCH  10  11
ENDBRANCH   6  10
ENDBRANCH   4   6
ENDBRANCH   3   4
ENDBRANCH   2   3
TORSDOF 10
ENDMDL
MODEL      206
REMARK 921   NORMALIZED FREE ENERGY PREDICTED BY IDOCK:   -3.44 KCAL/MOL
REMARK 922        TOTAL FREE ENERGY PREDICTED BY IDOCK:   -7.80 KCAL/MOL
REMARK 923 INTER-LIGAND FREE ENERGY PREDICTED BY IDOCK:   -6.45 KCAL/MOL
REMARK 924 INTRA-LIGAND FREE ENERGY PREDICTED BY IDOCK:   -1.35 KCAL/MOL
REMARK 927      BINDING AFFINITY PREDICTED BY RF-SCORE:    0.00 PKD
ROOT
HETATM    1  C   UNL     1     -11.947  16.935  74.447  1.00  0.00    -0.110 C  
HETATM    2  C   UNL     1     -12.513  15.569  74.102  1.00  0.00    -0.662 C  
ENDROOT
BRANCH   2   3
HETATM    3  O   UNL     1     -11.741  15.039  73.018  1.00  0.00    -0.331 OA 
BRANCH   3   4
HETATM    4  C   UNL     1     -12.364  15.082  71.799  1.00  0.00    -0.344 C  
HETATM    5  O   UNL     1     -12.507  16.088  71.117  1.00  0.00    -0.425 OA 
BRANCH   4   6
HETATM    6  C   UNL     1     -12.814  13.664  71.426  1.00  0.00    -0.360 C  
HETATM    7  N   UNL     1     -14.008  13.310  72.228  1.00  0.00    -0.556 NA 
HETATM    8  H2  UNL     1     -14.759  13.994  72.131  1.00  0.00     0.000 HD 
HETATM    9  H1  UNL     1     -14.307  12.367  71.980  1.00  0.00     0.000 HD 
BRANCH   6  10
HETATM   10  C   UNL     1     -13.088  13.558  69.910  1.00  0.00     0.780 C  
BRANCH  10  11
HETATM   11  C   UNL     1     -12.127  12.704  69.093  1.00  0.00    -0.191 A  
HETATM   12  C   UNL     1     -11.706  13.037  67.802  1.00  0.00    -0.405 A  
HETATM   13  C   UNL     1     -10.829  12.189  67.081  1.00  0.00    -0.286 A  
HETATM   14  C   UNL     1     -10.342  10.973  67.611  1.00  0.00    -0.223 A  
HETATM   15  C   UNL     1     -10.718  10.706  68.939  1.00  0.00    -0.254 A  
HETATM   16  C   UNL     1     -11.592  11.542  69.657  1.00  0.00    -0.403 A  
BRANCH  14  17
HETATM   17  C   UNL     1      -9.566   9.987  66.779  1.00  0.00    -0.181 A  
HETATM   18  N   UNL     1      -9.711  10.075  65.437  1.00  0.00    -0.282 NA 
HETATM   19  C   UNL     1      -9.180   9.104  64.680  1.00  0.00     0.038 A  
HETATM   20  N   UNL     1      -8.573   8.002  65.134  1.00  0.00    -0.104 NA 
HETATM   21  N   UNL     1      -9.346   9.202  63.314  1.00  0.00    -0.378 NA 
HETATM   22  H1  UNL     1      -8.943   8.463  62.739  1.00  0.00     0.000 HD 
HETATM   23  C   UNL     1      -8.422   7.942  66.460  1.00  0.00    -0.134 A  
HETATM   24  H2  UNL     1      -9.853   9.982  62.895  1.00  0.00     0.000 HD 
HETATM   25  C   UNL     1      -8.855   8.929  67.324  1.00  0.00    -0.137 A  
BRANCH  23  26
HETATM   26  O   UNL     1      -7.947   6.785  67.052  1.00  0.00    -0.106 OA 
BRANCH  26  27
HETATM   27  C   UNL     1      -8.880   5.996  67.830  1.00  0.00    -0.110 C  
HETATM   28  C   UNL     1      -9.936   5.191  67.030  1.00  0.00    -0.196 C  
HETATM   29  F   UNL     1      -9.997   5.506  65.717  1.00  0.00    -0.152 F  
HETATM   30  F   UNL     1     -11.174   5.441  67.550  1.00  0.00    -0.122 F  
HETATM   31  F   UNL     1      -9.774   3.848  67.118  1.00  0.00    -0.210 F  
BRANCH  27  32
HETATM   32  C   UNL     1      -8.124   5.118  68.876  1.00  0.00    -0.085 A  
HETATM   33  C   UNL     1      -8.607   5.172  70.206  1.00  0.00    -0.121 A  
HETATM   34  C   UNL     1      -7.931   4.553  71.260  1.00  0.00    -0.086 A  
HETATM   35  C   UNL     1      -6.745   3.879  71.016  1.00  0.00    -0.031 A  
HETATM   36  C   UNL     1      -6.285   3.718  69.709  1.00  0.00    -0.028 A  
HETATM   37 CL   UNL     1      -5.839   3.230  72.328  1.00  0.00    -0.008 Cl 
HETATM   38  C   UNL     1      -6.997   4.279  68.629  1.00  0.00    -0.051 A  
BRANCH  38  39
HETATM   39  N   UNL     1      -6.571   3.952  67.308  1.00  0.00    -0.045 NA 
HETATM   40  C   UNL     1      -5.910   4.730  66.375  1.00  0.00    -0.022 A  
HETATM   41  C   UNL     1      -5.924   4.020  65.194  1.00  0.00    -0.023 A  
HETATM   42  C   UNL     1      -6.530   2.802  65.528  1.00  0.00    -0.028 A  
HETATM   43  N   UNL     1      -6.752   2.712  66.830  1.00  0.00    -0.040 NA 
HETATM   44  C   UNL     1      -6.956   1.676  64.660  1.00  0.00    -0.039 C  
ENDBRANCH  38  39
ENDBRANCH  27  32
ENDBRANCH  26  27
ENDBRANCH  23  26
ENDBRANCH  14  17
ENDBRANCH  10  11
ENDBRANCH   6  10
ENDBRANCH   4   6
ENDBRANCH   3   4
ENDBRANCH   2   3
TORSDOF 10
ENDMDL
MODEL      207
REMARK 921   NORMALIZED FREE ENERGY PREDICTED BY IDOCK:   -3.36 KCAL/MOL
REMARK 922        TOTAL FREE ENERGY PREDICTED BY IDOCK:   -7.67 KCAL/MOL
REMARK 923 INTER-LIGAND FREE ENERGY PREDICTED BY IDOCK:   -7.28 KCAL/MOL
REMARK 924 INTRA-LIGAND FREE ENERGY PREDICTED BY IDOCK:   -0.39 KCAL/MOL
REMARK 927      BINDING AFFINITY PREDICTED BY RF-SCORE:    0.00 PKD
ROOT
HETATM    1  C   UNL     1     -14.411  15.256  71.204  1.00  0.00    -0.384 C  
HETATM    2  C   UNL     1     -13.934  14.959  72.615  1.00  0.00    -0.359 C  
ENDROOT
BRANCH   2   3
HETATM    3  O   UNL     1     -12.801  14.088  72.518  1.00  0.00    -0.360 OA 
BRANCH   3   4
HETATM    4  C   UNL     1     -12.251  14.004  71.268  1.00  0.00    -0.310 C  
HETATM    5  O   UNL     1     -11.559  14.865  70.743  1.00  0.00    -0.281 OA 
BRANCH   4   6
HETATM    6  C   UNL     1     -12.619  12.644  70.659  1.00  0.00    -0.160 C  
HETATM    7  N   UNL     1     -11.504  12.183  69.799  1.00  0.00    -0.483 NA 
HETATM    8  H2  UNL     1     -10.614  12.158  70.297  1.00  0.00     0.000 HD 
HETATM    9  H1  UNL     1     -11.749  11.279  69.395  1.00  0.00     0.000 HD 
BRANCH   6  10
HETATM   10  C   UNL     1     -12.951  11.620  71.767  1.00  0.00    -0.483 C  
BRANCH  10  11
HETATM   11  C   UNL     1     -12.463  10.193  71.557  1.00  0.00    -0.526 A  
HETATM   12  C   UNL     1     -13.313   9.084  71.521  1.00  0.00    -0.394 A  
HETATM   13  C   UNL     1     -12.797   7.776  71.346  1.00  0.00    -0.328 A  
HETATM   14  C   UNL     1     -11.416   7.517  71.209  1.00  0.00    -0.298 A  
HETATM   15  C   UNL     1     -10.594   8.658  71.168  1.00  0.00    -0.291 A  
HETATM   16  C   UNL     1     -11.101   9.958  71.346  1.00  0.00    -0.207 A  
BRANCH  14  17
HETATM   17  C   UNL     1     -10.854   6.120  71.213  1.00  0.00    -0.266 A  
HETATM   18  N   UNL     1     -10.524   5.600  72.418  1.00  0.00    -0.203 NA 
HETATM   19  C   UNL     1      -9.859   4.437  72.441  1.00  0.00    -0.167 A  
HETATM   20  N   UNL     1      -9.420   3.764  71.371  1.00  0.00    -0.143 NA 
HETATM   21  N   UNL     1      -9.517   3.926  73.677  1.00  0.00    -0.102 NA 
HETATM   22  H1  UNL     1      -9.011   3.041  73.694  1.00  0.00     0.000 HD 
HETATM   23  C   UNL     1      -9.772   4.282  70.192  1.00  0.00    -0.212 A  
HETATM   24  H2  UNL     1      -9.762   4.414  74.539  1.00  0.00     0.000 HD 
HETATM   25  C   UNL     1     -10.531   5.428  70.056  1.00  0.00    -0.373 A  
BRANCH  23  26
HETATM   26  O   UNL     1      -9.251   3.760  69.021  1.00  0.00    -0.129 OA 
BRANCH  26  27
HETATM   27  C   UNL     1      -7.818   3.846  68.826  1.00  0.00    -0.063 C  
HETATM   28  C   UNL     1      -6.978   2.660  69.362  1.00  0.00    -0.037 C  
HETATM   29  F   UNL     1      -7.665   1.801  70.147  1.00  0.00    -0.041 F  
HETATM   30  F   UNL     1      -5.953   3.147  70.122  1.00  0.00    -0.016 F  
HETATM   31  F   UNL     1      -6.385   1.931  68.385  1.00  0.00    -0.024 F  
BRANCH  27  32
HETATM   32  C   UNL     1      -7.482   4.196  67.343  1.00  0.00    -0.069 A  
HETATM   33  C   UNL     1      -8.028   3.338  66.358  1.00  0.00    -0.081 A  
HETATM   34  C   UNL     1      -7.683   3.454  65.008  1.00  0.00    -0.081 A  
HETATM   35  C   UNL     1      -6.769   4.418  64.611  1.00  0.00    -0.045 A  
HETATM   36  C   UNL     1      -6.283   5.346  65.532  1.00  0.00    -0.034 A  
HETATM   37 CL   UNL     1      -6.240   4.477  62.974  1.00  0.00    -0.018 Cl 
HETATM   38  C   UNL     1      -6.678   5.282  66.884  1.00  0.00    -0.061 A  
BRANCH  38  39
HETATM   39  N   UNL     1      -6.277   6.345  67.746  1.00  0.00    -0.024 NA 
HETATM   40  C   UNL     1      -5.216   6.412  68.631  1.00  0.00    -0.008 A  
HETATM   41  C   UNL     1      -5.395   7.561  69.370  1.00  0.00    -0.015 A  
HETATM   42  C   UNL     1      -6.529   8.162  68.808  1.00  0.00    -0.053 A  
HETATM   43  N   UNL     1      -6.939   7.511  67.730  1.00  0.00    -0.077 NA 
HETATM   44  C   UNL     1      -7.303   9.348  69.253  1.00  0.00    -0.071 C  
ENDBRANCH  38  39
ENDBRANCH  27  32
ENDBRANCH  26  27
ENDBRANCH  23  26
ENDBRANCH  14  17
ENDBRANCH  10  11
ENDBRANCH   6  10
ENDBRANCH   4   6
ENDBRANCH   3   4
ENDBRANCH   2   3
TORSDOF 10
ENDMDL
MODEL      208
REMARK 921   NORMALIZED FREE ENERGY PREDICTED BY IDOCK:   -3.36 KCAL/MOL
REMARK 922        TOTAL FREE ENERGY PREDICTED BY IDOCK:   -7.66 KCAL/MOL
REMARK 923 INTER-LIGAND FREE ENERGY PREDICTED BY IDOCK:   -7.23 KCAL/MOL
REMARK 924 INTRA-LIGAND FREE ENERGY PREDICTED BY IDOCK:   -0.43 KCAL/MOL
REMARK 927      BINDING AFFINITY PREDICTED BY RF-SCORE:    0.00 PKD
ROOT
HETATM    1  C   UNL     1      -5.283  18.827  70.361  1.00  0.00    -0.220 C  
HETATM    2  C   UNL     1      -6.592  19.577  70.527  1.00  0.00     0.140 C  
ENDROOT
BRANCH   2   3
HETATM    3  O   UNL     1      -6.835  20.304  69.316  1.00  0.00    -0.225 OA 
BRANCH   3   4
HETATM    4  C   UNL     1      -7.711  19.701  68.455  1.00  0.00    -0.331 C  
HETATM    5  O   UNL     1      -8.760  19.162  68.780  1.00  0.00    -0.354 OA 
BRANCH   4   6
HETATM    6  C   UNL     1      -7.174  19.847  67.025  1.00  0.00    -0.229 C  
HETATM    7  N   UNL     1      -6.342  21.071  66.945  1.00  0.00    -0.279 NA 
HETATM    8  H2  UNL     1      -5.597  21.081  67.642  1.00  0.00     0.000 HD 
HETATM    9  H1  UNL     1      -5.985  21.167  65.994  1.00  0.00     0.000 HD 
BRANCH   6  10
HETATM   10  C   UNL     1      -6.385  18.587  66.605  1.00  0.00    -0.206 C  
BRANCH  10  11
HETATM   11  C   UNL     1      -7.088  17.246  66.770  1.00  0.00    -0.248 A  
HETATM   12  C   UNL     1      -6.552  16.178  67.496  1.00  0.00    -0.200 A  
HETATM   13  C   UNL     1      -7.243  14.945  67.593  1.00  0.00    -0.207 A  
HETATM   14  C   UNL     1      -8.489  14.721  66.967  1.00  0.00    -0.250 A  
HETATM   15  C   UNL     1      -9.039  15.838  66.313  1.00  0.00    -0.373 A  
HETATM   16  C   UNL     1      -8.355  17.063  66.210  1.00  0.00    -0.308 A  
BRANCH  14  17
HETATM   17  C   UNL     1      -9.129  13.360  66.913  1.00  0.00    -0.231 A  
HETATM   18  N   UNL     1     -10.400  13.302  66.451  1.00  0.00    -0.280 NA 
HETATM   19  C   UNL     1     -11.058  12.140  66.558  1.00  0.00    -0.307 A  
HETATM   20  N   UNL     1     -10.598  11.032  67.151  1.00  0.00    -0.236 NA 
HETATM   21  N   UNL     1     -12.357  12.100  66.094  1.00  0.00    -0.370 NA 
HETATM   22  H1  UNL     1     -12.857  11.216  66.176  1.00  0.00     0.000 HD 
HETATM   23  C   UNL     1      -9.336  11.101  67.582  1.00  0.00    -0.165 A  
HETATM   24  H2  UNL     1     -12.800  12.924  65.686  1.00  0.00     0.000 HD 
HETATM   25  C   UNL     1      -8.541  12.222  67.443  1.00  0.00    -0.178 A  
BRANCH  23  26
HETATM   26  O   UNL     1      -8.806  10.074  68.342  1.00  0.00    -0.115 OA 
BRANCH  26  27
HETATM   27  C   UNL     1      -9.174  10.014  69.742  1.00  0.00    -0.199 C  
HETATM   28  C   UNL     1     -10.685   9.871  70.051  1.00  0.00    -0.292 C  
HETATM   29  F   UNL     1     -11.491  10.050  68.981  1.00  0.00    -0.244 F  
HETATM   30  F   UNL     1     -11.044  10.816  70.971  1.00  0.00    -0.234 F  
HETATM   31  F   UNL     1     -11.014   8.682  70.612  1.00  0.00    -0.226 F  
BRANCH  27  32
HETATM   32  C   UNL     1      -8.306   8.959  70.497  1.00  0.00    -0.177 A  
HETATM   33  C   UNL     1      -7.923   9.294  71.819  1.00  0.00     0.448 A  
HETATM   34  C   UNL     1      -7.026   8.507  72.547  1.00  0.00    -0.071 A  
HETATM   35  C   UNL     1      -6.474   7.375  71.966  1.00  0.00    -0.043 A  
HETATM   36  C   UNL     1      -6.898   6.956  70.705  1.00  0.00    -0.058 A  
HETATM   37 CL   UNL     1      -5.270   6.478  72.807  1.00  0.00    -0.035 Cl 
HETATM   38  C   UNL     1      -7.856   7.704  69.989  1.00  0.00    -0.101 A  
BRANCH  38  39
HETATM   39  N   UNL     1      -8.367   7.149  68.780  1.00  0.00    -0.125 NA 
HETATM   40  C   UNL     1      -7.703   6.799  67.618  1.00  0.00    -0.111 A  
HETATM   41  C   UNL     1      -8.674   6.513  66.683  1.00  0.00    -0.128 A  
HETATM   42  C   UNL     1      -9.880   6.631  67.388  1.00  0.00    -0.131 A  
HETATM   43  N   UNL     1      -9.669   6.841  68.678  1.00  0.00    -0.131 NA 
HETATM   44  C   UNL     1     -11.281   6.581  66.901  1.00  0.00    -0.205 C  
ENDBRANCH  38  39
ENDBRANCH  27  32
ENDBRANCH  26  27
ENDBRANCH  23  26
ENDBRANCH  14  17
ENDBRANCH  10  11
ENDBRANCH   6  10
ENDBRANCH   4   6
ENDBRANCH   3   4
ENDBRANCH   2   3
TORSDOF 10
ENDMDL
MODEL      209
REMARK 921   NORMALIZED FREE ENERGY PREDICTED BY IDOCK:   -3.27 KCAL/MOL
REMARK 922        TOTAL FREE ENERGY PREDICTED BY IDOCK:   -7.53 KCAL/MOL
REMARK 923 INTER-LIGAND FREE ENERGY PREDICTED BY IDOCK:   -7.80 KCAL/MOL
REMARK 924 INTRA-LIGAND FREE ENERGY PREDICTED BY IDOCK:    0.27 KCAL/MOL
REMARK 927      BINDING AFFINITY PREDICTED BY RF-SCORE:    0.00 PKD
ROOT
HETATM    1  C   UNL     1     -13.754  12.691  72.524  1.00  0.00    -0.230 C  
HETATM    2  C   UNL     1     -13.142  11.594  71.672  1.00  0.00    -0.351 C  
ENDROOT
BRANCH   2   3
HETATM    3  O   UNL     1     -13.077  10.406  72.470  1.00  0.00    -0.155 OA 
BRANCH   3   4
HETATM    4  C   UNL     1     -13.504   9.270  71.838  1.00  0.00    -0.430 C  
HETATM    5  O   UNL     1     -14.094   9.239  70.766  1.00  0.00     0.020 OA 
BRANCH   4   6
HETATM    6  C   UNL     1     -13.088   8.054  72.677  1.00  0.00     0.193 C  
HETATM    7  N   UNL     1     -13.770   6.849  72.150  1.00  0.00    -0.538 NA 
HETATM    8  H2  UNL     1     -13.600   6.710  71.154  1.00  0.00     0.000 HD 
HETATM    9  H1  UNL     1     -13.494   6.041  72.708  1.00  0.00     0.000 HD 
BRANCH   6  10
HETATM   10  C   UNL     1     -11.553   7.891  72.679  1.00  0.00    -0.435 C  
BRANCH  10  11
HETATM   11  C   UNL     1     -10.808   8.349  71.432  1.00  0.00    -0.304 A  
HETATM   12  C   UNL     1      -9.628   9.098  71.469  1.00  0.00    -0.278 A  
HETATM   13  C   UNL     1      -8.993   9.516  70.274  1.00  0.00    -0.288 A  
HETATM   14  C   UNL     1      -9.509   9.215  68.994  1.00  0.00    -0.152 A  
HETATM   15  C   UNL     1     -10.652   8.394  68.988  1.00  0.00    -0.172 A  
HETATM   16  C   UNL     1     -11.288   7.980  70.172  1.00  0.00    -0.081 A  
BRANCH  14  17
HETATM   17  C   UNL     1      -8.943   9.816  67.736  1.00  0.00    -0.128 A  
HETATM   18  N   UNL     1      -8.008   9.089  67.081  1.00  0.00    -0.102 NA 
HETATM   19  C   UNL     1      -7.357   9.670  66.064  1.00  0.00    -0.099 A  
HETATM   20  N   UNL     1      -7.493  10.942  65.671  1.00  0.00    -0.028 NA 
HETATM   21  N   UNL     1      -6.397   8.921  65.415  1.00  0.00    -0.063 NA 
HETATM   22  H1  UNL     1      -5.901   9.363  64.641  1.00  0.00     0.000 HD 
HETATM   23  C   UNL     1      -8.434  11.637  66.315  1.00  0.00    -0.066 A  
HETATM   24  H2  UNL     1      -6.191   7.963  65.697  1.00  0.00     0.000 HD 
HETATM   25  C   UNL     1      -9.222  11.109  67.320  1.00  0.00    -0.166 A  
BRANCH  23  26
HETATM   26  O   UNL     1      -8.561  12.998  66.100  1.00  0.00     0.278 OA 
BRANCH  26  27
HETATM   27  C   UNL     1      -9.899  13.535  65.961  1.00  0.00    -0.265 C  
HETATM   28  C   UNL     1     -10.911  12.667  65.171  1.00  0.00    -0.290 C  
HETATM   29  F   UNL     1     -10.355  11.624  64.515  1.00  0.00    -0.270 F  
HETATM   30  F   UNL     1     -11.520  13.442  64.226  1.00  0.00    -0.353 F  
HETATM   31  F   UNL     1     -11.917  12.176  65.935  1.00  0.00    -0.446 F  
BRANCH  27  32
HETATM   32  C   UNL     1     -10.457  13.994  67.345  1.00  0.00    -0.263 A  
HETATM   33  C   UNL     1     -11.769  13.567  67.664  1.00  0.00    -0.398 A  
HETATM   34  C   UNL     1     -12.437  14.030  68.801  1.00  0.00     0.150 A  
HETATM   35  C   UNL     1     -11.818  14.946  69.639  1.00  0.00    -0.318 A  
HETATM   36  C   UNL     1     -10.492  15.317  69.415  1.00  0.00    -0.253 A  
HETATM   37 CL   UNL     1     -12.685  15.621  70.964  1.00  0.00    -0.513 Cl 
HETATM   38  C   UNL     1      -9.784  14.802  68.309  1.00  0.00    -0.218 A  
BRANCH  38  39
HETATM   39  N   UNL     1      -8.391  15.089  68.218  1.00  0.00    -0.140 NA 
HETATM   40  C   UNL     1      -7.726  15.988  67.404  1.00  0.00    -0.167 A  
HETATM   41  C   UNL     1      -6.381  15.727  67.551  1.00  0.00    -0.192 A  
HETATM   42  C   UNL     1      -6.326  14.726  68.529  1.00  0.00    -0.086 A  
HETATM   43  N   UNL     1      -7.522  14.481  69.039  1.00  0.00    -0.130 NA 
HETATM   44  C   UNL     1      -5.172  13.930  69.019  1.00  0.00    -0.074 C  
ENDBRANCH  38  39
ENDBRANCH  27  32
ENDBRANCH  26  27
ENDBRANCH  23  26
ENDBRANCH  14  17
ENDBRANCH  10  11
ENDBRANCH   6  10
ENDBRANCH   4   6
ENDBRANCH   3   4
ENDBRANCH   2   3
TORSDOF 10
ENDMDL
MODEL      210
REMARK 921   NORMALIZED FREE ENERGY PREDICTED BY IDOCK:   -3.14 KCAL/MOL
REMARK 922        TOTAL FREE ENERGY PREDICTED BY IDOCK:   -7.32 KCAL/MOL
REMARK 923 INTER-LIGAND FREE ENERGY PREDICTED BY IDOCK:   -8.14 KCAL/MOL
REMARK 924 INTRA-LIGAND FREE ENERGY PREDICTED BY IDOCK:    0.83 KCAL/MOL
REMARK 927      BINDING AFFINITY PREDICTED BY RF-SCORE:    0.00 PKD
ROOT
HETATM    1  C   UNL     1      -9.839  20.397  66.182  1.00  0.00    -0.316 C  
HETATM    2  C   UNL     1     -10.298  19.678  67.438  1.00  0.00    -0.453 C  
ENDROOT
BRANCH   2   3
HETATM    3  O   UNL     1     -10.737  18.369  67.055  1.00  0.00    -0.380 OA 
BRANCH   3   4
HETATM    4  C   UNL     1      -9.940  17.348  67.499  1.00  0.00    -0.298 C  
HETATM    5  O   UNL     1      -9.312  17.350  68.549  1.00  0.00    -0.268 OA 
BRANCH   4   6
HETATM    6  C   UNL     1      -9.998  16.200  66.482  1.00  0.00    -0.280 C  
HETATM    7  N   UNL     1     -10.596  16.703  65.222  1.00  0.00    -0.633 NA 
HETATM    8  H2  UNL     1     -10.106  17.520  64.858  1.00  0.00     0.000 HD 
HETATM    9  H1  UNL     1     -10.634  15.940  64.546  1.00  0.00     0.000 HD 
BRANCH   6  10
HETATM   10  C   UNL     1      -8.594  15.601  66.252  1.00  0.00    -0.265 C  
BRANCH  10  11
HETATM   11  C   UNL     1      -8.258  14.321  67.008  1.00  0.00    -0.116 A  
HETATM   12  C   UNL     1      -8.434  13.041  66.474  1.00  0.00     0.213 A  
HETATM   13  C   UNL     1      -8.126  11.887  67.235  1.00  0.00    -0.171 A  
HETATM   14  C   UNL     1      -7.639  11.957  68.559  1.00  0.00    -0.127 A  
HETATM   15  C   UNL     1      -7.397  13.257  69.039  1.00  0.00     0.036 A  
HETATM   16  C   UNL     1      -7.705  14.407  68.289  1.00  0.00    -0.129 A  
BRANCH  14  17
HETATM   17  C   UNL     1      -7.492  10.738  69.429  1.00  0.00    -0.124 A  
HETATM   18  N   UNL     1      -6.383   9.985  69.240  1.00  0.00    -0.044 NA 
HETATM   19  C   UNL     1      -6.310   8.803  69.868  1.00  0.00    -0.037 A  
HETATM   20  N   UNL     1      -7.272   8.253  70.617  1.00  0.00    -0.047 NA 
HETATM   21  N   UNL     1      -5.178   8.042  69.656  1.00  0.00    -0.023 NA 
HETATM   22  H1  UNL     1      -5.123   7.142  70.132  1.00  0.00     0.000 HD 
HETATM   23  C   UNL     1      -8.350   9.018  70.808  1.00  0.00    -0.192 A  
HETATM   24  H2  UNL     1      -4.427   8.366  69.046  1.00  0.00     0.000 HD 
HETATM   25  C   UNL     1      -8.490  10.287  70.279  1.00  0.00     0.405 A  
BRANCH  23  26
HETATM   26  O   UNL     1      -9.467   8.498  71.437  1.00  0.00    -0.173 OA 
BRANCH  26  27
HETATM   27  C   UNL     1     -10.388   7.719  70.635  1.00  0.00    -0.202 C  
HETATM   28  C   UNL     1     -11.719   7.311  71.317  1.00  0.00    -0.296 C  
HETATM   29  F   UNL     1     -11.754   7.538  72.648  1.00  0.00    -0.315 F  
HETATM   30  F   UNL     1     -11.914   5.970  71.145  1.00  0.00    -0.318 F  
HETATM   31  F   UNL     1     -12.810   7.905  70.774  1.00  0.00    -0.152 F  
BRANCH  27  32
HETATM   32  C   UNL     1     -10.609   8.386  69.241  1.00  0.00    -0.193 A  
HETATM   33  C   UNL     1     -10.295   7.595  68.111  1.00  0.00    -0.250 A  
HETATM   34  C   UNL     1     -10.307   8.122  66.816  1.00  0.00    -0.361 A  
HETATM   35  C   UNL     1     -10.616   9.459  66.620  1.00  0.00    -0.100 A  
HETATM   36  C   UNL     1     -11.026  10.249  67.694  1.00  0.00    -0.356 A  
HETATM   37 CL   UNL     1     -10.501  10.146  65.046  1.00  0.00    -0.100 Cl 
HETATM   38  C   UNL     1     -11.086   9.709  68.996  1.00  0.00    -0.070 A  
BRANCH  38  39
HETATM   39  N   UNL     1     -11.660  10.511  70.025  1.00  0.00    -0.288 NA 
HETATM   40  C   UNL     1     -12.276  10.129  71.203  1.00  0.00    -0.389 A  
HETATM   41  C   UNL     1     -12.842  11.266  71.735  1.00  0.00    -0.466 A  
HETATM   42  C   UNL     1     -12.446  12.291  70.865  1.00  0.00    -0.276 A  
HETATM   43  N   UNL     1     -11.599  11.849  69.949  1.00  0.00    -0.286 NA 
HETATM   44  C   UNL     1     -12.851  13.719  70.822  1.00  0.00    -0.302 C  
ENDBRANCH  38  39
ENDBRANCH  27  32
ENDBRANCH  26  27
ENDBRANCH  23  26
ENDBRANCH  14  17
ENDBRANCH  10  11
ENDBRANCH   6  10
ENDBRANCH   4   6
ENDBRANCH   3   4
ENDBRANCH   2   3
TORSDOF 10
ENDMDL
MODEL      211
REMARK 921   NORMALIZED FREE ENERGY PREDICTED BY IDOCK:   -3.12 KCAL/MOL
REMARK 922        TOTAL FREE ENERGY PREDICTED BY IDOCK:   -7.29 KCAL/MOL
REMARK 923 INTER-LIGAND FREE ENERGY PREDICTED BY IDOCK:   -7.87 KCAL/MOL
REMARK 924 INTRA-LIGAND FREE ENERGY PREDICTED BY IDOCK:    0.58 KCAL/MOL
REMARK 927      BINDING AFFINITY PREDICTED BY RF-SCORE:    0.00 PKD
ROOT
HETATM    1  C   UNL     1     -13.236  14.586  72.531  1.00  0.00    -0.538 C  
HETATM    2  C   UNL     1     -12.545  15.509  71.544  1.00  0.00    -0.418 C  
ENDROOT
BRANCH   2   3
HETATM    3  O   UNL     1     -12.940  15.112  70.225  1.00  0.00    -0.287 OA 
BRANCH   3   4
HETATM    4  C   UNL     1     -12.019  15.377  69.249  1.00  0.00    -0.310 C  
HETATM    5  O   UNL     1     -11.905  16.443  68.659  1.00  0.00    -0.178 OA 
BRANCH   4   6
HETATM    6  C   UNL     1     -11.141  14.135  69.049  1.00  0.00    -0.263 C  
HETATM    7  N   UNL     1      -9.828  14.362  69.697  1.00  0.00    -0.328 NA 
HETATM    8  H2  UNL     1      -9.920  14.619  70.680  1.00  0.00     0.000 HD 
HETATM    9  H1  UNL     1      -9.246  13.536  69.564  1.00  0.00     0.000 HD 
BRANCH   6  10
HETATM   10  C   UNL     1     -11.844  12.874  69.600  1.00  0.00    -0.387 C  
BRANCH  10  11
HETATM   11  C   UNL     1     -11.343  11.528  69.092  1.00  0.00    -0.351 A  
HETATM   12  C   UNL     1     -11.074  10.440  69.928  1.00  0.00    -0.367 A  
HETATM   13  C   UNL     1     -10.586   9.219  69.399  1.00  0.00    -0.234 A  
HETATM   14  C   UNL     1     -10.338   9.033  68.021  1.00  0.00    -0.275 A  
HETATM   15  C   UNL     1     -10.694  10.117  67.198  1.00  0.00    -0.286 A  
HETATM   16  C   UNL     1     -11.174  11.333  67.718  1.00  0.00    -0.354 A  
BRANCH  14  17
HETATM   17  C   UNL     1      -9.646   7.809  67.486  1.00  0.00    -0.148 A  
HETATM   18  N   UNL     1      -9.084   7.914  66.259  1.00  0.00    -0.177 NA 
HETATM   19  C   UNL     1      -8.620   6.798  65.680  1.00  0.00    -0.117 A  
HETATM   20  N   UNL     1      -8.723   5.559  66.174  1.00  0.00    -0.128 NA 
HETATM   21  N   UNL     1      -8.062   6.919  64.424  1.00  0.00    -0.265 NA 
HETATM   22  H1  UNL     1      -7.709   6.070  63.984  1.00  0.00     0.000 HD 
HETATM   23  C   UNL     1      -9.261   5.477  67.394  1.00  0.00    -0.110 A  
HETATM   24  H2  UNL     1      -8.005   7.823  63.954  1.00  0.00     0.000 HD 
HETATM   25  C   UNL     1      -9.692   6.575  68.114  1.00  0.00    -0.126 A  
BRANCH  23  26
HETATM   26  O   UNL     1      -9.556   4.241  67.941  1.00  0.00    -0.162 OA 
BRANCH  26  27
HETATM   27  C   UNL     1      -9.586   4.135  69.386  1.00  0.00    -0.194 C  
HETATM   28  C   UNL     1      -9.481   2.705  69.973  1.00  0.00    -0.078 C  
HETATM   29  F   UNL     1      -9.604   1.717  69.058  1.00  0.00    -0.186 F  
HETATM   30  F   UNL     1     -10.483   2.521  70.882  1.00  0.00     0.231 F  
HETATM   31  F   UNL     1      -8.331   2.483  70.657  1.00  0.00    -0.054 F  
BRANCH  27  32
HETATM   32  C   UNL     1      -8.568   5.125  70.034  1.00  0.00    -0.109 A  
HETATM   33  C   UNL     1      -7.286   5.186  69.436  1.00  0.00    -0.057 A  
HETATM   34  C   UNL     1      -6.241   5.918  70.007  1.00  0.00    -0.027 A  
HETATM   35  C   UNL     1      -6.446   6.592  71.201  1.00  0.00    -0.049 A  
HETATM   36  C   UNL     1      -7.717   6.639  71.772  1.00  0.00    -0.097 A  
HETATM   37 CL   UNL     1      -5.129   7.383  71.978  1.00  0.00    -0.035 Cl 
HETATM   38  C   UNL     1      -8.796   5.961  71.167  1.00  0.00    -0.136 A  
BRANCH  38  39
HETATM   39  N   UNL     1     -10.100   6.172  71.703  1.00  0.00    -0.185 NA 
HETATM   40  C   UNL     1     -11.054   5.249  72.095  1.00  0.00    -0.119 A  
HETATM   41  C   UNL     1     -12.209   5.960  72.336  1.00  0.00    -0.056 A  
HETATM   42  C   UNL     1     -11.839   7.298  72.152  1.00  0.00    -0.286 A  
HETATM   43  N   UNL     1     -10.537   7.417  71.944  1.00  0.00    -0.201 NA 
HETATM   44  C   UNL     1     -12.672   8.527  72.132  1.00  0.00    -0.423 C  
ENDBRANCH  38  39
ENDBRANCH  27  32
ENDBRANCH  26  27
ENDBRANCH  23  26
ENDBRANCH  14  17
ENDBRANCH  10  11
ENDBRANCH   6  10
ENDBRANCH   4   6
ENDBRANCH   3   4
ENDBRANCH   2   3
TORSDOF 10
ENDMDL
MODEL      212
REMARK 921   NORMALIZED FREE ENERGY PREDICTED BY IDOCK:   -3.09 KCAL/MOL
REMARK 922        TOTAL FREE ENERGY PREDICTED BY IDOCK:   -7.23 KCAL/MOL
REMARK 923 INTER-LIGAND FREE ENERGY PREDICTED BY IDOCK:   -6.31 KCAL/MOL
REMARK 924 INTRA-LIGAND FREE ENERGY PREDICTED BY IDOCK:   -0.92 KCAL/MOL
REMARK 927      BINDING AFFINITY PREDICTED BY RF-SCORE:    0.00 PKD
ROOT
HETATM    1  C   UNL     1      -6.340  14.757  70.125  1.00  0.00    -0.169 C  
HETATM    2  C   UNL     1      -6.671  15.875  69.152  1.00  0.00    -0.164 C  
ENDROOT
BRANCH   2   3
HETATM    3  O   UNL     1      -8.075  16.139  69.252  1.00  0.00    -0.236 OA 
BRANCH   3   4
HETATM    4  C   UNL     1      -8.632  16.698  68.134  1.00  0.00    -0.200 C  
HETATM    5  O   UNL     1      -8.125  17.589  67.466  1.00  0.00    -0.201 OA 
BRANCH   4   6
HETATM    6  C   UNL     1      -9.967  15.999  67.846  1.00  0.00    -0.233 C  
HETATM    7  N   UNL     1     -10.997  17.025  67.563  1.00  0.00    -0.197 NA 
HETATM    8  H2  UNL     1     -10.720  17.658  66.812  1.00  0.00     0.000 HD 
HETATM    9  H1  UNL     1     -11.885  16.560  67.372  1.00  0.00     0.000 HD 
BRANCH   6  10
HETATM   10  C   UNL     1      -9.819  14.996  66.681  1.00  0.00    -0.266 C  
BRANCH  10  11
HETATM   11  C   UNL     1      -9.171  13.655  67.002  1.00  0.00    -0.254 A  
HETATM   12  C   UNL     1      -7.789  13.443  66.990  1.00  0.00     0.076 A  
HETATM   13  C   UNL     1      -7.246  12.166  67.274  1.00  0.00    -0.144 A  
HETATM   14  C   UNL     1      -8.054  11.046  67.572  1.00  0.00    -0.117 A  
HETATM   15  C   UNL     1      -9.434  11.309  67.655  1.00  0.00    -0.173 A  
HETATM   16  C   UNL     1      -9.978  12.574  67.370  1.00  0.00    -0.207 A  
BRANCH  14  17
HETATM   17  C   UNL     1      -7.491   9.655  67.687  1.00  0.00    -0.091 A  
HETATM   18  N   UNL     1      -7.014   9.096  66.550  1.00  0.00    -0.080 NA 
HETATM   19  C   UNL     1      -6.674   7.800  66.581  1.00  0.00    -0.066 A  
HETATM   20  N   UNL     1      -6.828   6.974  67.622  1.00  0.00    -0.071 NA 
HETATM   21  N   UNL     1      -6.201   7.240  65.412  1.00  0.00    -0.037 NA 
HETATM   22  H1  UNL     1      -5.942   6.254  65.435  1.00  0.00     0.000 HD 
HETATM   23  C   UNL     1      -7.281   7.548  68.740  1.00  0.00    -0.082 A  
HETATM   24  H2  UNL     1      -6.114   7.791  64.557  1.00  0.00     0.000 HD 
HETATM   25  C   UNL     1      -7.579   8.893  68.841  1.00  0.00    -0.087 A  
BRANCH  23  26
HETATM   26  O   UNL     1      -7.622   6.769  69.831  1.00  0.00    -0.095 OA 
BRANCH  26  27
HETATM   27  C   UNL     1      -7.794   5.347  69.614  1.00  0.00    -0.078 C  
HETATM   28  C   UNL     1      -8.114   4.493  70.867  1.00  0.00    -0.077 C  
HETATM   29  F   UNL     1      -7.968   5.149  72.040  1.00  0.00    -0.101 F  
HETATM   30  F   UNL     1      -7.263   3.426  70.909  1.00  0.00    -0.032 F  
HETATM   31  F   UNL     1      -9.360   3.959  70.854  1.00  0.00    -0.160 F  
BRANCH  27  32
HETATM   32  C   UNL     1      -8.787   5.083  68.440  1.00  0.00    -0.111 A  
HETATM   33  C   UNL     1      -8.441   4.037  67.550  1.00  0.00    -0.103 A  
HETATM   34  C   UNL     1      -9.165   3.797  66.379  1.00  0.00    -0.178 A  
HETATM   35  C   UNL     1     -10.242   4.608  66.056  1.00  0.00    -0.277 A  
HETATM   36  C   UNL     1     -10.676   5.587  66.951  1.00  0.00    -0.310 A  
HETATM   37 CL   UNL     1     -11.052   4.403  64.552  1.00  0.00    -0.033 Cl 
HETATM   38  C   UNL     1      -9.995   5.791  68.169  1.00  0.00    -0.148 A  
BRANCH  38  39
HETATM   39  N   UNL     1     -10.573   6.691  69.112  1.00  0.00    -0.224 NA 
HETATM   40  C   UNL     1     -10.522   8.073  69.160  1.00  0.00    -0.208 A  
HETATM   41  C   UNL     1     -11.054   8.442  70.376  1.00  0.00    -0.240 A  
HETATM   42  C   UNL     1     -11.476   7.235  70.951  1.00  0.00    -0.292 A  
HETATM   43  N   UNL     1     -11.338   6.223  70.109  1.00  0.00    -0.401 NA 
HETATM   44  C   UNL     1     -12.001   6.956  72.311  1.00  0.00    -0.244 C  
ENDBRANCH  38  39
ENDBRANCH  27  32
ENDBRANCH  26  27
ENDBRANCH  23  26
ENDBRANCH  14  17
ENDBRANCH  10  11
ENDBRANCH   6  10
ENDBRANCH   4   6
ENDBRANCH   3   4
ENDBRANCH   2   3
TORSDOF 10
ENDMDL
MODEL      213
REMARK 921   NORMALIZED FREE ENERGY PREDICTED BY IDOCK:   -3.01 KCAL/MOL
REMARK 922        TOTAL FREE ENERGY PREDICTED BY IDOCK:   -7.11 KCAL/MOL
REMARK 923 INTER-LIGAND FREE ENERGY PREDICTED BY IDOCK:   -7.42 KCAL/MOL
REMARK 924 INTRA-LIGAND FREE ENERGY PREDICTED BY IDOCK:    0.31 KCAL/MOL
REMARK 927      BINDING AFFINITY PREDICTED BY RF-SCORE:    0.00 PKD
ROOT
HETATM    1  C   UNL     1      -9.128  15.245  66.512  1.00  0.00    -0.334 C  
HETATM    2  C   UNL     1     -10.567  14.771  66.604  1.00  0.00    -0.299 C  
ENDROOT
BRANCH   2   3
HETATM    3  O   UNL     1     -10.950  14.283  65.313  1.00  0.00    -0.310 OA 
BRANCH   3   4
HETATM    4  C   UNL     1     -11.924  13.322  65.331  1.00  0.00    -0.395 C  
HETATM    5  O   UNL     1     -12.614  13.037  66.301  1.00  0.00    -0.383 OA 
BRANCH   4   6
HETATM    6  C   UNL     1     -12.026  12.697  63.934  1.00  0.00    -0.479 C  
HETATM    7  N   UNL     1     -12.529  13.718  62.984  1.00  0.00    -1.000 NA 
HETATM    8  H2  UNL     1     -11.962  14.567  62.990  1.00  0.00     0.000 HD 
HETATM    9  H1  UNL     1     -12.596  13.303  62.055  1.00  0.00     0.000 HD 
BRANCH   6  10
HETATM   10  C   UNL     1     -10.663  12.122  63.491  1.00  0.00    -0.509 C  
BRANCH  10  11
HETATM   11  C   UNL     1     -10.077  11.004  64.343  1.00  0.00    -0.393 A  
HETATM   12  C   UNL     1      -9.180  10.049  63.853  1.00  0.00    -0.317 A  
HETATM   13  C   UNL     1      -8.688   9.017  64.689  1.00  0.00    -0.169 A  
HETATM   14  C   UNL     1      -9.071   8.887  66.042  1.00  0.00    -0.265 A  
HETATM   15  C   UNL     1      -9.910   9.907  66.527  1.00  0.00    -0.274 A  
HETATM   16  C   UNL     1     -10.405  10.931  65.700  1.00  0.00    -0.305 A  
BRANCH  14  17
HETATM   17  C   UNL     1      -8.698   7.688  66.872  1.00  0.00    -0.129 A  
HETATM   18  N   UNL     1      -9.442   6.571  66.698  1.00  0.00    -0.157 NA 
HETATM   19  C   UNL     1      -9.253   5.550  67.546  1.00  0.00    -0.110 A  
HETATM   20  N   UNL     1      -8.438   5.554  68.608  1.00  0.00    -0.104 NA 
HETATM   21  N   UNL     1     -10.027   4.423  67.364  1.00  0.00    -0.140 NA 
HETATM   22  H1  UNL     1      -9.884   3.646  68.009  1.00  0.00     0.000 HD 
HETATM   23  C   UNL     1      -7.699   6.656  68.751  1.00  0.00    -0.109 A  
HETATM   24  H2  UNL     1     -10.717   4.368  66.614  1.00  0.00     0.000 HD 
HETATM   25  C   UNL     1      -7.752   7.731  67.885  1.00  0.00    -0.122 A  
BRANCH  23  26
HETATM   26  O   UNL     1      -6.935   6.836  69.891  1.00  0.00    -0.056 OA 
BRANCH  26  27
HETATM   27  C   UNL     1      -7.596   7.365  71.067  1.00  0.00    -0.086 C  
HETATM   28  C   UNL     1      -7.889   8.886  71.065  1.00  0.00    -0.137 C  
HETATM   29  F   UNL     1      -7.288   9.568  70.065  1.00  0.00    -0.064 F  
HETATM   30  F   UNL     1      -7.437   9.429  72.234  1.00  0.00     0.223 F  
HETATM   31  F   UNL     1      -9.211   9.183  71.020  1.00  0.00    -0.243 F  
BRANCH  27  32
HETATM   32  C   UNL     1      -8.853   6.512  71.425  1.00  0.00    -0.137 A  
HETATM   33  C   UNL     1     -10.110   7.118  71.185  1.00  0.00    -0.193 A  
HETATM   34  C   UNL     1     -11.305   6.523  71.599  1.00  0.00    -0.332 A  
HETATM   35  C   UNL     1     -11.273   5.315  72.279  1.00  0.00    -0.114 A  
HETATM   36  C   UNL     1     -10.067   4.637  72.450  1.00  0.00    -0.239 A  
HETATM   37 CL   UNL     1     -12.729   4.645  72.908  1.00  0.00     0.606 Cl 
HETATM   38  C   UNL     1      -8.861   5.196  71.974  1.00  0.00    -0.130 A  
BRANCH  38  39
HETATM   39  N   UNL     1      -7.686   4.391  72.034  1.00  0.00    -0.079 NA 
HETATM   40  C   UNL     1      -6.676   4.371  72.980  1.00  0.00    -0.056 A  
HETATM   41  C   UNL     1      -5.675   3.576  72.467  1.00  0.00    -0.008 A  
HETATM   42  C   UNL     1      -6.199   3.094  71.260  1.00  0.00    -0.018 A  
HETATM   43  N   UNL     1      -7.464   3.452  71.103  1.00  0.00    -0.040 NA 
HETATM   44  C   UNL     1      -5.550   2.304  70.184  1.00  0.00    -0.017 C  
ENDBRANCH  38  39
ENDBRANCH  27  32
ENDBRANCH  26  27
ENDBRANCH  23  26
ENDBRANCH  14  17
ENDBRANCH  10  11
ENDBRANCH   6  10
ENDBRANCH   4   6
ENDBRANCH   3   4
ENDBRANCH   2   3
TORSDOF 10
ENDMDL
MODEL      214
REMARK 921   NORMALIZED FREE ENERGY PREDICTED BY IDOCK:   -3.01 KCAL/MOL
REMARK 922        TOTAL FREE ENERGY PREDICTED BY IDOCK:   -7.11 KCAL/MOL
REMARK 923 INTER-LIGAND FREE ENERGY PREDICTED BY IDOCK:   -8.94 KCAL/MOL
REMARK 924 INTRA-LIGAND FREE ENERGY PREDICTED BY IDOCK:    1.83 KCAL/MOL
REMARK 927      BINDING AFFINITY PREDICTED BY RF-SCORE:    0.00 PKD
ROOT
HETATM    1  C   UNL     1     -10.323  19.716  68.676  1.00  0.00    -0.404 C  
HETATM    2  C   UNL     1      -9.021  19.127  69.188  1.00  0.00    -0.114 C  
ENDROOT
BRANCH   2   3
HETATM    3  O   UNL     1      -8.086  19.127  68.103  1.00  0.00    -0.293 OA 
BRANCH   3   4
HETATM    4  C   UNL     1      -7.516  20.343  67.842  1.00  0.00    -0.227 C  
HETATM    5  O   UNL     1      -7.980  21.192  67.092  1.00  0.00    -0.219 OA 
BRANCH   4   6
HETATM    6  C   UNL     1      -6.229  20.472  68.667  1.00  0.00    -0.316 C  
HETATM    7  N   UNL     1      -6.534  20.172  70.086  1.00  0.00    -0.331 NA 
HETATM    8  H2  UNL     1      -6.981  19.262  70.203  1.00  0.00     0.000 HD 
HETATM    9  H1  UNL     1      -5.678  20.257  70.634  1.00  0.00     0.000 HD 
BRANCH   6  10
HETATM   10  C   UNL     1      -5.126  19.547  68.108  1.00  0.00    -0.177 C  
BRANCH  10  11
HETATM   11  C   UNL     1      -5.470  18.069  67.967  1.00  0.00    -0.152 A  
HETATM   12  C   UNL     1      -5.638  17.430  66.735  1.00  0.00    -0.215 A  
HETATM   13  C   UNL     1      -5.983  16.058  66.668  1.00  0.00     0.750 A  
HETATM   14  C   UNL     1      -6.183  15.267  67.821  1.00  0.00    -0.178 A  
HETATM   15  C   UNL     1      -5.929  15.917  69.042  1.00  0.00    -0.116 A  
HETATM   16  C   UNL     1      -5.591  17.280  69.115  1.00  0.00    -0.174 A  
BRANCH  14  17
HETATM   17  C   UNL     1      -6.731  13.867  67.752  1.00  0.00    -0.176 A  
HETATM   18  N   UNL     1      -5.840  12.857  67.888  1.00  0.00    -0.109 NA 
HETATM   19  C   UNL     1      -6.263  11.608  67.653  1.00  0.00    -0.068 A  
HETATM   20  N   UNL     1      -7.481  11.262  67.221  1.00  0.00    -0.119 NA 
HETATM   21  N   UNL     1      -5.340  10.590  67.783  1.00  0.00    -0.040 NA 
HETATM   22  H1  UNL     1      -5.662   9.639  67.604  1.00  0.00     0.000 HD 
HETATM   23  C   UNL     1      -8.352  12.269  67.112  1.00  0.00    -0.183 A  
HETATM   24  H2  UNL     1      -4.374  10.781  68.048  1.00  0.00     0.000 HD 
HETATM   25  C   UNL     1      -8.044  13.581  67.413  1.00  0.00    -0.184 A  
BRANCH  23  26
HETATM   26  O   UNL     1      -9.590  12.055  66.534  1.00  0.00    -0.212 OA 
BRANCH  26  27
HETATM   27  C   UNL     1     -10.407  13.217  66.245  1.00  0.00    -0.287 C  
HETATM   28  C   UNL     1     -11.471  13.051  65.131  1.00  0.00    -0.306 C  
HETATM   29  F   UNL     1     -11.350  11.913  64.411  1.00  0.00    -0.352 F  
HETATM   30  F   UNL     1     -11.356  14.085  64.247  1.00  0.00    -0.375 F  
HETATM   31  F   UNL     1     -12.746  13.108  65.587  1.00  0.00    -0.501 F  
BRANCH  27  32
HETATM   32  C   UNL     1     -11.003  13.813  67.559  1.00  0.00    -0.285 A  
HETATM   33  C   UNL     1     -11.254  15.207  67.557  1.00  0.00    -0.331 A  
HETATM   34  C   UNL     1     -11.645  15.886  68.714  1.00  0.00    -0.389 A  
HETATM   35  C   UNL     1     -11.779  15.193  69.907  1.00  0.00    -0.315 A  
HETATM   36  C   UNL     1     -11.638  13.806  69.933  1.00  0.00    -0.298 A  
HETATM   37 CL   UNL     1     -12.129  16.045  71.361  1.00  0.00    -0.488 Cl 
HETATM   38  C   UNL     1     -11.311  13.100  68.756  1.00  0.00    -0.291 A  
BRANCH  38  39
HETATM   39  N   UNL     1     -11.334  11.676  68.805  1.00  0.00    -0.237 NA 
HETATM   40  C   UNL     1     -11.447  10.831  69.894  1.00  0.00    -0.321 A  
HETATM   41  C   UNL     1     -11.203   9.558  69.429  1.00  0.00    -0.066 A  
HETATM   42  C   UNL     1     -11.040   9.718  68.047  1.00  0.00    -0.106 A  
HETATM   43  N   UNL     1     -11.293  10.962  67.670  1.00  0.00    -0.452 NA 
HETATM   44  C   UNL     1     -10.618   8.739  67.013  1.00  0.00    -0.283 C  
ENDBRANCH  38  39
ENDBRANCH  27  32
ENDBRANCH  26  27
ENDBRANCH  23  26
ENDBRANCH  14  17
ENDBRANCH  10  11
ENDBRANCH   6  10
ENDBRANCH   4   6
ENDBRANCH   3   4
ENDBRANCH   2   3
TORSDOF 10
ENDMDL
MODEL      215
REMARK 921   NORMALIZED FREE ENERGY PREDICTED BY IDOCK:   -2.91 KCAL/MOL
REMARK 922        TOTAL FREE ENERGY PREDICTED BY IDOCK:   -6.95 KCAL/MOL
REMARK 923 INTER-LIGAND FREE ENERGY PREDICTED BY IDOCK:   -6.76 KCAL/MOL
REMARK 924 INTRA-LIGAND FREE ENERGY PREDICTED BY IDOCK:   -0.20 KCAL/MOL
REMARK 927      BINDING AFFINITY PREDICTED BY RF-SCORE:    0.00 PKD
ROOT
HETATM    1  C   UNL     1     -10.638  19.953  66.562  1.00  0.00    -0.531 C  
HETATM    2  C   UNL     1     -10.346  18.464  66.515  1.00  0.00    -0.400 C  
ENDROOT
BRANCH   2   3
HETATM    3  O   UNL     1     -10.860  17.880  67.718  1.00  0.00    -0.374 OA 
BRANCH   3   4
HETATM    4  C   UNL     1     -10.501  16.574  67.916  1.00  0.00    -0.313 C  
HETATM    5  O   UNL     1     -11.261  15.680  68.263  1.00  0.00    -0.320 OA 
BRANCH   4   6
HETATM    6  C   UNL     1      -9.008  16.419  67.598  1.00  0.00    -0.196 C  
HETATM    7  N   UNL     1      -8.261  16.237  68.865  1.00  0.00    -0.221 NA 
HETATM    8  H2  UNL     1      -8.622  15.462  69.421  1.00  0.00     0.000 HD 
HETATM    9  H1  UNL     1      -7.269  16.135  68.653  1.00  0.00     0.000 HD 
BRANCH   6  10
HETATM   10  C   UNL     1      -8.776  15.247  66.620  1.00  0.00    -0.327 C  
BRANCH  10  11
HETATM   11  C   UNL     1      -8.558  13.869  67.234  1.00  0.00    -0.221 A  
HETATM   12  C   UNL     1      -9.584  12.939  67.425  1.00  0.00    -0.203 A  
HETATM   13  C   UNL     1      -9.324  11.682  68.025  1.00  0.00    -0.178 A  
HETATM   14  C   UNL     1      -8.038  11.302  68.466  1.00  0.00    -0.148 A  
HETATM   15  C   UNL     1      -7.013  12.225  68.187  1.00  0.00    -0.087 A  
HETATM   16  C   UNL     1      -7.267  13.476  67.596  1.00  0.00    -0.175 A  
BRANCH  14  17
HETATM   17  C   UNL     1      -7.799  10.052  69.269  1.00  0.00    -0.125 A  
HETATM   18  N   UNL     1      -6.827   9.220  68.826  1.00  0.00    -0.060 NA 
HETATM   19  C   UNL     1      -6.711   8.019  69.410  1.00  0.00    -0.039 A  
HETATM   20  N   UNL     1      -7.520   7.526  70.355  1.00  0.00    -0.079 NA 
HETATM   21  N   UNL     1      -5.725   7.177  68.939  1.00  0.00    -0.018 NA 
HETATM   22  H1  UNL     1      -5.637   6.263  69.383  1.00  0.00     0.000 HD 
HETATM   23  C   UNL     1      -8.460   8.368  70.793  1.00  0.00    -0.139 A  
HETATM   24  H2  UNL     1      -5.107   7.457  68.176  1.00  0.00     0.000 HD 
HETATM   25  C   UNL     1      -8.611   9.658  70.321  1.00  0.00    -0.234 A  
BRANCH  23  26
HETATM   26  O   UNL     1      -9.444   7.921  71.656  1.00  0.00    -0.144 OA 
BRANCH  26  27
HETATM   27  C   UNL     1      -9.898   6.553  71.507  1.00  0.00    -0.168 C  
HETATM   28  C   UNL     1     -11.072   6.115  72.419  1.00  0.00    -0.275 C  
HETATM   29  F   UNL     1     -11.373   6.995  73.399  1.00  0.00    -0.243 F  
HETATM   30  F   UNL     1     -10.742   4.942  73.036  1.00  0.00    -0.218 F  
HETATM   31  F   UNL     1     -12.216   5.855  71.741  1.00  0.00    -0.284 F  
BRANCH  27  32
HETATM   32  C   UNL     1     -10.149   6.215  70.004  1.00  0.00    -0.228 A  
HETATM   33  C   UNL     1      -9.693   4.950  69.562  1.00  0.00    -0.266 A  
HETATM   34  C   UNL     1      -9.722   4.586  68.213  1.00  0.00    -0.186 A  
HETATM   35  C   UNL     1     -10.191   5.485  67.268  1.00  0.00    -0.212 A  
HETATM   36  C   UNL     1     -10.740   6.703  67.669  1.00  0.00    -0.373 A  
HETATM   37 CL   UNL     1     -10.104   5.096  65.594  1.00  0.00    -0.076 Cl 
HETATM   38  C   UNL     1     -10.780   7.051  69.036  1.00  0.00    -0.210 A  
BRANCH  38  39
HETATM   39  N   UNL     1     -11.491   8.231  69.401  1.00  0.00     0.397 NA 
HETATM   40  C   UNL     1     -11.471   9.490  68.826  1.00  0.00     0.360 A  
HETATM   41  C   UNL     1     -12.163  10.321  69.679  1.00  0.00    -0.024 A  
HETATM   42  C   UNL     1     -12.635   9.469  70.687  1.00  0.00     0.001 A  
HETATM   43  N   UNL     1     -12.371   8.201  70.413  1.00  0.00     0.328 NA 
HETATM   44  C   UNL     1     -13.327   9.787  71.961  1.00  0.00    -0.547 C  
ENDBRANCH  38  39
ENDBRANCH  27  32
ENDBRANCH  26  27
ENDBRANCH  23  26
ENDBRANCH  14  17
ENDBRANCH  10  11
ENDBRANCH   6  10
ENDBRANCH   4   6
ENDBRANCH   3   4
ENDBRANCH   2   3
TORSDOF 10
ENDMDL
MODEL      216
REMARK 921   NORMALIZED FREE ENERGY PREDICTED BY IDOCK:   -2.90 KCAL/MOL
REMARK 922        TOTAL FREE ENERGY PREDICTED BY IDOCK:   -6.93 KCAL/MOL
REMARK 923 INTER-LIGAND FREE ENERGY PREDICTED BY IDOCK:   -7.81 KCAL/MOL
REMARK 924 INTRA-LIGAND FREE ENERGY PREDICTED BY IDOCK:    0.88 KCAL/MOL
REMARK 927      BINDING AFFINITY PREDICTED BY RF-SCORE:    0.00 PKD
ROOT
HETATM    1  C   UNL     1      -7.658   5.346  71.890  1.00  0.00    -0.098 C  
HETATM    2  C   UNL     1      -6.656   4.698  72.829  1.00  0.00    -0.050 C  
ENDROOT
BRANCH   2   3
HETATM    3  O   UNL     1      -6.170   5.713  73.716  1.00  0.00    -0.059 OA 
BRANCH   3   4
HETATM    4  C   UNL     1      -5.867   6.902  73.110  1.00  0.00    -0.049 C  
HETATM    5  O   UNL     1      -5.212   7.024  72.084  1.00  0.00    -0.035 OA 
BRANCH   4   6
HETATM    6  C   UNL     1      -6.511   8.041  73.912  1.00  0.00    -0.110 C  
HETATM    7  N   UNL     1      -5.753   9.291  73.669  1.00  0.00    -0.282 NA 
HETATM    8  H2  UNL     1      -5.675   9.511  72.675  1.00  0.00     0.000 HD 
HETATM    9  H1  UNL     1      -6.182  10.048  74.202  1.00  0.00     0.000 HD 
BRANCH   6  10
HETATM   10  C   UNL     1      -8.003   8.193  73.544  1.00  0.00    -0.247 C  
BRANCH  10  11
HETATM   11  C   UNL     1      -8.321   8.837  72.201  1.00  0.00    -0.056 A  
HETATM   12  C   UNL     1      -9.616   9.160  71.786  1.00  0.00    -0.135 A  
HETATM   13  C   UNL     1      -9.851   9.736  70.513  1.00  0.00    -0.228 A  
HETATM   14  C   UNL     1      -8.810  10.006  69.598  1.00  0.00    -0.217 A  
HETATM   15  C   UNL     1      -7.512   9.746  70.075  1.00  0.00    -0.158 A  
HETATM   16  C   UNL     1      -7.274   9.170  71.336  1.00  0.00    -0.019 A  
BRANCH  14  17
HETATM   17  C   UNL     1      -9.076  10.440  68.182  1.00  0.00    -0.142 A  
HETATM   18  N   UNL     1      -8.262   9.933  67.227  1.00  0.00    -0.120 NA 
HETATM   19  C   UNL     1      -8.356  10.435  65.987  1.00  0.00    -0.149 A  
HETATM   20  N   UNL     1      -9.139  11.453  65.612  1.00  0.00    -0.194 NA 
HETATM   21  N   UNL     1      -7.511   9.917  65.027  1.00  0.00    -0.128 NA 
HETATM   22  H1  UNL     1      -7.582  10.299  64.085  1.00  0.00     0.000 HD 
HETATM   23  C   UNL     1      -9.949  11.926  66.563  1.00  0.00    -0.202 A  
HETATM   24  H2  UNL     1      -6.840   9.181  65.252  1.00  0.00     0.000 HD 
HETATM   25  C   UNL     1      -9.994  11.424  67.849  1.00  0.00    -0.190 A  
BRANCH  23  26
HETATM   26  O   UNL     1     -10.691  13.072  66.334  1.00  0.00    -0.278 OA 
BRANCH  26  27
HETATM   27  C   UNL     1     -10.245  14.298  66.964  1.00  0.00    -0.260 C  
HETATM   28  C   UNL     1     -10.519  15.610  66.186  1.00  0.00    -0.317 C  
HETATM   29  F   UNL     1     -10.935  15.426  64.913  1.00  0.00    -0.362 F  
HETATM   30  F   UNL     1      -9.365  16.337  66.118  1.00  0.00    -0.274 F  
HETATM   31  F   UNL     1     -11.419  16.422  66.793  1.00  0.00     0.070 F  
BRANCH  27  32
HETATM   32  C   UNL     1     -10.732  14.367  68.445  1.00  0.00    -0.250 A  
HETATM   33  C   UNL     1     -11.669  13.384  68.844  1.00  0.00    -0.369 A  
HETATM   34  C   UNL     1     -12.292  13.425  70.094  1.00  0.00    -0.322 A  
HETATM   35  C   UNL     1     -12.010  14.460  70.971  1.00  0.00    -0.323 A  
HETATM   36  C   UNL     1     -11.022  15.394  70.659  1.00  0.00    -0.350 A  
HETATM   37 CL   UNL     1     -12.873  14.590  72.454  1.00  0.00    -0.413 Cl 
HETATM   38  C   UNL     1     -10.336  15.322  69.429  1.00  0.00    -0.254 A  
BRANCH  38  39
HETATM   39  N   UNL     1      -9.232  16.203  69.229  1.00  0.00    -0.249 NA 
HETATM   40  C   UNL     1      -9.221  17.535  68.858  1.00  0.00    -0.153 A  
HETATM   41  C   UNL     1      -7.907  17.858  68.598  1.00  0.00    -0.294 A  
HETATM   42  C   UNL     1      -7.194  16.695  68.920  1.00  0.00    -0.219 A  
HETATM   43  N   UNL     1      -7.981  15.777  69.459  1.00  0.00    -0.207 NA 
HETATM   44  C   UNL     1      -5.759  16.368  68.722  1.00  0.00    -0.121 C  
ENDBRANCH  38  39
ENDBRANCH  27  32
ENDBRANCH  26  27
ENDBRANCH  23  26
ENDBRANCH  14  17
ENDBRANCH  10  11
ENDBRANCH   6  10
ENDBRANCH   4   6
ENDBRANCH   3   4
ENDBRANCH   2   3
TORSDOF 10
ENDMDL
MODEL      217
REMARK 921   NORMALIZED FREE ENERGY PREDICTED BY IDOCK:   -2.85 KCAL/MOL
REMARK 922        TOTAL FREE ENERGY PREDICTED BY IDOCK:   -6.86 KCAL/MOL
REMARK 923 INTER-LIGAND FREE ENERGY PREDICTED BY IDOCK:   -7.85 KCAL/MOL
REMARK 924 INTRA-LIGAND FREE ENERGY PREDICTED BY IDOCK:    1.00 KCAL/MOL
REMARK 927      BINDING AFFINITY PREDICTED BY RF-SCORE:    0.00 PKD
ROOT
HETATM    1  C   UNL     1     -10.189  17.374  66.110  1.00  0.00    -0.334 C  
HETATM    2  C   UNL     1     -10.566  16.673  64.817  1.00  0.00     0.214 C  
ENDROOT
BRANCH   2   3
HETATM    3  O   UNL     1     -11.078  15.379  65.156  1.00  0.00    -0.375 OA 
BRANCH   3   4
HETATM    4  C   UNL     1     -12.016  14.890  64.287  1.00  0.00    -0.338 C  
HETATM    5  O   UNL     1     -12.902  15.551  63.763  1.00  0.00    -0.526 OA 
BRANCH   4   6
HETATM    6  C   UNL     1     -11.745  13.397  64.058  1.00  0.00    -0.416 C  
HETATM    7  N   UNL     1     -10.285  13.187  63.920  1.00  0.00    -0.744 NA 
HETATM    8  H2  UNL     1      -9.762  13.560  64.713  1.00  0.00     0.000 HD 
HETATM    9  H1  UNL     1     -10.105  12.195  63.768  1.00  0.00     0.000 HD 
BRANCH   6  10
HETATM   10  C   UNL     1     -12.342  12.552  65.204  1.00  0.00    -0.496 C  
BRANCH  10  11
HETATM   11  C   UNL     1     -11.355  11.855  66.133  1.00  0.00    -0.383 A  
HETATM   12  C   UNL     1     -10.851  10.571  65.902  1.00  0.00     0.025 A  
HETATM   13  C   UNL     1      -9.955   9.966  66.816  1.00  0.00    -0.272 A  
HETATM   14  C   UNL     1      -9.529  10.607  68.000  1.00  0.00    -0.164 A  
HETATM   15  C   UNL     1      -9.989  11.926  68.165  1.00  0.00    -0.197 A  
HETATM   16  C   UNL     1     -10.883  12.530  67.263  1.00  0.00    -0.277 A  
BRANCH  14  17
HETATM   17  C   UNL     1      -8.730   9.894  69.059  1.00  0.00    -0.151 A  
HETATM   18  N   UNL     1      -7.787  10.621  69.703  1.00  0.00    -0.096 NA 
HETATM   19  C   UNL     1      -6.942   9.975  70.518  1.00  0.00    -0.089 A  
HETATM   20  N   UNL     1      -6.893   8.651  70.706  1.00  0.00    -0.044 NA 
HETATM   21  N   UNL     1      -5.978  10.728  71.158  1.00  0.00    -0.352 NA 
HETATM   22  H1  UNL     1      -5.335  10.236  71.778  1.00  0.00     0.000 HD 
HETATM   23  C   UNL     1      -7.843   7.954  70.079  1.00  0.00    -0.105 A  
HETATM   24  H2  UNL     1      -5.912  11.736  71.016  1.00  0.00     0.000 HD 
HETATM   25  C   UNL     1      -8.816   8.529  69.284  1.00  0.00    -0.142 A  
BRANCH  23  26
HETATM   26  O   UNL     1      -7.802   6.571  70.077  1.00  0.00    -0.106 OA 
BRANCH  26  27
HETATM   27  C   UNL     1      -9.064   5.860  70.062  1.00  0.00    -0.144 C  
HETATM   28  C   UNL     1     -10.256   6.558  70.764  1.00  0.00    -0.187 C  
HETATM   29  F   UNL     1      -9.912   7.638  71.501  1.00  0.00    -0.177 F  
HETATM   30  F   UNL     1     -10.848   5.674  71.621  1.00  0.00    -0.284 F  
HETATM   31  F   UNL     1     -11.236   6.944  69.912  1.00  0.00    -0.277 F  
BRANCH  27  32
HETATM   32  C   UNL     1      -9.414   5.387  68.616  1.00  0.00    -0.159 A  
HETATM   33  C   UNL     1      -9.950   6.369  67.748  1.00  0.00    -0.147 A  
HETATM   34  C   UNL     1     -10.441   6.043  66.481  1.00  0.00    -0.227 A  
HETATM   35  C   UNL     1     -10.427   4.723  66.056  1.00  0.00    -0.292 A  
HETATM   36  C   UNL     1      -9.820   3.741  66.838  1.00  0.00    -0.045 A  
HETATM   37 CL   UNL     1     -11.152   4.297  64.554  1.00  0.00    -0.099 Cl 
HETATM   38  C   UNL     1      -9.258   4.071  68.089  1.00  0.00    -0.153 A  
BRANCH  38  39
HETATM   39  N   UNL     1      -8.515   3.064  68.771  1.00  0.00    -0.065 NA 
HETATM   40  C   UNL     1      -8.962   2.016  69.558  1.00  0.00    -0.092 A  
HETATM   41  C   UNL     1      -7.845   1.470  70.151  1.00  0.00    -0.046 A  
HETATM   42  C   UNL     1      -6.774   2.187  69.603  1.00  0.00    -0.033 A  
HETATM   43  N   UNL     1      -7.180   3.015  68.654  1.00  0.00    -0.049 NA 
HETATM   44  C   UNL     1      -5.330   2.161  69.947  1.00  0.00    -0.012 C  
ENDBRANCH  38  39
ENDBRANCH  27  32
ENDBRANCH  26  27
ENDBRANCH  23  26
ENDBRANCH  14  17
ENDBRANCH  10  11
ENDBRANCH   6  10
ENDBRANCH   4   6
ENDBRANCH   3   4
ENDBRANCH   2   3
TORSDOF 10
ENDMDL
MODEL      218
REMARK 921   NORMALIZED FREE ENERGY PREDICTED BY IDOCK:   -2.85 KCAL/MOL
REMARK 922        TOTAL FREE ENERGY PREDICTED BY IDOCK:   -6.85 KCAL/MOL
REMARK 923 INTER-LIGAND FREE ENERGY PREDICTED BY IDOCK:   -7.14 KCAL/MOL
REMARK 924 INTRA-LIGAND FREE ENERGY PREDICTED BY IDOCK:    0.29 KCAL/MOL
REMARK 927      BINDING AFFINITY PREDICTED BY RF-SCORE:    0.00 PKD
ROOT
HETATM    1  C   UNL     1     -11.301  16.287  69.536  1.00  0.00    -0.276 C  
HETATM    2  C   UNL     1     -10.958  16.801  68.149  1.00  0.00    -0.309 C  
ENDROOT
BRANCH   2   3
HETATM    3  O   UNL     1     -10.465  18.139  68.289  1.00  0.00    -0.362 OA 
BRANCH   3   4
HETATM    4  C   UNL     1      -9.102  18.253  68.240  1.00  0.00    -0.305 C  
HETATM    5  O   UNL     1      -8.451  19.144  68.768  1.00  0.00    -0.362 OA 
BRANCH   4   6
HETATM    6  C   UNL     1      -8.537  17.067  67.448  1.00  0.00    -0.197 C  
HETATM    7  N   UNL     1      -7.776  17.582  66.286  1.00  0.00    -0.344 NA 
HETATM    8  H2  UNL     1      -7.052  18.247  66.559  1.00  0.00     0.000 HD 
HETATM    9  H1  UNL     1      -7.400  16.793  65.760  1.00  0.00     0.000 HD 
BRANCH   6  10
HETATM   10  C   UNL     1      -7.665  16.170  68.354  1.00  0.00    -0.154 C  
BRANCH  10  11
HETATM   11  C   UNL     1      -7.594  14.690  67.998  1.00  0.00    -0.132 A  
HETATM   12  C   UNL     1      -6.431  14.059  67.548  1.00  0.00    -0.068 A  
HETATM   13  C   UNL     1      -6.434  12.684  67.209  1.00  0.00    -0.102 A  
HETATM   14  C   UNL     1      -7.594  11.882  67.294  1.00  0.00    -0.154 A  
HETATM   15  C   UNL     1      -8.727  12.525  67.826  1.00  0.00    -0.178 A  
HETATM   16  C   UNL     1      -8.730  13.891  68.160  1.00  0.00    -0.182 A  
BRANCH  14  17
HETATM   17  C   UNL     1      -7.643  10.477  66.758  1.00  0.00    -0.115 A  
HETATM   18  N   UNL     1      -8.040  10.330  65.472  1.00  0.00    -0.151 NA 
HETATM   19  C   UNL     1      -8.266   9.088  65.021  1.00  0.00    -0.153 A  
HETATM   20  N   UNL     1      -8.206   7.967  65.750  1.00  0.00    -0.124 NA 
HETATM   21  N   UNL     1      -8.683   8.954  63.713  1.00  0.00    -0.419 NA 
HETATM   22  H1  UNL     1      -8.856   8.010  63.370  1.00  0.00     0.000 HD 
HETATM   23  C   UNL     1      -7.793   8.131  67.009  1.00  0.00    -0.104 A  
HETATM   24  H2  UNL     1      -8.814   9.769  63.112  1.00  0.00     0.000 HD 
HETATM   25  C   UNL     1      -7.450   9.355  67.549  1.00  0.00    -0.091 A  
BRANCH  23  26
HETATM   26  O   UNL     1      -7.836   7.070  67.896  1.00  0.00    -0.110 OA 
BRANCH  26  27
HETATM   27  C   UNL     1      -9.086   6.347  68.021  1.00  0.00    -0.113 C  
HETATM   28  C   UNL     1     -10.382   7.179  67.850  1.00  0.00    -0.198 C  
HETATM   29  F   UNL     1     -10.186   8.516  67.834  1.00  0.00    -0.206 F  
HETATM   30  F   UNL     1     -11.218   6.921  68.899  1.00  0.00    -0.225 F  
HETATM   31  F   UNL     1     -11.089   6.859  66.739  1.00  0.00    -0.432 F  
BRANCH  27  32
HETATM   32  C   UNL     1      -9.075   5.066  67.129  1.00  0.00    -0.115 A  
HETATM   33  C   UNL     1      -9.166   5.275  65.732  1.00  0.00    -0.159 A  
HETATM   34  C   UNL     1      -9.316   4.212  64.837  1.00  0.00    -0.164 A  
HETATM   35  C   UNL     1      -9.397   2.914  65.317  1.00  0.00    -0.110 A  
HETATM   36  C   UNL     1      -9.213   2.655  66.675  1.00  0.00    -0.094 A  
HETATM   37 CL   UNL     1      -9.715   1.615  64.233  1.00  0.00    -0.120 Cl 
HETATM   38  C   UNL     1      -8.992   3.715  67.579  1.00  0.00    -0.140 A  
BRANCH  38  39
HETATM   39  N   UNL     1      -8.655   3.383  68.924  1.00  0.00    -0.078 NA 
HETATM   40  C   UNL     1      -7.428   3.058  69.473  1.00  0.00    -0.044 A  
HETATM   41  C   UNL     1      -7.677   2.617  70.754  1.00  0.00    -0.042 A  
HETATM   42  C   UNL     1      -9.057   2.793  70.920  1.00  0.00    -0.114 A  
HETATM   43  N   UNL     1      -9.595   3.411  69.880  1.00  0.00    -0.167 NA 
HETATM   44  C   UNL     1      -9.948   2.375  72.031  1.00  0.00    -0.231 C  
ENDBRANCH  38  39
ENDBRANCH  27  32
ENDBRANCH  26  27
ENDBRANCH  23  26
ENDBRANCH  14  17
ENDBRANCH  10  11
ENDBRANCH   6  10
ENDBRANCH   4   6
ENDBRANCH   3   4
ENDBRANCH   2   3
TORSDOF 10
ENDMDL
MODEL      219
REMARK 921   NORMALIZED FREE ENERGY PREDICTED BY IDOCK:   -2.75 KCAL/MOL
REMARK 922        TOTAL FREE ENERGY PREDICTED BY IDOCK:   -6.71 KCAL/MOL
REMARK 923 INTER-LIGAND FREE ENERGY PREDICTED BY IDOCK:   -7.24 KCAL/MOL
REMARK 924 INTRA-LIGAND FREE ENERGY PREDICTED BY IDOCK:    0.53 KCAL/MOL
REMARK 927      BINDING AFFINITY PREDICTED BY RF-SCORE:    0.00 PKD
ROOT
HETATM    1  C   UNL     1     -10.585  19.804  68.006  1.00  0.00    -0.439 C  
HETATM    2  C   UNL     1      -9.481  19.065  68.739  1.00  0.00    -0.382 C  
ENDROOT
BRANCH   2   3
HETATM    3  O   UNL     1      -8.710  18.353  67.764  1.00  0.00    -0.261 OA 
BRANCH   3   4
HETATM    4  C   UNL     1      -7.825  19.124  67.061  1.00  0.00    -0.250 C  
HETATM    5  O   UNL     1      -7.990  19.520  65.915  1.00  0.00    -0.373 OA 
BRANCH   4   6
HETATM    6  C   UNL     1      -6.620  19.432  67.959  1.00  0.00    -0.235 C  
HETATM    7  N   UNL     1      -7.048  19.377  69.377  1.00  0.00    -0.316 NA 
HETATM    8  H2  UNL     1      -7.493  18.490  69.614  1.00  0.00     0.000 HD 
HETATM    9  H1  UNL     1      -6.247  19.582  69.974  1.00  0.00     0.000 HD 
BRANCH   6  10
HETATM   10  C   UNL     1      -5.459  18.455  67.672  1.00  0.00    -0.155 C  
BRANCH  10  11
HETATM   11  C   UNL     1      -5.647  17.010  68.114  1.00  0.00    -0.120 A  
HETATM   12  C   UNL     1      -6.213  16.022  67.303  1.00  0.00    -0.155 A  
HETATM   13  C   UNL     1      -6.385  14.699  67.781  1.00  0.00    -0.170 A  
HETATM   14  C   UNL     1      -6.010  14.306  69.084  1.00  0.00    -0.092 A  
HETATM   15  C   UNL     1      -5.371  15.301  69.847  1.00  0.00    -0.107 A  
HETATM   16  C   UNL     1      -5.202  16.617  69.380  1.00  0.00    -0.136 A  
BRANCH  14  17
HETATM   17  C   UNL     1      -6.363  12.958  69.652  1.00  0.00    -0.089 A  
HETATM   18  N   UNL     1      -5.684  12.565  70.755  1.00  0.00    -0.272 NA 
HETATM   19  C   UNL     1      -5.845  11.303  71.177  1.00  0.00     0.212 A  
HETATM   20  N   UNL     1      -6.568  10.359  70.565  1.00  0.00    -0.293 NA 
HETATM   21  N   UNL     1      -5.136  10.913  72.295  1.00  0.00    -0.317 NA 
HETATM   22  H1  UNL     1      -5.258   9.953  72.616  1.00  0.00     0.000 HD 
HETATM   23  C   UNL     1      -7.247  10.771  69.491  1.00  0.00    -0.132 A  
HETATM   24  H2  UNL     1      -4.514  11.559  72.781  1.00  0.00     0.000 HD 
HETATM   25  C   UNL     1      -7.220  12.070  69.022  1.00  0.00    -0.053 A  
BRANCH  23  26
HETATM   26  O   UNL     1      -7.905   9.852  68.693  1.00  0.00    -0.083 OA 
BRANCH  26  27
HETATM   27  C   UNL     1      -9.353   9.825  68.754  1.00  0.00    -0.150 C  
HETATM   28  C   UNL     1     -10.099   9.807  67.396  1.00  0.00    -0.208 C  
HETATM   29  F   UNL     1      -9.312  10.051  66.326  1.00  0.00    -0.168 F  
HETATM   30  F   UNL     1     -11.059  10.779  67.403  1.00  0.00    -0.300 F  
HETATM   31  F   UNL     1     -10.762   8.650  67.157  1.00  0.00    -0.348 F  
BRANCH  27  32
HETATM   32  C   UNL     1      -9.843   8.703  69.722  1.00  0.00    -0.183 A  
HETATM   33  C   UNL     1     -11.156   8.845  70.232  1.00  0.00    -0.251 A  
HETATM   34  C   UNL     1     -11.659   7.993  71.219  1.00  0.00    -0.306 A  
HETATM   35  C   UNL     1     -10.856   6.987  71.734  1.00  0.00    -0.223 A  
HETATM   36  C   UNL     1      -9.594   6.749  71.191  1.00  0.00    -0.177 A  
HETATM   37 CL   UNL     1     -11.422   6.021  73.042  1.00  0.00    -0.179 Cl 
HETATM   38  C   UNL     1      -9.103   7.559  70.147  1.00  0.00    -0.147 A  
BRANCH  38  39
HETATM   39  N   UNL     1      -7.878   7.176  69.525  1.00  0.00    -0.116 NA 
HETATM   40  C   UNL     1      -6.755   6.585  70.076  1.00  0.00    -0.049 A  
HETATM   41  C   UNL     1      -5.779   6.620  69.104  1.00  0.00    -0.017 A  
HETATM   42  C   UNL     1      -6.423   7.163  67.985  1.00  0.00    -0.048 A  
HETATM   43  N   UNL     1      -7.718   7.327  68.202  1.00  0.00    -0.114 NA 
HETATM   44  C   UNL     1      -5.869   7.580  66.672  1.00  0.00    -0.039 C  
ENDBRANCH  38  39
ENDBRANCH  27  32
ENDBRANCH  26  27
ENDBRANCH  23  26
ENDBRANCH  14  17
ENDBRANCH  10  11
ENDBRANCH   6  10
ENDBRANCH   4   6
ENDBRANCH   3   4
ENDBRANCH   2   3
TORSDOF 10
ENDMDL
MODEL      220
REMARK 921   NORMALIZED FREE ENERGY PREDICTED BY IDOCK:   -2.72 KCAL/MOL
REMARK 922        TOTAL FREE ENERGY PREDICTED BY IDOCK:   -6.64 KCAL/MOL
REMARK 923 INTER-LIGAND FREE ENERGY PREDICTED BY IDOCK:   -6.41 KCAL/MOL
REMARK 924 INTRA-LIGAND FREE ENERGY PREDICTED BY IDOCK:   -0.24 KCAL/MOL
REMARK 927      BINDING AFFINITY PREDICTED BY RF-SCORE:    0.00 PKD
ROOT
HETATM    1  C   UNL     1      -5.698  18.826  64.935  1.00  0.00    -0.290 C  
HETATM    2  C   UNL     1      -5.708  18.209  66.322  1.00  0.00    -0.172 C  
ENDROOT
BRANCH   2   3
HETATM    3  O   UNL     1      -6.712  18.881  67.091  1.00  0.00    -0.199 OA 
BRANCH   3   4
HETATM    4  C   UNL     1      -7.950  18.915  66.508  1.00  0.00    -0.277 C  
HETATM    5  O   UNL     1      -8.186  18.640  65.339  1.00  0.00     0.014 OA 
BRANCH   4   6
HETATM    6  C   UNL     1      -8.983  19.319  67.568  1.00  0.00    -0.298 C  
HETATM    7  N   UNL     1      -9.561  20.633  67.203  1.00  0.00    -0.612 NA 
HETATM    8  H2  UNL     1      -9.951  20.638  66.259  1.00  0.00     0.000 HD 
HETATM    9  H1  UNL     1     -10.248  20.901  67.908  1.00  0.00     0.000 HD 
BRANCH   6  10
HETATM   10  C   UNL     1     -10.071  18.232  67.713  1.00  0.00    -0.369 C  
BRANCH  10  11
HETATM   11  C   UNL     1      -9.644  16.791  67.468  1.00  0.00    -0.240 A  
HETATM   12  C   UNL     1      -9.779  16.145  66.235  1.00  0.00    -0.332 A  
HETATM   13  C   UNL     1      -9.386  14.793  66.075  1.00  0.00    -0.249 A  
HETATM   14  C   UNL     1      -8.851  14.027  67.133  1.00  0.00    -0.239 A  
HETATM   15  C   UNL     1      -8.653  14.727  68.337  1.00  0.00    -0.166 A  
HETATM   16  C   UNL     1      -9.045  16.067  68.503  1.00  0.00    -0.203 A  
BRANCH  14  17
HETATM   17  C   UNL     1      -8.611  12.546  67.013  1.00  0.00    -0.188 A  
HETATM   18  N   UNL     1      -9.546  11.830  66.346  1.00  0.00    -0.212 NA 
HETATM   19  C   UNL     1      -9.455  10.493  66.376  1.00  0.00    -0.171 A  
HETATM   20  N   UNL     1      -8.558   9.784  67.071  1.00  0.00    -0.124 NA 
HETATM   21  N   UNL     1     -10.422   9.776  65.702  1.00  0.00    -0.045 NA 
HETATM   22  H1  UNL     1     -10.354   8.759  65.726  1.00  0.00     0.000 HD 
HETATM   23  C   UNL     1      -7.632  10.508  67.707  1.00  0.00    -0.088 A  
HETATM   24  H2  UNL     1     -11.177  10.245  65.200  1.00  0.00     0.000 HD 
HETATM   25  C   UNL     1      -7.583  11.888  67.669  1.00  0.00    -0.136 A  
BRANCH  23  26
HETATM   26  O   UNL     1      -6.748   9.894  68.576  1.00  0.00    -0.054 OA 
BRANCH  26  27
HETATM   27  C   UNL     1      -6.945   8.485  68.851  1.00  0.00    -0.062 C  
HETATM   28  C   UNL     1      -6.220   7.491  67.909  1.00  0.00    -0.048 C  
HETATM   29  F   UNL     1      -5.679   8.061  66.809  1.00  0.00    -0.033 F  
HETATM   30  F   UNL     1      -7.118   6.563  67.465  1.00  0.00    -0.070 F  
HETATM   31  F   UNL     1      -5.241   6.781  68.521  1.00  0.00    -0.012 F  
BRANCH  27  32
HETATM   32  C   UNL     1      -6.689   8.176  70.360  1.00  0.00    -0.037 A  
HETATM   33  C   UNL     1      -5.690   8.950  70.997  1.00  0.00    -0.039 A  
HETATM   34  C   UNL     1      -5.262   8.673  72.298  1.00  0.00    -0.044 A  
HETATM   35  C   UNL     1      -5.809   7.603  72.990  1.00  0.00    -0.044 A  
HETATM   36  C   UNL     1      -6.863   6.876  72.438  1.00  0.00    -0.062 A  
HETATM   37 CL   UNL     1      -5.192   7.176  74.539  1.00  0.00    -0.057 Cl 
HETATM   38  C   UNL     1      -7.351   7.191  71.152  1.00  0.00    -0.075 A  
BRANCH  38  39
HETATM   39  N   UNL     1      -8.527   6.522  70.704  1.00  0.00    -0.133 NA 
HETATM   40  C   UNL     1      -8.944   5.222  70.927  1.00  0.00    -0.137 A  
HETATM   41  C   UNL     1     -10.028   5.013  70.104  1.00  0.00    -0.328 A  
HETATM   42  C   UNL     1     -10.246   6.255  69.493  1.00  0.00    -0.194 A  
HETATM   43  N   UNL     1      -9.450   7.187  69.993  1.00  0.00    -0.165 NA 
HETATM   44  C   UNL     1     -11.180   6.634  68.403  1.00  0.00    -0.215 C  
ENDBRANCH  38  39
ENDBRANCH  27  32
ENDBRANCH  26  27
ENDBRANCH  23  26
ENDBRANCH  14  17
ENDBRANCH  10  11
ENDBRANCH   6  10
ENDBRANCH   4   6
ENDBRANCH   3   4
ENDBRANCH   2   3
TORSDOF 10
ENDMDL
MODEL      221
REMARK 921   NORMALIZED FREE ENERGY PREDICTED BY IDOCK:   -2.67 KCAL/MOL
REMARK 922        TOTAL FREE ENERGY PREDICTED BY IDOCK:   -6.57 KCAL/MOL
REMARK 923 INTER-LIGAND FREE ENERGY PREDICTED BY IDOCK:   -7.56 KCAL/MOL
REMARK 924 INTRA-LIGAND FREE ENERGY PREDICTED BY IDOCK:    0.99 KCAL/MOL
REMARK 927      BINDING AFFINITY PREDICTED BY RF-SCORE:    0.00 PKD
ROOT
HETATM    1  C   UNL     1     -11.231  16.450  69.121  1.00  0.00    -0.275 C  
HETATM    2  C   UNL     1     -10.891  16.880  67.705  1.00  0.00    -0.281 C  
ENDROOT
BRANCH   2   3
HETATM    3  O   UNL     1     -10.715  18.301  67.711  1.00  0.00    -0.411 OA 
BRANCH   3   4
HETATM    4  C   UNL     1      -9.412  18.715  67.652  1.00  0.00    -0.293 C  
HETATM    5  O   UNL     1      -8.987  19.771  68.103  1.00  0.00    -0.328 OA 
BRANCH   4   6
HETATM    6  C   UNL     1      -8.580  17.626  66.963  1.00  0.00    -0.237 C  
HETATM    7  N   UNL     1      -7.977  18.186  65.731  1.00  0.00    -0.515 NA 
HETATM    8  H2  UNL     1      -7.436  19.032  65.913  1.00  0.00     0.000 HD 
HETATM    9  H1  UNL     1      -7.424  17.462  65.273  1.00  0.00     0.000 HD 
BRANCH   6  10
HETATM   10  C   UNL     1      -7.508  17.066  67.924  1.00  0.00    -0.175 C  
BRANCH  10  11
HETATM   11  C   UNL     1      -7.250  15.566  67.872  1.00  0.00    -0.156 A  
HETATM   12  C   UNL     1      -5.976  14.998  67.967  1.00  0.00    -0.157 A  
HETATM   13  C   UNL     1      -5.797  13.595  67.887  1.00  0.00    -0.131 A  
HETATM   14  C   UNL     1      -6.875  12.701  67.701  1.00  0.00    -0.144 A  
HETATM   15  C   UNL     1      -8.150  13.295  67.689  1.00  0.00    -0.174 A  
HETATM   16  C   UNL     1      -8.333  14.687  67.764  1.00  0.00    -0.168 A  
BRANCH  14  17
HETATM   17  C   UNL     1      -6.667  11.235  67.428  1.00  0.00    -0.085 A  
HETATM   18  N   UNL     1      -6.745  10.839  66.136  1.00  0.00    -0.131 NA 
HETATM   19  C   UNL     1      -6.744   9.524  65.879  1.00  0.00    -0.082 A  
HETATM   20  N   UNL     1      -6.745   8.547  66.793  1.00  0.00    -0.061 NA 
HETATM   21  N   UNL     1      -6.837   9.135  64.558  1.00  0.00    -0.085 NA 
HETATM   22  H1  UNL     1      -6.836   8.135  64.362  1.00  0.00     0.000 HD 
HETATM   23  C   UNL     1      -6.648   8.957  68.061  1.00  0.00    -0.061 A  
HETATM   24  H2  UNL     1      -6.903   9.822  63.806  1.00  0.00     0.000 HD 
HETATM   25  C   UNL     1      -6.555  10.285  68.430  1.00  0.00    -0.056 A  
BRANCH  23  26
HETATM   26  O   UNL     1      -6.791   8.050  69.096  1.00  0.00    -0.050 OA 
BRANCH  26  27
HETATM   27  C   UNL     1      -8.136   7.733  69.531  1.00  0.00    -0.126 C  
HETATM   28  C   UNL     1      -9.054   8.937  69.860  1.00  0.00    -0.161 C  
HETATM   29  F   UNL     1      -8.414  10.125  69.920  1.00  0.00    -0.179 F  
HETATM   30  F   UNL     1      -9.624   8.740  71.086  1.00  0.00    -0.204 F  
HETATM   31  F   UNL     1     -10.092   9.078  69.000  1.00  0.00    -0.174 F  
BRANCH  27  32
HETATM   32  C   UNL     1      -8.808   6.717  68.555  1.00  0.00    -0.122 A  
HETATM   33  C   UNL     1      -8.146   6.500  67.323  1.00  0.00    -0.113 A  
HETATM   34  C   UNL     1      -8.717   5.731  66.305  1.00  0.00    -0.134 A  
HETATM   35  C   UNL     1      -9.974   5.175  66.485  1.00  0.00    -0.212 A  
HETATM   36  C   UNL     1     -10.619   5.282  67.718  1.00  0.00    -0.109 A  
HETATM   37 CL   UNL     1     -10.739   4.342  65.188  1.00  0.00    -0.222 Cl 
HETATM   38  C   UNL     1     -10.020   5.996  68.776  1.00  0.00    -0.150 A  
BRANCH  38  39
HETATM   39  N   UNL     1     -10.646   5.941  70.056  1.00  0.00    -0.266 NA 
HETATM   40  C   UNL     1     -11.853   6.471  70.472  1.00  0.00    -0.328 A  
HETATM   41  C   UNL     1     -11.894   6.324  71.842  1.00  0.00    -0.359 A  
HETATM   42  C   UNL     1     -10.721   5.623  72.150  1.00  0.00    -0.234 A  
HETATM   43  N   UNL     1     -10.075   5.252  71.055  1.00  0.00    -0.210 NA 
HETATM   44  C   UNL     1     -10.127   5.285  73.468  1.00  0.00    -0.205 C  
ENDBRANCH  38  39
ENDBRANCH  27  32
ENDBRANCH  26  27
ENDBRANCH  23  26
ENDBRANCH  14  17
ENDBRANCH  10  11
ENDBRANCH   6  10
ENDBRANCH   4   6
ENDBRANCH   3   4
ENDBRANCH   2   3
TORSDOF 10
ENDMDL
MODEL      222
REMARK 921   NORMALIZED FREE ENERGY PREDICTED BY IDOCK:   -2.61 KCAL/MOL
REMARK 922        TOTAL FREE ENERGY PREDICTED BY IDOCK:   -6.48 KCAL/MOL
REMARK 923 INTER-LIGAND FREE ENERGY PREDICTED BY IDOCK:   -5.12 KCAL/MOL
REMARK 924 INTRA-LIGAND FREE ENERGY PREDICTED BY IDOCK:   -1.35 KCAL/MOL
REMARK 927      BINDING AFFINITY PREDICTED BY RF-SCORE:    0.00 PKD
ROOT
HETATM    1  C   UNL     1     -11.017  16.517  66.015  1.00  0.00     0.057 C  
HETATM    2  C   UNL     1     -11.115  15.704  64.737  1.00  0.00    -0.412 C  
ENDROOT
BRANCH   2   3
HETATM    3  O   UNL     1     -11.536  14.382  65.093  1.00  0.00    -0.335 OA 
BRANCH   3   4
HETATM    4  C   UNL     1     -11.825  13.570  64.030  1.00  0.00    -0.427 C  
HETATM    5  O   UNL     1     -12.659  13.809  63.167  1.00  0.00    -0.793 OA 
BRANCH   4   6
HETATM    6  C   UNL     1     -10.911  12.339  64.088  1.00  0.00    -0.363 C  
HETATM    7  N   UNL     1      -9.527  12.780  64.380  1.00  0.00    -0.249 NA 
HETATM    8  H2  UNL     1      -9.470  13.346  65.227  1.00  0.00     0.000 HD 
HETATM    9  H1  UNL     1      -8.920  11.961  64.418  1.00  0.00     0.000 HD 
BRANCH   6  10
HETATM   10  C   UNL     1     -11.424  11.325  65.133  1.00  0.00     0.113 C  
BRANCH  10  11
HETATM   11  C   UNL     1     -10.436  10.877  66.203  1.00  0.00    -0.290 A  
HETATM   12  C   UNL     1      -9.522   9.834  66.022  1.00  0.00    -0.269 A  
HETATM   13  C   UNL     1      -8.644   9.447  67.064  1.00  0.00    -0.131 A  
HETATM   14  C   UNL     1      -8.644  10.073  68.329  1.00  0.00    -0.115 A  
HETATM   15  C   UNL     1      -9.517  11.169  68.454  1.00  0.00    -0.189 A  
HETATM   16  C   UNL     1     -10.394  11.555  67.425  1.00  0.00    -0.235 A  
BRANCH  14  17
HETATM   17  C   UNL     1      -7.848   9.541  69.491  1.00  0.00    -0.103 A  
HETATM   18  N   UNL     1      -7.157  10.447  70.221  1.00  0.00    -0.255 NA 
HETATM   19  C   UNL     1      -6.300   9.990  71.145  1.00  0.00     0.105 A  
HETATM   20  N   UNL     1      -6.004   8.705  71.371  1.00  0.00    -0.042 NA 
HETATM   21  N   UNL     1      -5.594  10.925  71.873  1.00  0.00    -0.245 NA 
HETATM   22  H1  UNL     1      -4.942  10.577  72.576  1.00  0.00     0.000 HD 
HETATM   23  C   UNL     1      -6.710   7.826  70.655  1.00  0.00    -0.038 A  
HETATM   24  H2  UNL     1      -5.718  11.925  71.715  1.00  0.00     0.000 HD 
HETATM   25  C   UNL     1      -7.679   8.188  69.739  1.00  0.00    -0.100 A  
BRANCH  23  26
HETATM   26  O   UNL     1      -6.387   6.481  70.693  1.00  0.00    -0.038 OA 
BRANCH  26  27
HETATM   27  C   UNL     1      -7.220   5.567  69.937  1.00  0.00    -0.068 C  
HETATM   28  C   UNL     1      -6.479   4.533  69.052  1.00  0.00    -0.040 C  
HETATM   29  F   UNL     1      -5.154   4.761  68.920  1.00  0.00     0.000 F  
HETATM   30  F   UNL     1      -7.008   4.564  67.793  1.00  0.00    -0.054 F  
HETATM   31  F   UNL     1      -6.631   3.253  69.473  1.00  0.00    -0.031 F  
BRANCH  27  32
HETATM   32  C   UNL     1      -8.294   4.909  70.858  1.00  0.00    -0.108 A  
HETATM   33  C   UNL     1      -8.189   5.188  72.242  1.00  0.00    -0.121 A  
HETATM   34  C   UNL     1      -8.994   4.544  73.186  1.00  0.00    -0.119 A  
HETATM   35  C   UNL     1      -9.912   3.591  72.773  1.00  0.00    -0.154 A  
HETATM   36  C   UNL     1     -10.117   3.357  71.413  1.00  0.00    -0.014 A  
HETATM   37 CL   UNL     1     -10.810   2.700  73.940  1.00  0.00    -0.268 Cl 
HETATM   38  C   UNL     1      -9.358   4.052  70.448  1.00  0.00    -0.160 A  
BRANCH  38  39
HETATM   39  N   UNL     1      -9.716   3.891  69.077  1.00  0.00    -0.128 NA 
HETATM   40  C   UNL     1      -9.360   2.898  68.182  1.00  0.00    -0.202 A  
HETATM   41  C   UNL     1      -9.790   3.318  66.942  1.00  0.00     0.276 A  
HETATM   42  C   UNL     1     -10.465   4.519  67.196  1.00  0.00     0.214 A  
HETATM   43  N   UNL     1     -10.560   4.755  68.495  1.00  0.00     0.238 NA 
HETATM   44  C   UNL     1     -11.030   5.516  66.253  1.00  0.00    -0.031 C  
ENDBRANCH  38  39
ENDBRANCH  27  32
ENDBRANCH  26  27
ENDBRANCH  23  26
ENDBRANCH  14  17
ENDBRANCH  10  11
ENDBRANCH   6  10
ENDBRANCH   4   6
ENDBRANCH   3   4
ENDBRANCH   2   3
TORSDOF 10
ENDMDL
MODEL      223
REMARK 921   NORMALIZED FREE ENERGY PREDICTED BY IDOCK:   -2.57 KCAL/MOL
REMARK 922        TOTAL FREE ENERGY PREDICTED BY IDOCK:   -6.41 KCAL/MOL
REMARK 923 INTER-LIGAND FREE ENERGY PREDICTED BY IDOCK:   -7.81 KCAL/MOL
REMARK 924 INTRA-LIGAND FREE ENERGY PREDICTED BY IDOCK:    1.40 KCAL/MOL
REMARK 927      BINDING AFFINITY PREDICTED BY RF-SCORE:    0.00 PKD
ROOT
HETATM    1  C   UNL     1      -5.871   3.993  68.457  1.00  0.00    -0.026 C  
HETATM    2  C   UNL     1      -5.488   4.132  69.920  1.00  0.00    -0.012 C  
ENDROOT
BRANCH   2   3
HETATM    3  O   UNL     1      -6.061   3.026  70.628  1.00  0.00    -0.018 OA 
BRANCH   3   4
HETATM    4  C   UNL     1      -7.125   2.437  70.001  1.00  0.00    -0.033 C  
HETATM    5  O   UNL     1      -7.174   2.153  68.812  1.00  0.00    -0.043 OA 
BRANCH   4   6
HETATM    6  C   UNL     1      -8.220   2.165  71.042  1.00  0.00    -0.049 C  
HETATM    7  N   UNL     1      -7.824   2.779  72.331  1.00  0.00    -0.054 NA 
HETATM    8  H2  UNL     1      -7.614   3.774  72.239  1.00  0.00     0.000 HD 
HETATM    9  H1  UNL     1      -8.552   2.598  73.022  1.00  0.00     0.000 HD 
BRANCH   6  10
HETATM   10  C   UNL     1      -9.586   2.692  70.550  1.00  0.00    -0.149 C  
BRANCH  10  11
HETATM   11  C   UNL     1      -9.648   4.153  70.122  1.00  0.00    -0.272 A  
HETATM   12  C   UNL     1      -9.802   4.562  68.793  1.00  0.00    -0.180 A  
HETATM   13  C   UNL     1      -9.828   5.937  68.454  1.00  0.00    -0.163 A  
HETATM   14  C   UNL     1      -9.695   6.960  69.418  1.00  0.00    -0.157 A  
HETATM   15  C   UNL     1      -9.623   6.519  70.752  1.00  0.00    -0.190 A  
HETATM   16  C   UNL     1      -9.592   5.155  71.094  1.00  0.00    -0.224 A  
BRANCH  14  17
HETATM   17  C   UNL     1      -9.534   8.408  69.039  1.00  0.00    -0.151 A  
HETATM   18  N   UNL     1      -8.512   9.079  69.619  1.00  0.00    -0.122 NA 
HETATM   19  C   UNL     1      -8.451  10.407  69.443  1.00  0.00    -0.134 A  
HETATM   20  N   UNL     1      -9.354  11.154  68.799  1.00  0.00    -0.175 NA 
HETATM   21  N   UNL     1      -7.410  11.079  70.051  1.00  0.00    -0.420 NA 
HETATM   22  H1  UNL     1      -7.363  12.089  69.918  1.00  0.00     0.000 HD 
HETATM   23  C   UNL     1     -10.344  10.472  68.217  1.00  0.00    -0.168 A  
HETATM   24  H2  UNL     1      -6.715  10.586  70.612  1.00  0.00     0.000 HD 
HETATM   25  C   UNL     1     -10.454   9.096  68.263  1.00  0.00    -0.254 A  
BRANCH  23  26
HETATM   26  O   UNL     1     -11.413  11.146  67.654  1.00  0.00    -0.428 OA 
BRANCH  26  27
HETATM   27  C   UNL     1     -11.840  12.377  68.287  1.00  0.00    -0.309 C  
HETATM   28  C   UNL     1     -12.062  12.322  69.820  1.00  0.00    -0.229 C  
HETATM   29  F   UNL     1     -12.049  11.074  70.339  1.00  0.00    -0.332 F  
HETATM   30  F   UNL     1     -13.286  12.853  70.112  1.00  0.00     0.233 F  
HETATM   31  F   UNL     1     -11.172  13.063  70.523  1.00  0.00     0.048 F  
BRANCH  27  32
HETATM   32  C   UNL     1     -10.927  13.567  67.856  1.00  0.00    -0.275 A  
HETATM   33  C   UNL     1     -10.250  14.246  68.898  1.00  0.00    -0.203 A  
HETATM   34  C   UNL     1      -9.522  15.415  68.663  1.00  0.00    -0.205 A  
HETATM   35  C   UNL     1      -9.466  15.947  67.384  1.00  0.00    -0.219 A  
HETATM   36  C   UNL     1     -10.035  15.258  66.313  1.00  0.00    -0.304 A  
HETATM   37 CL   UNL     1      -8.685  17.456  67.113  1.00  0.00    -0.231 Cl 
HETATM   38  C   UNL     1     -10.713  14.040  66.527  1.00  0.00    -0.281 A  
BRANCH  38  39
HETATM   39  N   UNL     1     -11.137  13.303  65.383  1.00  0.00    -0.281 NA 
HETATM   40  C   UNL     1     -12.393  13.203  64.811  1.00  0.00    -0.423 A  
HETATM   41  C   UNL     1     -12.312  12.206  63.863  1.00  0.00    -0.587 A  
HETATM   42  C   UNL     1     -10.964  11.827  63.872  1.00  0.00    -0.407 A  
HETATM   43  N   UNL     1     -10.244  12.610  64.660  1.00  0.00    -0.311 NA 
HETATM   44  C   UNL     1     -10.281  10.709  63.174  1.00  0.00    -0.072 C  
ENDBRANCH  38  39
ENDBRANCH  27  32
ENDBRANCH  26  27
ENDBRANCH  23  26
ENDBRANCH  14  17
ENDBRANCH  10  11
ENDBRANCH   6  10
ENDBRANCH   4   6
ENDBRANCH   3   4
ENDBRANCH   2   3
TORSDOF 10
ENDMDL
MODEL      224
REMARK 921   NORMALIZED FREE ENERGY PREDICTED BY IDOCK:   -2.56 KCAL/MOL
REMARK 922        TOTAL FREE ENERGY PREDICTED BY IDOCK:   -6.39 KCAL/MOL
REMARK 923 INTER-LIGAND FREE ENERGY PREDICTED BY IDOCK:   -4.96 KCAL/MOL
REMARK 924 INTRA-LIGAND FREE ENERGY PREDICTED BY IDOCK:   -1.44 KCAL/MOL
REMARK 927      BINDING AFFINITY PREDICTED BY RF-SCORE:    0.00 PKD
ROOT
HETATM    1  C   UNL     1     -13.303  13.693  65.256  1.00  0.00     0.306 C  
HETATM    2  C   UNL     1     -12.544  14.992  65.458  1.00  0.00     0.353 C  
ENDROOT
BRANCH   2   3
HETATM    3  O   UNL     1     -11.441  14.721  66.332  1.00  0.00    -0.350 OA 
BRANCH   3   4
HETATM    4  C   UNL     1     -10.210  14.813  65.742  1.00  0.00    -0.338 C  
HETATM    5  O   UNL     1      -9.954  14.486  64.591  1.00  0.00    -0.194 OA 
BRANCH   4   6
HETATM    6  C   UNL     1      -9.225  15.421  66.750  1.00  0.00    -0.249 C  
HETATM    7  N   UNL     1      -9.987  16.171  67.776  1.00  0.00    -0.234 NA 
HETATM    8  H2  UNL     1     -10.700  15.598  68.227  1.00  0.00     0.000 HD 
HETATM    9  H1  UNL     1      -9.333  16.575  68.445  1.00  0.00     0.000 HD 
BRANCH   6  10
HETATM   10  C   UNL     1      -8.339  14.324  67.380  1.00  0.00    -0.212 C  
BRANCH  10  11
HETATM   11  C   UNL     1      -8.962  12.943  67.543  1.00  0.00    -0.193 A  
HETATM   12  C   UNL     1      -9.641  12.534  68.694  1.00  0.00    -0.029 A  
HETATM   13  C   UNL     1     -10.178  11.227  68.796  1.00  0.00    -0.215 A  
HETATM   14  C   UNL     1     -10.055  10.272  67.763  1.00  0.00    -0.213 A  
HETATM   15  C   UNL     1      -9.438  10.738  66.588  1.00  0.00    -0.201 A  
HETATM   16  C   UNL     1      -8.899  12.034  66.483  1.00  0.00    -0.172 A  
BRANCH  14  17
HETATM   17  C   UNL     1     -10.457   8.833  67.945  1.00  0.00    -0.216 A  
HETATM   18  N   UNL     1     -10.481   8.363  69.214  1.00  0.00    -0.222 NA 
HETATM   19  C   UNL     1     -10.658   7.047  69.396  1.00  0.00    -0.230 A  
HETATM   20  N   UNL     1     -10.744   6.128  68.427  1.00  0.00    -0.265 NA 
HETATM   21  N   UNL     1     -10.668   6.581  70.695  1.00  0.00    -0.235 NA 
HETATM   22  H1  UNL     1     -10.802   5.580  70.833  1.00  0.00     0.000 HD 
HETATM   23  C   UNL     1     -10.738   6.612  67.183  1.00  0.00    -0.370 A  
HETATM   24  H2  UNL     1     -10.545   7.214  71.486  1.00  0.00     0.000 HD 
HETATM   25  C   UNL     1     -10.648   7.959  66.887  1.00  0.00    -0.333 A  
BRANCH  23  26
HETATM   26  O   UNL     1     -10.670   5.750  66.103  1.00  0.00    -0.097 OA 
BRANCH  26  27
HETATM   27  C   UNL     1      -9.391   5.132  65.816  1.00  0.00    -0.154 C  
HETATM   28  C   UNL     1      -9.415   3.912  64.861  1.00  0.00    -0.170 C  
HETATM   29  F   UNL     1     -10.652   3.437  64.596  1.00  0.00    -0.125 F  
HETATM   30  F   UNL     1      -8.717   2.886  65.431  1.00  0.00    -0.104 F  
HETATM   31  F   UNL     1      -8.806   4.143  63.672  1.00  0.00    -0.103 F  
BRANCH  27  32
HETATM   32  C   UNL     1      -8.342   6.206  65.390  1.00  0.00    -0.150 A  
HETATM   33  C   UNL     1      -8.550   6.821  64.133  1.00  0.00     0.418 A  
HETATM   34  C   UNL     1      -7.607   7.686  63.571  1.00  0.00    -0.119 A  
HETATM   35  C   UNL     1      -6.423   7.944  64.244  1.00  0.00    -0.057 A  
HETATM   36  C   UNL     1      -6.220   7.438  65.528  1.00  0.00    -0.038 A  
HETATM   37 CL   UNL     1      -5.201   8.901  63.498  1.00  0.00    -0.061 Cl 
HETATM   38  C   UNL     1      -7.196   6.620  66.134  1.00  0.00    -0.071 A  
BRANCH  38  39
HETATM   39  N   UNL     1      -7.009   6.261  67.501  1.00  0.00    -0.066 NA 
HETATM   40  C   UNL     1      -6.689   7.055  68.587  1.00  0.00    -0.063 A  
HETATM   41  C   UNL     1      -6.416   6.199  69.631  1.00  0.00    -0.039 A  
HETATM   42  C   UNL     1      -6.680   4.924  69.112  1.00  0.00    -0.049 A  
HETATM   43  N   UNL     1      -7.198   4.993  67.896  1.00  0.00    -0.066 NA 
HETATM   44  C   UNL     1      -6.442   3.583  69.704  1.00  0.00    -0.033 C  
ENDBRANCH  38  39
ENDBRANCH  27  32
ENDBRANCH  26  27
ENDBRANCH  23  26
ENDBRANCH  14  17
ENDBRANCH  10  11
ENDBRANCH   6  10
ENDBRANCH   4   6
ENDBRANCH   3   4
ENDBRANCH   2   3
TORSDOF 10
ENDMDL
MODEL      225
REMARK 921   NORMALIZED FREE ENERGY PREDICTED BY IDOCK:   -2.53 KCAL/MOL
REMARK 922        TOTAL FREE ENERGY PREDICTED BY IDOCK:   -6.35 KCAL/MOL
REMARK 923 INTER-LIGAND FREE ENERGY PREDICTED BY IDOCK:   -8.20 KCAL/MOL
REMARK 924 INTRA-LIGAND FREE ENERGY PREDICTED BY IDOCK:    1.85 KCAL/MOL
REMARK 927      BINDING AFFINITY PREDICTED BY RF-SCORE:    0.00 PKD
ROOT
HETATM    1  C   UNL     1      -6.941  19.376  67.051  1.00  0.00    -0.212 C  
HETATM    2  C   UNL     1      -7.467  20.229  68.192  1.00  0.00    -0.185 C  
ENDROOT
BRANCH   2   3
HETATM    3  O   UNL     1      -8.887  20.050  68.252  1.00  0.00    -0.260 OA 
BRANCH   3   4
HETATM    4  C   UNL     1      -9.301  18.747  68.198  1.00  0.00    -0.316 C  
HETATM    5  O   UNL     1      -9.008  17.880  69.010  1.00  0.00    -0.160 OA 
BRANCH   4   6
HETATM    6  C   UNL     1     -10.213  18.571  66.977  1.00  0.00    -0.380 C  
HETATM    7  N   UNL     1     -10.536  19.905  66.419  1.00  0.00    -0.461 NA 
HETATM    8  H2  UNL     1      -9.700  20.449  66.204  1.00  0.00     0.000 HD 
HETATM    9  H1  UNL     1     -11.143  19.788  65.608  1.00  0.00     0.000 HD 
BRANCH   6  10
HETATM   10  C   UNL     1      -9.550  17.654  65.926  1.00  0.00    -0.003 C  
BRANCH  10  11
HETATM   11  C   UNL     1      -9.077  16.287  66.403  1.00  0.00    -0.336 A  
HETATM   12  C   UNL     1      -9.831  15.117  66.264  1.00  0.00    -0.317 A  
HETATM   13  C   UNL     1      -9.347  13.878  66.750  1.00  0.00    -0.286 A  
HETATM   14  C   UNL     1      -8.101  13.751  67.402  1.00  0.00    -0.188 A  
HETATM   15  C   UNL     1      -7.332  14.928  67.455  1.00  0.00    -0.222 A  
HETATM   16  C   UNL     1      -7.809  16.162  66.978  1.00  0.00    -0.258 A  
BRANCH  14  17
HETATM   17  C   UNL     1      -7.673  12.479  68.082  1.00  0.00    -0.141 A  
HETATM   18  N   UNL     1      -6.574  11.863  67.588  1.00  0.00    -0.087 NA 
HETATM   19  C   UNL     1      -6.273  10.642  68.052  1.00  0.00    -0.053 A  
HETATM   20  N   UNL     1      -7.005   9.931  68.918  1.00  0.00    -0.061 NA 
HETATM   21  N   UNL     1      -5.157  10.022  67.529  1.00  0.00    -0.034 NA 
HETATM   22  H1  UNL     1      -4.928   9.093  67.882  1.00  0.00     0.000 HD 
HETATM   23  C   UNL     1      -8.074  10.563  69.409  1.00  0.00    -0.128 A  
HETATM   24  H2  UNL     1      -4.582  10.475  66.818  1.00  0.00     0.000 HD 
HETATM   25  C   UNL     1      -8.426  11.853  69.064  1.00  0.00     0.255 A  
BRANCH  23  26
HETATM   26  O   UNL     1      -8.985   9.877  70.193  1.00  0.00    -0.216 OA 
BRANCH  26  27
HETATM   27  C   UNL     1      -9.974   9.061  69.517  1.00  0.00    -0.191 C  
HETATM   28  C   UNL     1     -11.019   8.358  70.419  1.00  0.00    -0.239 C  
HETATM   29  F   UNL     1     -10.740   8.412  71.740  1.00  0.00    -0.269 F  
HETATM   30  F   UNL     1     -11.078   7.035  70.086  1.00  0.00    -0.260 F  
HETATM   31  F   UNL     1     -12.280   8.827  70.252  1.00  0.00    -0.028 F  
BRANCH  27  32
HETATM   32  C   UNL     1     -10.630   9.848  68.340  1.00  0.00    -0.258 A  
HETATM   33  C   UNL     1     -10.459   9.300  67.047  1.00  0.00    -0.303 A  
HETATM   34  C   UNL     1     -10.868   9.982  65.897  1.00  0.00     0.317 A  
HETATM   35  C   UNL     1     -11.441  11.240  66.011  1.00  0.00     0.204 A  
HETATM   36  C   UNL     1     -11.717  11.774  67.269  1.00  0.00    -0.293 A  
HETATM   37 CL   UNL     1     -11.823  12.141  64.595  1.00  0.00    -0.414 Cl 
HETATM   38  C   UNL     1     -11.372  11.063  68.437  1.00  0.00    -0.295 A  
BRANCH  38  39
HETATM   39  N   UNL     1     -11.818  11.582  69.688  1.00  0.00    -0.327 NA 
HETATM   40  C   UNL     1     -12.373  10.923  70.771  1.00  0.00    -0.390 A  
HETATM   41  C   UNL     1     -12.823  11.898  71.634  1.00  0.00    -0.417 A  
HETATM   42  C   UNL     1     -12.422  13.101  71.037  1.00  0.00    -0.318 A  
HETATM   43  N   UNL     1     -11.673  12.886  69.967  1.00  0.00    -0.261 NA 
HETATM   44  C   UNL     1     -12.732  14.504  71.412  1.00  0.00    -0.407 C  
ENDBRANCH  38  39
ENDBRANCH  27  32
ENDBRANCH  26  27
ENDBRANCH  23  26
ENDBRANCH  14  17
ENDBRANCH  10  11
ENDBRANCH   6  10
ENDBRANCH   4   6
ENDBRANCH   3   4
ENDBRANCH   2   3
TORSDOF 10
ENDMDL
MODEL      226
REMARK 921   NORMALIZED FREE ENERGY PREDICTED BY IDOCK:   -2.49 KCAL/MOL
REMARK 922        TOTAL FREE ENERGY PREDICTED BY IDOCK:   -6.28 KCAL/MOL
REMARK 923 INTER-LIGAND FREE ENERGY PREDICTED BY IDOCK:   -5.68 KCAL/MOL
REMARK 924 INTRA-LIGAND FREE ENERGY PREDICTED BY IDOCK:   -0.60 KCAL/MOL
REMARK 927      BINDING AFFINITY PREDICTED BY RF-SCORE:    0.00 PKD
ROOT
HETATM    1  C   UNL     1     -11.375  20.340  67.475  1.00  0.00     1.018 C  
HETATM    2  C   UNL     1     -10.284  19.743  68.345  1.00  0.00    -0.449 C  
ENDROOT
BRANCH   2   3
HETATM    3  O   UNL     1      -9.532  18.830  67.537  1.00  0.00    -0.293 OA 
BRANCH   3   4
HETATM    4  C   UNL     1     -10.187  17.668  67.228  1.00  0.00    -0.343 C  
HETATM    5  O   UNL     1     -10.659  17.395  66.133  1.00  0.00    -0.309 OA 
BRANCH   4   6
HETATM    6  C   UNL     1     -10.197  16.764  68.468  1.00  0.00    -0.298 C  
HETATM    7  N   UNL     1     -10.724  17.532  69.621  1.00  0.00    -0.196 NA 
HETATM    8  H2  UNL     1     -11.639  17.940  69.430  1.00  0.00     0.000 HD 
HETATM    9  H1  UNL     1     -10.730  16.931  70.445  1.00  0.00     0.000 HD 
BRANCH   6  10
HETATM   10  C   UNL     1     -11.020  15.484  68.206  1.00  0.00    -0.305 C  
BRANCH  10  11
HETATM   11  C   UNL     1     -10.280  14.156  68.299  1.00  0.00    -0.243 A  
HETATM   12  C   UNL     1      -8.886  14.046  68.273  1.00  0.00    -0.184 A  
HETATM   13  C   UNL     1      -8.256  12.779  68.338  1.00  0.00    -0.128 A  
HETATM   14  C   UNL     1      -8.983  11.571  68.425  1.00  0.00    -0.173 A  
HETATM   15  C   UNL     1     -10.378  11.720  68.530  1.00  0.00    -0.228 A  
HETATM   16  C   UNL     1     -11.009  12.975  68.461  1.00  0.00    -0.290 A  
BRANCH  14  17
HETATM   17  C   UNL     1      -8.323  10.224  68.305  1.00  0.00    -0.116 A  
HETATM   18  N   UNL     1      -7.114  10.083  68.896  1.00  0.00    -0.066 NA 
HETATM   19  C   UNL     1      -6.422   8.960  68.656  1.00  0.00    -0.054 A  
HETATM   20  N   UNL     1      -6.785   7.981  67.820  1.00  0.00    -0.067 NA 
HETATM   21  N   UNL     1      -5.185   8.837  69.256  1.00  0.00    -0.035 NA 
HETATM   22  H1  UNL     1      -4.659   7.983  69.073  1.00  0.00     0.000 HD 
HETATM   23  C   UNL     1      -7.989   8.128  67.262  1.00  0.00    -0.113 A  
HETATM   24  H2  UNL     1      -4.812   9.571  69.858  1.00  0.00     0.000 HD 
HETATM   25  C   UNL     1      -8.820   9.204  67.509  1.00  0.00    -0.124 A  
BRANCH  23  26
HETATM   26  O   UNL     1      -8.404   7.258  66.270  1.00  0.00    -0.116 OA 
BRANCH  26  27
HETATM   27  C   UNL     1      -9.135   6.074  66.676  1.00  0.00    -0.137 C  
HETATM   28  C   UNL     1     -10.664   6.242  66.867  1.00  0.00    -0.339 C  
HETATM   29  F   UNL     1     -11.090   7.524  66.852  1.00  0.00    -0.425 F  
HETATM   30  F   UNL     1     -11.021   5.726  68.080  1.00  0.00    -0.301 F  
HETATM   31  F   UNL     1     -11.402   5.560  65.957  1.00  0.00    -0.157 F  
BRANCH  27  32
HETATM   32  C   UNL     1      -8.775   4.862  65.762  1.00  0.00    -0.131 A  
HETATM   33  C   UNL     1      -8.713   5.121  64.372  1.00  0.00    -0.088 A  
HETATM   34  C   UNL     1      -8.547   4.095  63.437  1.00  0.00    -0.104 A  
HETATM   35  C   UNL     1      -8.459   2.780  63.867  1.00  0.00    -0.086 A  
HETATM   36  C   UNL     1      -8.417   2.489  65.231  1.00  0.00    -0.100 A  
HETATM   37 CL   UNL     1      -8.390   1.502  62.717  1.00  0.00    -0.060 Cl 
HETATM   38  C   UNL     1      -8.513   3.524  66.184  1.00  0.00    -0.112 A  
BRANCH  38  39
HETATM   39  N   UNL     1      -8.307   3.189  67.555  1.00  0.00    -0.081 NA 
HETATM   40  C   UNL     1      -7.141   3.187  68.298  1.00  0.00    -0.050 A  
HETATM   41  C   UNL     1      -7.443   2.583  69.499  1.00  0.00    -0.044 A  
HETATM   42  C   UNL     1      -8.821   2.335  69.426  1.00  0.00    -0.092 A  
HETATM   43  N   UNL     1      -9.350   2.860  68.331  1.00  0.00    -0.195 NA 
HETATM   44  C   UNL     1      -9.707   1.582  70.348  1.00  0.00    -0.069 C  
ENDBRANCH  38  39
ENDBRANCH  27  32
ENDBRANCH  26  27
ENDBRANCH  23  26
ENDBRANCH  14  17
ENDBRANCH  10  11
ENDBRANCH   6  10
ENDBRANCH   4   6
ENDBRANCH   3   4
ENDBRANCH   2   3
TORSDOF 10
ENDMDL
MODEL      227
REMARK 921   NORMALIZED FREE ENERGY PREDICTED BY IDOCK:   -2.38 KCAL/MOL
REMARK 922        TOTAL FREE ENERGY PREDICTED BY IDOCK:   -6.11 KCAL/MOL
REMARK 923 INTER-LIGAND FREE ENERGY PREDICTED BY IDOCK:   -6.36 KCAL/MOL
REMARK 924 INTRA-LIGAND FREE ENERGY PREDICTED BY IDOCK:    0.25 KCAL/MOL
REMARK 927      BINDING AFFINITY PREDICTED BY RF-SCORE:    0.00 PKD
ROOT
HETATM    1  C   UNL     1     -12.089  13.463  69.157  1.00  0.00    -0.306 C  
HETATM    2  C   UNL     1     -12.312  14.964  69.113  1.00  0.00    -0.063 C  
ENDROOT
BRANCH   2   3
HETATM    3  O   UNL     1     -11.027  15.597  69.135  1.00  0.00    -0.227 OA 
BRANCH   3   4
HETATM    4  C   UNL     1     -10.404  15.666  67.918  1.00  0.00    -0.259 C  
HETATM    5  O   UNL     1     -10.893  15.307  66.855  1.00  0.00    -0.310 OA 
BRANCH   4   6
HETATM    6  C   UNL     1      -9.018  16.295  68.110  1.00  0.00    -0.187 C  
HETATM    7  N   UNL     1      -9.180  17.656  68.674  1.00  0.00    -0.283 NA 
HETATM    8  H2  UNL     1      -9.729  17.657  69.534  1.00  0.00     0.000 HD 
HETATM    9  H1  UNL     1      -8.258  18.073  68.801  1.00  0.00     0.000 HD 
BRANCH   6  10
HETATM   10  C   UNL     1      -8.131  15.403  69.005  1.00  0.00    -0.213 C  
BRANCH  10  11
HETATM   11  C   UNL     1      -8.127  13.910  68.703  1.00  0.00    -0.097 A  
HETATM   12  C   UNL     1      -8.765  13.344  67.595  1.00  0.00    -0.198 A  
HETATM   13  C   UNL     1      -8.746  11.944  67.381  1.00  0.00    -0.166 A  
HETATM   14  C   UNL     1      -8.101  11.049  68.262  1.00  0.00    -0.128 A  
HETATM   15  C   UNL     1      -7.401  11.653  69.322  1.00  0.00     0.025 A  
HETATM   16  C   UNL     1      -7.420  13.043  69.542  1.00  0.00     0.589 A  
BRANCH  14  17
HETATM   17  C   UNL     1      -8.241   9.556  68.138  1.00  0.00    -0.114 A  
HETATM   18  N   UNL     1      -9.165   9.102  67.259  1.00  0.00    -0.132 NA 
HETATM   19  C   UNL     1      -9.440   7.790  67.255  1.00  0.00    -0.148 A  
HETATM   20  N   UNL     1      -8.935   6.881  68.097  1.00  0.00    -0.124 NA 
HETATM   21  N   UNL     1     -10.394   7.344  66.363  1.00  0.00    -0.474 NA 
HETATM   22  H1  UNL     1     -10.603   6.346  66.360  1.00  0.00     0.000 HD 
HETATM   23  C   UNL     1      -8.011   7.344  68.943  1.00  0.00    -0.126 A  
HETATM   24  H2  UNL     1     -10.871   7.987  65.730  1.00  0.00     0.000 HD 
HETATM   25  C   UNL     1      -7.591   8.660  68.972  1.00  0.00    -0.090 A  
BRANCH  23  26
HETATM   26  O   UNL     1      -7.529   6.533  69.956  1.00  0.00    -0.089 OA 
BRANCH  26  27
HETATM   27  C   UNL     1      -8.017   6.774  71.299  1.00  0.00    -0.106 C  
HETATM   28  C   UNL     1      -7.342   7.929  72.080  1.00  0.00    -0.081 C  
HETATM   29  F   UNL     1      -6.227   8.420  71.494  1.00  0.00    -0.034 F  
HETATM   30  F   UNL     1      -6.967   7.475  73.312  1.00  0.00    -0.063 F  
HETATM   31  F   UNL     1      -8.168   8.977  72.319  1.00  0.00    -0.122 F  
BRANCH  27  32
HETATM   32  C   UNL     1      -9.575   6.872  71.312  1.00  0.00    -0.165 A  
HETATM   33  C   UNL     1     -10.125   8.143  71.018  1.00  0.00    -0.221 A  
HETATM   34  C   UNL     1     -11.493   8.400  71.142  1.00  0.00    -0.314 A  
HETATM   35  C   UNL     1     -12.345   7.397  71.580  1.00  0.00    -0.341 A  
HETATM   36  C   UNL     1     -11.861   6.105  71.786  1.00  0.00    -0.279 A  
HETATM   37 CL   UNL     1     -14.007   7.744  71.863  1.00  0.00    -0.425 Cl 
HETATM   38  C   UNL     1     -10.493   5.818  71.596  1.00  0.00    -0.231 A  
BRANCH  38  39
HETATM   39  N   UNL     1     -10.084   4.454  71.666  1.00  0.00    -0.182 NA 
HETATM   40  C   UNL     1     -10.164   3.560  72.719  1.00  0.00    -0.168 A  
HETATM   41  C   UNL     1      -9.441   2.449  72.345  1.00  0.00    -0.159 A  
HETATM   42  C   UNL     1      -9.039   2.723  71.031  1.00  0.00    -0.111 A  
HETATM   43  N   UNL     1      -9.577   3.846  70.583  1.00  0.00    -0.178 NA 
HETATM   44  C   UNL     1      -8.120   1.975  70.136  1.00  0.00    -0.056 C  
ENDBRANCH  38  39
ENDBRANCH  27  32
ENDBRANCH  26  27
ENDBRANCH  23  26
ENDBRANCH  14  17
ENDBRANCH  10  11
ENDBRANCH   6  10
ENDBRANCH   4   6
ENDBRANCH   3   4
ENDBRANCH   2   3
TORSDOF 10
ENDMDL
MODEL      228
REMARK 921   NORMALIZED FREE ENERGY PREDICTED BY IDOCK:   -2.25 KCAL/MOL
REMARK 922        TOTAL FREE ENERGY PREDICTED BY IDOCK:   -5.90 KCAL/MOL
REMARK 923 INTER-LIGAND FREE ENERGY PREDICTED BY IDOCK:   -5.91 KCAL/MOL
REMARK 924 INTRA-LIGAND FREE ENERGY PREDICTED BY IDOCK:    0.02 KCAL/MOL
REMARK 927      BINDING AFFINITY PREDICTED BY RF-SCORE:    0.00 PKD
ROOT
HETATM    1  C   UNL     1     -11.340  19.716  67.245  1.00  0.00     0.233 C  
HETATM    2  C   UNL     1     -10.282  19.188  68.197  1.00  0.00    -0.403 C  
ENDROOT
BRANCH   2   3
HETATM    3  O   UNL     1      -9.497  18.225  67.485  1.00  0.00    -0.263 OA 
BRANCH   3   4
HETATM    4  C   UNL     1     -10.148  17.055  67.201  1.00  0.00    -0.292 C  
HETATM    5  O   UNL     1     -10.567  16.732  66.098  1.00  0.00    -0.294 OA 
BRANCH   4   6
HETATM    6  C   UNL     1     -10.231  16.214  68.482  1.00  0.00    -0.241 C  
HETATM    7  N   UNL     1     -10.770  17.055  69.577  1.00  0.00    -0.368 NA 
HETATM    8  H2  UNL     1     -11.664  17.482  69.335  1.00  0.00     0.000 HD 
HETATM    9  H1  UNL     1     -10.824  16.495  70.428  1.00  0.00     0.000 HD 
BRANCH   6  10
HETATM   10  C   UNL     1     -11.088  14.950  68.253  1.00  0.00    -0.290 C  
BRANCH  10  11
HETATM   11  C   UNL     1     -10.371  13.608  68.324  1.00  0.00    -0.251 A  
HETATM   12  C   UNL     1      -8.980  13.478  68.378  1.00  0.00    -0.146 A  
HETATM   13  C   UNL     1      -8.370  12.200  68.418  1.00  0.00    -0.143 A  
HETATM   14  C   UNL     1      -9.116  11.001  68.397  1.00  0.00    -0.161 A  
HETATM   15  C   UNL     1     -10.513  11.165  68.423  1.00  0.00    -0.211 A  
HETATM   16  C   UNL     1     -11.123  12.431  68.379  1.00  0.00    -0.288 A  
BRANCH  14  17
HETATM   17  C   UNL     1      -8.466   9.651  68.250  1.00  0.00    -0.118 A  
HETATM   18  N   UNL     1      -7.361   9.422  68.997  1.00  0.00    -0.071 NA 
HETATM   19  C   UNL     1      -6.659   8.306  68.757  1.00  0.00    -0.054 A  
HETATM   20  N   UNL     1      -6.907   7.417  67.789  1.00  0.00    -0.071 NA 
HETATM   21  N   UNL     1      -5.527   8.093  69.518  1.00  0.00    -0.026 NA 
HETATM   22  H1  UNL     1      -4.993   7.244  69.336  1.00  0.00     0.000 HD 
HETATM   23  C   UNL     1      -8.012   7.649  67.076  1.00  0.00    -0.116 A  
HETATM   24  H2  UNL     1      -5.237   8.758  70.235  1.00  0.00     0.000 HD 
HETATM   25  C   UNL     1      -8.854   8.722  67.297  1.00  0.00    -0.141 A  
BRANCH  23  26
HETATM   26  O   UNL     1      -8.288   6.885  65.955  1.00  0.00    -0.121 OA 
BRANCH  26  27
HETATM   27  C   UNL     1      -8.653   5.498  66.161  1.00  0.00    -0.129 C  
HETATM   28  C   UNL     1     -10.163   5.205  66.348  1.00  0.00    -0.266 C  
HETATM   29  F   UNL     1     -10.926   6.306  66.524  1.00  0.00    -0.350 F  
HETATM   30  F   UNL     1     -10.332   4.431  67.461  1.00  0.00    -0.158 F  
HETATM   31  F   UNL     1     -10.707   4.493  65.330  1.00  0.00    -0.284 F  
BRANCH  27  32
HETATM   32  C   UNL     1      -7.996   4.587  65.077  1.00  0.00    -0.098 A  
HETATM   33  C   UNL     1      -8.200   3.194  65.222  1.00  0.00    -0.094 A  
HETATM   34  C   UNL     1      -7.545   2.265  64.409  1.00  0.00    -0.064 A  
HETATM   35  C   UNL     1      -6.654   2.704  63.441  1.00  0.00    -0.026 A  
HETATM   36  C   UNL     1      -6.498   4.069  63.199  1.00  0.00    -0.022 A  
HETATM   37 CL   UNL     1      -5.745   1.563  62.529  1.00  0.00    -0.007 Cl 
HETATM   38  C   UNL     1      -7.207   5.015  63.968  1.00  0.00    -0.050 A  
BRANCH  38  39
HETATM   39  N   UNL     1      -7.131   6.384  63.575  1.00  0.00    -0.050 NA 
HETATM   40  C   UNL     1      -6.122   7.307  63.783  1.00  0.00    -0.045 A  
HETATM   41  C   UNL     1      -6.627   8.531  63.400  1.00  0.00    -0.085 A  
HETATM   42  C   UNL     1      -7.902   8.238  62.898  1.00  0.00    -0.143 A  
HETATM   43  N   UNL     1      -8.117   6.933  62.851  1.00  0.00    -0.081 NA 
HETATM   44  C   UNL     1      -8.991   9.149  62.464  1.00  0.00    -0.124 C  
ENDBRANCH  38  39
ENDBRANCH  27  32
ENDBRANCH  26  27
ENDBRANCH  23  26
ENDBRANCH  14  17
ENDBRANCH  10  11
ENDBRANCH   6  10
ENDBRANCH   4   6
ENDBRANCH   3   4
ENDBRANCH   2   3
TORSDOF 10
ENDMDL
MODEL      229
REMARK 921   NORMALIZED FREE ENERGY PREDICTED BY IDOCK:   -2.17 KCAL/MOL
REMARK 922        TOTAL FREE ENERGY PREDICTED BY IDOCK:   -5.78 KCAL/MOL
REMARK 923 INTER-LIGAND FREE ENERGY PREDICTED BY IDOCK:   -6.00 KCAL/MOL
REMARK 924 INTRA-LIGAND FREE ENERGY PREDICTED BY IDOCK:    0.22 KCAL/MOL
REMARK 927      BINDING AFFINITY PREDICTED BY RF-SCORE:    0.00 PKD
ROOT
HETATM    1  C   UNL     1      -6.496   3.811  69.530  1.00  0.00    -0.033 C  
HETATM    2  C   UNL     1      -7.715   3.812  70.434  1.00  0.00    -0.047 C  
ENDROOT
BRANCH   2   3
HETATM    3  O   UNL     1      -7.254   3.764  71.789  1.00  0.00    -0.049 OA 
BRANCH   3   4
HETATM    4  C   UNL     1      -7.856   2.810  72.564  1.00  0.00    -0.055 C  
HETATM    5  O   UNL     1      -8.213   1.707  72.172  1.00  0.00    -0.045 OA 
BRANCH   4   6
HETATM    6  C   UNL     1      -7.974   3.342  73.998  1.00  0.00    -0.070 C  
HETATM    7  N   UNL     1      -6.933   4.374  74.216  1.00  0.00    -0.068 NA 
HETATM    8  H2  UNL     1      -6.972   5.119  73.521  1.00  0.00     0.000 HD 
HETATM    9  H1  UNL     1      -7.012   4.728  75.170  1.00  0.00     0.000 HD 
BRANCH   6  10
HETATM   10  C   UNL     1      -9.393   3.893  74.263  1.00  0.00    -0.115 C  
BRANCH  10  11
HETATM   11  C   UNL     1      -9.813   5.127  73.474  1.00  0.00    -0.170 A  
HETATM   12  C   UNL     1     -10.386   5.070  72.200  1.00  0.00    -0.276 A  
HETATM   13  C   UNL     1     -10.733   6.255  71.505  1.00  0.00    -0.292 A  
HETATM   14  C   UNL     1     -10.518   7.542  72.043  1.00  0.00    -0.245 A  
HETATM   15  C   UNL     1     -10.014   7.565  73.356  1.00  0.00    -0.378 A  
HETATM   16  C   UNL     1      -9.664   6.392  74.049  1.00  0.00    -0.246 A  
BRANCH  14  17
HETATM   17  C   UNL     1     -10.711   8.796  71.233  1.00  0.00    -0.269 A  
HETATM   18  N   UNL     1     -11.982   9.236  71.085  1.00  0.00    -0.307 NA 
HETATM   19  C   UNL     1     -12.205  10.240  70.226  1.00  0.00    -0.221 A  
HETATM   20  N   UNL     1     -11.290  10.812  69.434  1.00  0.00    -0.261 NA 
HETATM   21  N   UNL     1     -13.508  10.669  70.076  1.00  0.00    -0.076 NA 
HETATM   22  H1  UNL     1     -13.678  11.433  69.422  1.00  0.00     0.000 HD 
HETATM   23  C   UNL     1     -10.039  10.378  69.609  1.00  0.00    -0.190 A  
HETATM   24  H2  UNL     1     -14.272  10.239  70.599  1.00  0.00     0.000 HD 
HETATM   25  C   UNL     1      -9.687   9.410  70.529  1.00  0.00    -0.331 A  
BRANCH  23  26
HETATM   26  O   UNL     1      -9.037  10.786  68.746  1.00  0.00    -0.165 OA 
BRANCH  26  27
HETATM   27  C   UNL     1      -7.993   9.833  68.430  1.00  0.00    -0.089 C  
HETATM   28  C   UNL     1      -7.051   9.433  69.594  1.00  0.00    -0.064 C  
HETATM   29  F   UNL     1      -7.180  10.196  70.702  1.00  0.00    -0.148 F  
HETATM   30  F   UNL     1      -5.755   9.560  69.182  1.00  0.00    -0.036 F  
HETATM   31  F   UNL     1      -7.181   8.139  69.975  1.00  0.00    -0.052 F  
BRANCH  27  32
HETATM   32  C   UNL     1      -8.581   8.596  67.683  1.00  0.00    -0.136 A  
HETATM   33  C   UNL     1      -8.589   7.376  68.401  1.00  0.00    -0.124 A  
HETATM   34  C   UNL     1      -8.950   6.168  67.797  1.00  0.00    -0.115 A  
HETATM   35  C   UNL     1      -9.295   6.146  66.454  1.00  0.00    -0.152 A  
HETATM   36  C   UNL     1      -9.395   7.337  65.735  1.00  0.00     0.159 A  
HETATM   37 CL   UNL     1      -9.609   4.645  65.672  1.00  0.00    -0.176 Cl 
HETATM   38  C   UNL     1      -9.101   8.570  66.354  1.00  0.00    -0.184 A  
BRANCH  38  39
HETATM   39  N   UNL     1      -9.371   9.763  65.623  1.00  0.00    -0.208 NA 
HETATM   40  C   UNL     1      -8.556  10.475  64.761  1.00  0.00    -0.166 A  
HETATM   41  C   UNL     1      -9.212  11.656  64.489  1.00  0.00     0.138 A  
HETATM   42  C   UNL     1     -10.440  11.532  65.152  1.00  0.00    -0.286 A  
HETATM   43  N   UNL     1     -10.587  10.327  65.678  1.00  0.00    -0.067 NA 
HETATM   44  C   UNL     1     -11.523  12.528  65.353  1.00  0.00    -0.383 C  
ENDBRANCH  38  39
ENDBRANCH  27  32
ENDBRANCH  26  27
ENDBRANCH  23  26
ENDBRANCH  14  17
ENDBRANCH  10  11
ENDBRANCH   6  10
ENDBRANCH   4   6
ENDBRANCH   3   4
ENDBRANCH   2   3
TORSDOF 10
ENDMDL
MODEL      230
REMARK 921   NORMALIZED FREE ENERGY PREDICTED BY IDOCK:   -2.06 KCAL/MOL
REMARK 922        TOTAL FREE ENERGY PREDICTED BY IDOCK:   -5.60 KCAL/MOL
REMARK 923 INTER-LIGAND FREE ENERGY PREDICTED BY IDOCK:   -6.72 KCAL/MOL
REMARK 924 INTRA-LIGAND FREE ENERGY PREDICTED BY IDOCK:    1.13 KCAL/MOL
REMARK 927      BINDING AFFINITY PREDICTED BY RF-SCORE:    0.00 PKD
ROOT
HETATM    1  C   UNL     1      -9.286   3.147  68.969  1.00  0.00    -0.230 C  
HETATM    2  C   UNL     1      -8.194   2.834  67.961  1.00  0.00    -0.073 C  
ENDROOT
BRANCH   2   3
HETATM    3  O   UNL     1      -7.601   4.075  67.561  1.00  0.00    -0.068 OA 
BRANCH   3   4
HETATM    4  C   UNL     1      -6.369   3.956  66.977  1.00  0.00    -0.040 C  
HETATM    5  O   UNL     1      -5.487   3.192  67.343  1.00  0.00    -0.016 OA 
BRANCH   4   6
HETATM    6  C   UNL     1      -6.299   4.910  65.777  1.00  0.00    -0.035 C  
HETATM    7  N   UNL     1      -5.341   4.367  64.785  1.00  0.00    -0.013 NA 
HETATM    8  H2  UNL     1      -5.567   3.411  64.509  1.00  0.00     0.000 HD 
HETATM    9  H1  UNL     1      -5.294   5.001  63.988  1.00  0.00     0.000 HD 
BRANCH   6  10
HETATM   10  C   UNL     1      -7.701   5.123  65.165  1.00  0.00    -0.084 C  
BRANCH  10  11
HETATM   11  C   UNL     1      -8.316   6.509  65.315  1.00  0.00    -0.121 A  
HETATM   12  C   UNL     1      -9.270   6.828  66.286  1.00  0.00    -0.161 A  
HETATM   13  C   UNL     1      -9.824   8.130  66.361  1.00  0.00    -0.261 A  
HETATM   14  C   UNL     1      -9.460   9.163  65.470  1.00  0.00    -0.276 A  
HETATM   15  C   UNL     1      -8.441   8.834  64.557  1.00  0.00    -0.158 A  
HETATM   16  C   UNL     1      -7.890   7.543  64.476  1.00  0.00    -0.130 A  
BRANCH  14  17
HETATM   17  C   UNL     1     -10.182  10.483  65.429  1.00  0.00    -0.270 A  
HETATM   18  N   UNL     1     -10.643  10.888  64.223  1.00  0.00    -0.344 NA 
HETATM   19  C   UNL     1     -11.128  12.133  64.120  1.00  0.00    -0.364 A  
HETATM   20  N   UNL     1     -11.137  13.054  65.091  1.00  0.00    -0.287 NA 
HETATM   21  N   UNL     1     -11.582  12.536  62.881  1.00  0.00    -0.631 NA 
HETATM   22  H1  UNL     1     -11.951  13.484  62.802  1.00  0.00     0.000 HD 
HETATM   23  C   UNL     1     -10.697  12.629  66.278  1.00  0.00    -0.256 A  
HETATM   24  H2  UNL     1     -11.550  11.911  62.074  1.00  0.00     0.000 HD 
HETATM   25  C   UNL     1     -10.256  11.342  66.515  1.00  0.00    -0.269 A  
BRANCH  23  26
HETATM   26  O   UNL     1     -10.518  13.530  67.314  1.00  0.00    -0.246 OA 
BRANCH  26  27
HETATM   27  C   UNL     1      -9.823  14.766  67.018  1.00  0.00    -0.239 C  
HETATM   28  C   UNL     1     -10.709  15.986  66.662  1.00  0.00    -0.247 C  
HETATM   29  F   UNL     1     -12.010  15.686  66.450  1.00  0.00     0.151 F  
HETATM   30  F   UNL     1     -10.247  16.552  65.508  1.00  0.00    -0.337 F  
HETATM   31  F   UNL     1     -10.666  16.975  67.589  1.00  0.00    -0.325 F  
BRANCH  27  32
HETATM   32  C   UNL     1      -8.774  15.090  68.127  1.00  0.00    -0.165 A  
HETATM   33  C   UNL     1      -7.424  15.173  67.709  1.00  0.00    -0.179 A  
HETATM   34  C   UNL     1      -6.377  15.309  68.624  1.00  0.00    -0.087 A  
HETATM   35  C   UNL     1      -6.650  15.346  69.983  1.00  0.00    -0.101 A  
HETATM   36  C   UNL     1      -7.970  15.366  70.433  1.00  0.00     1.015 A  
HETATM   37 CL   UNL     1      -5.358  15.378  71.119  1.00  0.00    -0.100 Cl 
HETATM   38  C   UNL     1      -9.038  15.300  69.514  1.00  0.00    -0.187 A  
BRANCH  38  39
HETATM   39  N   UNL     1     -10.360  15.482  70.015  1.00  0.00    -0.310 NA 
HETATM   40  C   UNL     1     -11.521  15.821  69.342  1.00  0.00    -0.355 A  
HETATM   41  C   UNL     1     -12.470  16.079  70.307  1.00  0.00     0.042 A  
HETATM   42  C   UNL     1     -11.825  15.788  71.516  1.00  0.00    -0.446 A  
HETATM   43  N   UNL     1     -10.624  15.269  71.312  1.00  0.00     0.099 NA 
HETATM   44  C   UNL     1     -12.274  16.000  72.915  1.00  0.00    -0.621 C  
ENDBRANCH  38  39
ENDBRANCH  27  32
ENDBRANCH  26  27
ENDBRANCH  23  26
ENDBRANCH  14  17
ENDBRANCH  10  11
ENDBRANCH   6  10
ENDBRANCH   4   6
ENDBRANCH   3   4
ENDBRANCH   2   3
TORSDOF 10
ENDMDL
MODEL      231
REMARK 921   NORMALIZED FREE ENERGY PREDICTED BY IDOCK:   -1.90 KCAL/MOL
REMARK 922        TOTAL FREE ENERGY PREDICTED BY IDOCK:   -5.35 KCAL/MOL
REMARK 923 INTER-LIGAND FREE ENERGY PREDICTED BY IDOCK:   -3.29 KCAL/MOL
REMARK 924 INTRA-LIGAND FREE ENERGY PREDICTED BY IDOCK:   -2.06 KCAL/MOL
REMARK 927      BINDING AFFINITY PREDICTED BY RF-SCORE:    0.00 PKD
ROOT
HETATM    1  C   UNL     1     -10.347  19.747  66.262  1.00  0.00    -0.626 C  
HETATM    2  C   UNL     1      -9.610  18.903  67.286  1.00  0.00    -0.307 C  
ENDROOT
BRANCH   2   3
HETATM    3  O   UNL     1      -8.730  18.024  66.575  1.00  0.00    -0.260 OA 
BRANCH   3   4
HETATM    4  C   UNL     1      -7.541  17.775  67.206  1.00  0.00    -0.201 C  
HETATM    5  O   UNL     1      -7.042  18.480  68.072  1.00  0.00    -0.227 OA 
BRANCH   4   6
HETATM    6  C   UNL     1      -6.968  16.456  66.671  1.00  0.00    -0.097 C  
HETATM    7  N   UNL     1      -6.415  16.684  65.316  1.00  0.00     2.306 NA 
HETATM    8  H2  UNL     1      -5.730  17.441  65.298  1.00  0.00     0.000 HD 
HETATM    9  H1  UNL     1      -6.033  15.808  64.961  1.00  0.00     0.000 HD 
BRANCH   6  10
HETATM   10  C   UNL     1      -5.905  15.890  67.638  1.00  0.00    -0.171 C  
BRANCH  10  11
HETATM   11  C   UNL     1      -6.153  14.494  68.197  1.00  0.00    -0.146 A  
HETATM   12  C   UNL     1      -6.239  13.348  67.400  1.00  0.00     0.033 A  
HETATM   13  C   UNL     1      -6.497  12.080  67.976  1.00  0.00    -0.061 A  
HETATM   14  C   UNL     1      -6.687  11.900  69.364  1.00  0.00    -0.081 A  
HETATM   15  C   UNL     1      -6.516  13.057  70.146  1.00  0.00     0.157 A  
HETATM   16  C   UNL     1      -6.264  14.319  69.579  1.00  0.00    -0.122 A  
BRANCH  14  17
HETATM   17  C   UNL     1      -7.145  10.592  69.951  1.00  0.00    -0.145 A  
HETATM   18  N   UNL     1      -6.191   9.801  70.495  1.00  0.00    -0.075 NA 
HETATM   19  C   UNL     1      -6.536   8.559  70.861  1.00  0.00    -0.044 A  
HETATM   20  N   UNL     1      -7.733   7.991  70.674  1.00  0.00    -0.086 NA 
HETATM   21  N   UNL     1      -5.550   7.760  71.402  1.00  0.00    -0.034 NA 
HETATM   22  H1  UNL     1      -5.812   6.815  71.681  1.00  0.00     0.000 HD 
HETATM   23  C   UNL     1      -8.666   8.792  70.155  1.00  0.00    -0.149 A  
HETATM   24  H2  UNL     1      -4.595   8.101  71.519  1.00  0.00     0.000 HD 
HETATM   25  C   UNL     1      -8.440  10.114  69.822  1.00  0.00    -0.147 A  
BRANCH  23  26
HETATM   26  O   UNL     1      -9.893   8.275  69.778  1.00  0.00    -0.182 OA 
BRANCH  26  27
HETATM   27  C   UNL     1      -9.959   7.542  68.530  1.00  0.00    -0.168 C  
HETATM   28  C   UNL     1     -11.186   6.615  68.340  1.00  0.00    -0.125 C  
HETATM   29  F   UNL     1     -11.924   6.433  69.457  1.00  0.00    -0.441 F  
HETATM   30  F   UNL     1     -10.755   5.379  67.952  1.00  0.00    -0.247 F  
HETATM   31  F   UNL     1     -12.028   7.026  67.360  1.00  0.00     0.357 F  
BRANCH  27  32
HETATM   32  C   UNL     1      -9.735   8.496  67.315  1.00  0.00    -0.239 A  
HETATM   33  C   UNL     1     -10.659   9.559  67.175  1.00  0.00    -0.295 A  
HETATM   34  C   UNL     1     -10.659  10.392  66.053  1.00  0.00    -0.136 A  
HETATM   35  C   UNL     1      -9.746  10.173  65.033  1.00  0.00    -0.318 A  
HETATM   36  C   UNL     1      -8.756   9.200  65.174  1.00  0.00    -0.228 A  
HETATM   37 CL   UNL     1      -9.828  11.108  63.590  1.00  0.00    -0.343 Cl 
HETATM   38  C   UNL     1      -8.704   8.399  66.334  1.00  0.00    -0.139 A  
BRANCH  38  39
HETATM   39  N   UNL     1      -7.583   7.534  66.495  1.00  0.00    -0.087 NA 
HETATM   40  C   UNL     1      -6.399   7.739  67.180  1.00  0.00    -0.055 A  
HETATM   41  C   UNL     1      -5.569   6.690  66.850  1.00  0.00    -0.013 A  
HETATM   42  C   UNL     1      -6.358   5.864  66.039  1.00  0.00    -0.042 A  
HETATM   43  N   UNL     1      -7.608   6.295  65.980  1.00  0.00    -0.085 NA 
HETATM   44  C   UNL     1      -5.990   4.655  65.260  1.00  0.00    -0.022 C  
ENDBRANCH  38  39
ENDBRANCH  27  32
ENDBRANCH  26  27
ENDBRANCH  23  26
ENDBRANCH  14  17
ENDBRANCH  10  11
ENDBRANCH   6  10
ENDBRANCH   4   6
ENDBRANCH   3   4
ENDBRANCH   2   3
TORSDOF 10
ENDMDL
MODEL      232
REMARK 921   NORMALIZED FREE ENERGY PREDICTED BY IDOCK:   -1.87 KCAL/MOL
REMARK 922        TOTAL FREE ENERGY PREDICTED BY IDOCK:   -5.30 KCAL/MOL
REMARK 923 INTER-LIGAND FREE ENERGY PREDICTED BY IDOCK:   -4.59 KCAL/MOL
REMARK 924 INTRA-LIGAND FREE ENERGY PREDICTED BY IDOCK:   -0.72 KCAL/MOL
REMARK 927      BINDING AFFINITY PREDICTED BY RF-SCORE:    0.00 PKD
ROOT
HETATM    1  C   UNL     1     -11.288  17.577  73.656  1.00  0.00     1.268 C  
HETATM    2  C   UNL     1     -11.424  16.085  73.410  1.00  0.00     0.454 C  
ENDROOT
BRANCH   2   3
HETATM    3  O   UNL     1     -12.810  15.747  73.535  1.00  0.00    -0.483 OA 
BRANCH   3   4
HETATM    4  C   UNL     1     -13.268  14.861  72.598  1.00  0.00    -0.441 C  
HETATM    5  O   UNL     1     -14.408  14.419  72.543  1.00  0.00    -0.514 OA 
BRANCH   4   6
HETATM    6  C   UNL     1     -12.129  14.549  71.618  1.00  0.00    -0.306 C  
HETATM    7  N   UNL     1     -11.794  13.109  71.711  1.00  0.00     0.659 NA 
HETATM    8  H2  UNL     1     -12.606  12.510  71.566  1.00  0.00     0.000 HD 
HETATM    9  H1  UNL     1     -11.037  12.902  71.060  1.00  0.00     0.000 HD 
BRANCH   6  10
HETATM   10  C   UNL     1     -12.518  14.956  70.179  1.00  0.00    -0.353 C  
BRANCH  10  11
HETATM   11  C   UNL     1     -11.773  14.269  69.042  1.00  0.00    -0.352 A  
HETATM   12  C   UNL     1     -12.201  14.295  67.712  1.00  0.00    -0.199 A  
HETATM   13  C   UNL     1     -11.478  13.615  66.701  1.00  0.00    -0.365 A  
HETATM   14  C   UNL     1     -10.306  12.874  66.972  1.00  0.00    -0.245 A  
HETATM   15  C   UNL     1      -9.857  12.933  68.304  1.00  0.00    -0.228 A  
HETATM   16  C   UNL     1     -10.574  13.603  69.312  1.00  0.00     0.008 A  
BRANCH  14  17
HETATM   17  C   UNL     1      -9.648  12.001  65.938  1.00  0.00    -0.223 A  
HETATM   18  N   UNL     1     -10.134  12.079  64.677  1.00  0.00    -0.272 NA 
HETATM   19  C   UNL     1      -9.694  11.189  63.777  1.00  0.00    -0.301 A  
HETATM   20  N   UNL     1      -8.861  10.171  64.023  1.00  0.00    -0.207 NA 
HETATM   21  N   UNL     1     -10.209  11.272  62.499  1.00  0.00    -0.449 NA 
HETATM   22  H1  UNL     1      -9.874  10.595  61.814  1.00  0.00     0.000 HD 
HETATM   23  C   UNL     1      -8.377  10.124  65.267  1.00  0.00    -0.159 A  
HETATM   24  H2  UNL     1     -10.897  11.983  62.249  1.00  0.00     0.000 HD 
HETATM   25  C   UNL     1      -8.697  11.042  66.248  1.00  0.00    -0.178 A  
BRANCH  23  26
HETATM   26  O   UNL     1      -7.629   9.035  65.679  1.00  0.00    -0.085 OA 
BRANCH  26  27
HETATM   27  C   UNL     1      -7.474   7.935  64.748  1.00  0.00    -0.095 C  
HETATM   28  C   UNL     1      -6.141   7.883  63.960  1.00  0.00    -0.057 C  
HETATM   29  F   UNL     1      -5.385   8.997  64.071  1.00  0.00    -0.056 F  
HETATM   30  F   UNL     1      -6.415   7.730  62.631  1.00  0.00    -0.071 F  
HETATM   31  F   UNL     1      -5.358   6.827  64.289  1.00  0.00    -0.024 F  
BRANCH  27  32
HETATM   32  C   UNL     1      -7.817   6.577  65.436  1.00  0.00    -0.106 A  
HETATM   33  C   UNL     1      -8.132   5.499  64.574  1.00  0.00    -0.127 A  
HETATM   34  C   UNL     1      -8.599   4.276  65.063  1.00  0.00    -0.124 A  
HETATM   35  C   UNL     1      -8.780   4.105  66.427  1.00  0.00    -0.115 A  
HETATM   36  C   UNL     1      -8.390   5.104  67.318  1.00  0.00    -0.106 A  
HETATM   37 CL   UNL     1      -9.481   2.650  67.024  1.00  0.00    -0.077 Cl 
HETATM   38  C   UNL     1      -7.852   6.317  66.839  1.00  0.00    -0.104 A  
BRANCH  38  39
HETATM   39  N   UNL     1      -7.325   7.235  67.793  1.00  0.00    -0.091 NA 
HETATM   40  C   UNL     1      -6.012   7.586  68.051  1.00  0.00    -0.035 A  
HETATM   41  C   UNL     1      -6.028   8.342  69.203  1.00  0.00    -0.042 A  
HETATM   42  C   UNL     1      -7.388   8.468  69.516  1.00  0.00    -0.065 A  
HETATM   43  N   UNL     1      -8.154   7.948  68.570  1.00  0.00    -0.121 NA 
HETATM   44  C   UNL     1      -8.043   9.050  70.715  1.00  0.00    -0.194 C  
ENDBRANCH  38  39
ENDBRANCH  27  32
ENDBRANCH  26  27
ENDBRANCH  23  26
ENDBRANCH  14  17
ENDBRANCH  10  11
ENDBRANCH   6  10
ENDBRANCH   4   6
ENDBRANCH   3   4
ENDBRANCH   2   3
TORSDOF 10
ENDMDL
MODEL      233
REMARK 921   NORMALIZED FREE ENERGY PREDICTED BY IDOCK:   -1.80 KCAL/MOL
REMARK 922        TOTAL FREE ENERGY PREDICTED BY IDOCK:   -5.19 KCAL/MOL
REMARK 923 INTER-LIGAND FREE ENERGY PREDICTED BY IDOCK:   -6.28 KCAL/MOL
REMARK 924 INTRA-LIGAND FREE ENERGY PREDICTED BY IDOCK:    1.09 KCAL/MOL
REMARK 927      BINDING AFFINITY PREDICTED BY RF-SCORE:    0.00 PKD
ROOT
HETATM    1  C   UNL     1     -11.099  17.349  66.700  1.00  0.00     0.408 C  
HETATM    2  C   UNL     1     -10.728  16.729  68.035  1.00  0.00    -0.355 C  
ENDROOT
BRANCH   2   3
HETATM    3  O   UNL     1      -9.873  15.609  67.773  1.00  0.00    -0.219 OA 
BRANCH   3   4
HETATM    4  C   UNL     1      -9.989  15.086  66.514  1.00  0.00    -0.263 C  
HETATM    5  O   UNL     1      -9.613  15.634  65.486  1.00  0.00    -0.307 OA 
BRANCH   4   6
HETATM    6  C   UNL     1     -10.630  13.696  66.615  1.00  0.00    -0.277 C  
HETATM    7  N   UNL     1     -12.104  13.839  66.558  1.00  0.00    -0.436 NA 
HETATM    8  H2  UNL     1     -12.413  14.351  65.731  1.00  0.00     0.000 HD 
HETATM    9  H1  UNL     1     -12.530  12.915  66.625  1.00  0.00     0.000 HD 
BRANCH   6  10
HETATM   10  C   UNL     1     -10.100  12.766  65.502  1.00  0.00    -0.278 C  
BRANCH  10  11
HETATM   11  C   UNL     1      -9.423  11.475  65.946  1.00  0.00    -0.251 A  
HETATM   12  C   UNL     1     -10.109  10.403  66.524  1.00  0.00    -0.285 A  
HETATM   13  C   UNL     1      -9.419   9.237  66.939  1.00  0.00    -0.211 A  
HETATM   14  C   UNL     1      -8.021   9.092  66.804  1.00  0.00    -0.104 A  
HETATM   15  C   UNL     1      -7.371  10.153  66.146  1.00  0.00    -0.115 A  
HETATM   16  C   UNL     1      -8.050  11.314  65.737  1.00  0.00     0.111 A  
BRANCH  14  17
HETATM   17  C   UNL     1      -7.268   7.940  67.413  1.00  0.00    -0.088 A  
HETATM   18  N   UNL     1      -6.508   7.198  66.575  1.00  0.00    -0.050 NA 
HETATM   19  C   UNL     1      -5.971   6.065  67.048  1.00  0.00    -0.018 A  
HETATM   20  N   UNL     1      -6.175   5.551  68.266  1.00  0.00    -0.029 NA 
HETATM   21  N   UNL     1      -5.209   5.312  66.178  1.00  0.00    -0.008 NA 
HETATM   22  H1  UNL     1      -4.801   4.450  66.538  1.00  0.00     0.000 HD 
HETATM   23  C   UNL     1      -6.910   6.307  69.085  1.00  0.00    -0.062 A  
HETATM   24  H2  UNL     1      -5.060   5.607  65.212  1.00  0.00     0.000 HD 
HETATM   25  C   UNL     1      -7.438   7.532  68.727  1.00  0.00    -0.097 A  
BRANCH  23  26
HETATM   26  O   UNL     1      -7.312   5.811  70.313  1.00  0.00    -0.072 OA 
BRANCH  26  27
HETATM   27  C   UNL     1      -8.230   4.691  70.319  1.00  0.00    -0.075 C  
HETATM   28  C   UNL     1      -9.018   4.453  71.632  1.00  0.00    -0.124 C  
HETATM   29  F   UNL     1      -8.580   5.181  72.683  1.00  0.00    -0.114 F  
HETATM   30  F   UNL     1      -8.898   3.140  71.991  1.00  0.00    -0.086 F  
HETATM   31  F   UNL     1     -10.350   4.672  71.512  1.00  0.00    -0.260 F  
BRANCH  27  32
HETATM   32  C   UNL     1      -9.157   4.729  69.063  1.00  0.00    -0.157 A  
HETATM   33  C   UNL     1      -8.990   3.679  68.129  1.00  0.00    -0.171 A  
HETATM   34  C   UNL     1      -9.650   3.678  66.897  1.00  0.00    -0.180 A  
HETATM   35  C   UNL     1     -10.480   4.736  66.559  1.00  0.00    -0.204 A  
HETATM   36  C   UNL     1     -10.749   5.741  67.488  1.00  0.00    -0.320 A  
HETATM   37 CL   UNL     1     -11.188   4.806  64.992  1.00  0.00     0.119 Cl 
HETATM   38  C   UNL     1     -10.142   5.716  68.762  1.00  0.00    -0.186 A  
BRANCH  38  39
HETATM   39  N   UNL     1     -10.573   6.676  69.723  1.00  0.00    -0.213 NA 
HETATM   40  C   UNL     1     -11.582   6.593  70.665  1.00  0.00    -0.382 A  
HETATM   41  C   UNL     1     -11.730   7.856  71.193  1.00  0.00    -0.306 A  
HETATM   42  C   UNL     1     -10.720   8.609  70.581  1.00  0.00    -0.222 A  
HETATM   43  N   UNL     1      -9.931   7.849  69.838  1.00  0.00    -0.189 NA 
HETATM   44  C   UNL     1     -10.451  10.069  70.631  1.00  0.00    -0.211 C  
ENDBRANCH  38  39
ENDBRANCH  27  32
ENDBRANCH  26  27
ENDBRANCH  23  26
ENDBRANCH  14  17
ENDBRANCH  10  11
ENDBRANCH   6  10
ENDBRANCH   4   6
ENDBRANCH   3   4
ENDBRANCH   2   3
TORSDOF 10
ENDMDL
MODEL      234
REMARK 921   NORMALIZED FREE ENERGY PREDICTED BY IDOCK:   -1.78 KCAL/MOL
REMARK 922        TOTAL FREE ENERGY PREDICTED BY IDOCK:   -5.16 KCAL/MOL
REMARK 923 INTER-LIGAND FREE ENERGY PREDICTED BY IDOCK:   -3.79 KCAL/MOL
REMARK 924 INTRA-LIGAND FREE ENERGY PREDICTED BY IDOCK:   -1.37 KCAL/MOL
REMARK 927      BINDING AFFINITY PREDICTED BY RF-SCORE:    0.00 PKD
ROOT
HETATM    1  C   UNL     1     -11.013  18.000  73.551  1.00  0.00     2.306 C  
HETATM    2  C   UNL     1     -11.385  16.578  73.169  1.00  0.00     0.925 C  
ENDROOT
BRANCH   2   3
HETATM    3  O   UNL     1     -12.808  16.524  73.019  1.00  0.00    -0.235 OA 
BRANCH   3   4
HETATM    4  C   UNL     1     -13.250  15.630  72.082  1.00  0.00    -0.461 C  
HETATM    5  O   UNL     1     -14.401  15.226  71.981  1.00  0.00    -0.526 OA 
BRANCH   4   6
HETATM    6  C   UNL     1     -12.075  15.253  71.169  1.00  0.00    -0.348 C  
HETATM    7  N   UNL     1     -11.721  13.833  71.401  1.00  0.00    -0.139 NA 
HETATM    8  H2  UNL     1     -12.520  13.209  71.284  1.00  0.00     0.000 HD 
HETATM    9  H1  UNL     1     -10.940  13.583  70.794  1.00  0.00     0.000 HD 
BRANCH   6  10
HETATM   10  C   UNL     1     -12.423  15.525  69.689  1.00  0.00    -0.137 C  
BRANCH  10  11
HETATM   11  C   UNL     1     -11.697  14.686  68.645  1.00  0.00    -0.362 A  
HETATM   12  C   UNL     1     -12.272  14.296  67.432  1.00  0.00    -0.267 A  
HETATM   13  C   UNL     1     -11.554  13.495  66.510  1.00  0.00    -0.391 A  
HETATM   14  C   UNL     1     -10.240  13.043  66.759  1.00  0.00    -0.246 A  
HETATM   15  C   UNL     1      -9.660  13.517  67.950  1.00  0.00    -0.218 A  
HETATM   16  C   UNL     1     -10.370  14.309  68.870  1.00  0.00    -0.218 A  
BRANCH  14  17
HETATM   17  C   UNL     1      -9.551  12.042  65.871  1.00  0.00    -0.223 A  
HETATM   18  N   UNL     1     -10.139  11.776  64.682  1.00  0.00    -0.264 NA 
HETATM   19  C   UNL     1      -9.653  10.764  63.950  1.00  0.00    -0.293 A  
HETATM   20  N   UNL     1      -8.673   9.932  64.318  1.00  0.00    -0.191 NA 
HETATM   21  N   UNL     1     -10.272  10.498  62.745  1.00  0.00    -0.697 NA 
HETATM   22  H1  UNL     1      -9.902   9.727  62.189  1.00  0.00     0.000 HD 
HETATM   23  C   UNL     1      -8.091  10.222  65.485  1.00  0.00    -0.156 A  
HETATM   24  H2  UNL     1     -11.068  11.049  62.424  1.00  0.00     0.000 HD 
HETATM   25  C   UNL     1      -8.457  11.293  66.277  1.00  0.00    -0.156 A  
BRANCH  23  26
HETATM   26  O   UNL     1      -7.172   9.347  66.038  1.00  0.00    -0.089 OA 
BRANCH  26  27
HETATM   27  C   UNL     1      -7.316   7.938  65.733  1.00  0.00    -0.076 C  
HETATM   28  C   UNL     1      -6.376   7.372  64.639  1.00  0.00    -0.037 C  
HETATM   29  F   UNL     1      -5.697   8.313  63.947  1.00  0.00    -0.059 F  
HETATM   30  F   UNL     1      -7.120   6.678  63.728  1.00  0.00    -0.045 F  
HETATM   31  F   UNL     1      -5.469   6.483  65.113  1.00  0.00    -0.019 F  
BRANCH  27  32
HETATM   32  C   UNL     1      -7.299   7.085  67.039  1.00  0.00    -0.086 A  
HETATM   33  C   UNL     1      -6.825   7.733  68.205  1.00  0.00    -0.068 A  
HETATM   34  C   UNL     1      -6.619   7.040  69.401  1.00  0.00    -0.045 A  
HETATM   35  C   UNL     1      -6.865   5.677  69.458  1.00  0.00    -0.061 A  
HETATM   36  C   UNL     1      -7.425   5.019  68.364  1.00  0.00    -0.074 A  
HETATM   37 CL   UNL     1      -6.487   4.795  70.887  1.00  0.00    -0.029 Cl 
HETATM   38  C   UNL     1      -7.702   5.723  67.173  1.00  0.00    -0.101 A  
BRANCH  38  39
HETATM   39  N   UNL     1      -8.416   5.039  66.146  1.00  0.00    -0.113 NA 
HETATM   40  C   UNL     1      -9.728   5.188  65.732  1.00  0.00    -0.105 A  
HETATM   41  C   UNL     1      -9.984   4.152  64.862  1.00  0.00    -0.208 A  
HETATM   42  C   UNL     1      -8.757   3.486  64.744  1.00  0.00    -0.110 A  
HETATM   43  N   UNL     1      -7.792   4.132  65.381  1.00  0.00    -0.086 NA 
HETATM   44  C   UNL     1      -8.422   2.211  64.061  1.00  0.00    -0.082 C  
ENDBRANCH  38  39
ENDBRANCH  27  32
ENDBRANCH  26  27
ENDBRANCH  23  26
ENDBRANCH  14  17
ENDBRANCH  10  11
ENDBRANCH   6  10
ENDBRANCH   4   6
ENDBRANCH   3   4
ENDBRANCH   2   3
TORSDOF 10
ENDMDL
MODEL      235
REMARK 921   NORMALIZED FREE ENERGY PREDICTED BY IDOCK:   -1.74 KCAL/MOL
REMARK 922        TOTAL FREE ENERGY PREDICTED BY IDOCK:   -5.10 KCAL/MOL
REMARK 923 INTER-LIGAND FREE ENERGY PREDICTED BY IDOCK:   -6.58 KCAL/MOL
REMARK 924 INTRA-LIGAND FREE ENERGY PREDICTED BY IDOCK:    1.48 KCAL/MOL
REMARK 927      BINDING AFFINITY PREDICTED BY RF-SCORE:    0.00 PKD
ROOT
HETATM    1  C   UNL     1      -9.201  19.495  69.365  1.00  0.00     0.024 C  
HETATM    2  C   UNL     1      -8.004  19.663  68.447  1.00  0.00    -0.322 C  
ENDROOT
BRANCH   2   3
HETATM    3  O   UNL     1      -8.498  19.842  67.114  1.00  0.00    -0.293 OA 
BRANCH   3   4
HETATM    4  C   UNL     1      -8.619  18.686  66.391  1.00  0.00    -0.271 C  
HETATM    5  O   UNL     1      -7.766  18.231  65.641  1.00  0.00    -0.529 OA 
BRANCH   4   6
HETATM    6  C   UNL     1      -9.980  18.049  66.705  1.00  0.00    -0.362 C  
HETATM    7  N   UNL     1     -11.030  19.092  66.626  1.00  0.00    -0.198 NA 
HETATM    8  H2  UNL     1     -11.027  19.580  65.730  1.00  0.00     0.000 HD 
HETATM    9  H1  UNL     1     -11.934  18.668  66.835  1.00  0.00     0.000 HD 
BRANCH   6  10
HETATM   10  C   UNL     1     -10.266  16.871  65.748  1.00  0.00    -0.287 C  
BRANCH  10  11
HETATM   11  C   UNL     1      -9.726  15.506  66.153  1.00  0.00    -0.348 A  
HETATM   12  C   UNL     1      -8.453  15.310  66.697  1.00  0.00    -0.264 A  
HETATM   13  C   UNL     1      -7.997  14.011  67.032  1.00  0.00     0.028 A  
HETATM   14  C   UNL     1      -8.783  12.855  66.832  1.00  0.00    -0.164 A  
HETATM   15  C   UNL     1     -10.086  13.092  66.360  1.00  0.00    -0.279 A  
HETATM   16  C   UNL     1     -10.543  14.379  66.021  1.00  0.00    -0.304 A  
BRANCH  14  17
HETATM   17  C   UNL     1      -8.231  11.466  67.010  1.00  0.00    -0.160 A  
HETATM   18  N   UNL     1      -6.933  11.278  66.675  1.00  0.00    -0.142 NA 
HETATM   19  C   UNL     1      -6.464  10.023  66.650  1.00  0.00    -0.072 A  
HETATM   20  N   UNL     1      -7.182   8.914  66.859  1.00  0.00    -0.082 NA 
HETATM   21  N   UNL     1      -5.143   9.847  66.293  1.00  0.00    -0.038 NA 
HETATM   22  H1  UNL     1      -4.785   8.892  66.274  1.00  0.00     0.000 HD 
HETATM   23  C   UNL     1      -8.455   9.120  67.208  1.00  0.00    -0.121 A  
HETATM   24  H2  UNL     1      -4.546  10.641  66.058  1.00  0.00     0.000 HD 
HETATM   25  C   UNL     1      -9.016  10.374  67.348  1.00  0.00    -0.140 A  
BRANCH  23  26
HETATM   26  O   UNL     1      -9.329   8.052  67.302  1.00  0.00    -0.137 OA 
BRANCH  26  27
HETATM   27  C   UNL     1      -8.852   6.847  67.950  1.00  0.00    -0.123 C  
HETATM   28  C   UNL     1      -7.563   6.216  67.366  1.00  0.00    -0.090 C  
HETATM   29  F   UNL     1      -7.173   6.741  66.183  1.00  0.00    -0.062 F  
HETATM   30  F   UNL     1      -7.777   4.884  67.150  1.00  0.00    -0.087 F  
HETATM   31  F   UNL     1      -6.501   6.277  68.207  1.00  0.00    -0.042 F  
BRANCH  27  32
HETATM   32  C   UNL     1      -8.776   7.044  69.496  1.00  0.00    -0.134 A  
HETATM   33  C   UNL     1      -8.999   8.358  69.973  1.00  0.00    -0.138 A  
HETATM   34  C   UNL     1      -8.813   8.696  71.316  1.00  0.00    -0.263 A  
HETATM   35  C   UNL     1      -8.380   7.733  72.215  1.00  0.00    -0.119 A  
HETATM   36  C   UNL     1      -8.242   6.406  71.809  1.00  0.00    -0.113 A  
HETATM   37 CL   UNL     1      -8.021   8.174  73.839  1.00  0.00    -0.261 Cl 
HETATM   38  C   UNL     1      -8.495   6.040  70.471  1.00  0.00    -0.132 A  
BRANCH  38  39
HETATM   39  N   UNL     1      -8.493   4.651  70.149  1.00  0.00    -0.074 NA 
HETATM   40  C   UNL     1      -9.535   3.835  69.745  1.00  0.00    -0.185 A  
HETATM   41  C   UNL     1      -9.053   2.544  69.771  1.00  0.00    -0.183 A  
HETATM   42  C   UNL     1      -7.702   2.684  70.113  1.00  0.00    -0.043 A  
HETATM   43  N   UNL     1      -7.344   3.958  70.165  1.00  0.00    -0.042 NA 
HETATM   44  C   UNL     1      -6.685   1.652  70.434  1.00  0.00    -0.028 C  
ENDBRANCH  38  39
ENDBRANCH  27  32
ENDBRANCH  26  27
ENDBRANCH  23  26
ENDBRANCH  14  17
ENDBRANCH  10  11
ENDBRANCH   6  10
ENDBRANCH   4   6
ENDBRANCH   3   4
ENDBRANCH   2   3
TORSDOF 10
ENDMDL
MODEL      236
REMARK 921   NORMALIZED FREE ENERGY PREDICTED BY IDOCK:   -1.54 KCAL/MOL
REMARK 922        TOTAL FREE ENERGY PREDICTED BY IDOCK:   -4.77 KCAL/MOL
REMARK 923 INTER-LIGAND FREE ENERGY PREDICTED BY IDOCK:   -4.69 KCAL/MOL
REMARK 924 INTRA-LIGAND FREE ENERGY PREDICTED BY IDOCK:   -0.09 KCAL/MOL
REMARK 927      BINDING AFFINITY PREDICTED BY RF-SCORE:    0.00 PKD
ROOT
HETATM    1  C   UNL     1     -11.464  16.515  66.329  1.00  0.00     0.822 C  
HETATM    2  C   UNL     1     -10.980  15.143  66.762  1.00  0.00    -0.321 C  
ENDROOT
BRANCH   2   3
HETATM    3  O   UNL     1      -9.617  15.007  66.343  1.00  0.00    -0.253 OA 
BRANCH   3   4
HETATM    4  C   UNL     1      -8.851  14.203  67.143  1.00  0.00    -0.229 C  
HETATM    5  O   UNL     1      -8.115  13.310  66.746  1.00  0.00     0.017 OA 
BRANCH   4   6
HETATM    6  C   UNL     1      -9.046  14.632  68.603  1.00  0.00    -0.189 C  
HETATM    7  N   UNL     1      -8.907  16.104  68.697  1.00  0.00    -0.207 NA 
HETATM    8  H2  UNL     1      -9.536  16.595  68.060  1.00  0.00     0.000 HD 
HETATM    9  H1  UNL     1      -9.037  16.389  69.667  1.00  0.00     0.000 HD 
BRANCH   6  10
HETATM   10  C   UNL     1     -10.413  14.149  69.138  1.00  0.00    -0.143 C  
BRANCH  10  11
HETATM   11  C   UNL     1     -10.596  12.646  69.304  1.00  0.00     0.112 A  
HETATM   12  C   UNL     1     -11.780  12.059  69.762  1.00  0.00    -0.390 A  
HETATM   13  C   UNL     1     -11.882  10.654  69.919  1.00  0.00    -0.392 A  
HETATM   14  C   UNL     1     -10.811   9.778  69.636  1.00  0.00    -0.274 A  
HETATM   15  C   UNL     1      -9.663  10.390  69.101  1.00  0.00    -0.234 A  
HETATM   16  C   UNL     1      -9.555  11.784  68.948  1.00  0.00     0.030 A  
BRANCH  14  17
HETATM   17  C   UNL     1     -10.857   8.314  69.980  1.00  0.00    -0.232 A  
HETATM   18  N   UNL     1     -11.556   7.970  71.087  1.00  0.00    -0.280 NA 
HETATM   19  C   UNL     1     -11.467   6.705  71.521  1.00  0.00    -0.297 A  
HETATM   20  N   UNL     1     -10.687   5.751  70.999  1.00  0.00    -0.259 NA 
HETATM   21  N   UNL     1     -12.174   6.372  72.658  1.00  0.00    -0.505 NA 
HETATM   22  H1  UNL     1     -12.107   5.410  72.988  1.00  0.00     0.000 HD 
HETATM   23  C   UNL     1     -10.021   6.103  69.896  1.00  0.00    -0.172 A  
HETATM   24  H2  UNL     1     -12.743   7.063  73.150  1.00  0.00     0.000 HD 
HETATM   25  C   UNL     1     -10.110   7.354  69.316  1.00  0.00    -0.186 A  
BRANCH  23  26
HETATM   26  O   UNL     1      -9.073   5.252  69.357  1.00  0.00    -0.101 OA 
BRANCH  26  27
HETATM   27  C   UNL     1      -7.940   5.851  68.679  1.00  0.00    -0.103 C  
HETATM   28  C   UNL     1      -6.849   6.477  69.584  1.00  0.00    -0.065 C  
HETATM   29  F   UNL     1      -7.201   6.589  70.884  1.00  0.00    -0.064 F  
HETATM   30  F   UNL     1      -6.577   7.741  69.144  1.00  0.00    -0.037 F  
HETATM   31  F   UNL     1      -5.665   5.819  69.540  1.00  0.00    -0.012 F  
BRANCH  27  32
HETATM   32  C   UNL     1      -7.349   4.869  67.619  1.00  0.00    -0.078 A  
HETATM   33  C   UNL     1      -7.351   3.497  67.966  1.00  0.00    -0.054 A  
HETATM   34  C   UNL     1      -6.718   2.536  67.173  1.00  0.00    -0.040 A  
HETATM   35  C   UNL     1      -6.050   2.925  66.022  1.00  0.00    -0.024 A  
HETATM   36  C   UNL     1      -6.106   4.250  65.592  1.00  0.00    -0.027 A  
HETATM   37 CL   UNL     1      -5.157   1.767  65.114  1.00  0.00    -0.004 Cl 
HETATM   38  C   UNL     1      -6.802   5.217  66.348  1.00  0.00    -0.062 A  
BRANCH  38  39
HETATM   39  N   UNL     1      -6.960   6.516  65.784  1.00  0.00    -0.059 NA 
HETATM   40  C   UNL     1      -7.986   7.023  65.006  1.00  0.00    -0.129 A  
HETATM   41  C   UNL     1      -7.558   8.249  64.546  1.00  0.00    -0.108 A  
HETATM   42  C   UNL     1      -6.313   8.436  65.161  1.00  0.00    -0.052 A  
HETATM   43  N   UNL     1      -6.052   7.473  66.031  1.00  0.00    -0.037 NA 
HETATM   44  C   UNL     1      -5.296   9.498  64.958  1.00  0.00    -0.046 C  
ENDBRANCH  38  39
ENDBRANCH  27  32
ENDBRANCH  26  27
ENDBRANCH  23  26
ENDBRANCH  14  17
ENDBRANCH  10  11
ENDBRANCH   6  10
ENDBRANCH   4   6
ENDBRANCH   3   4
ENDBRANCH   2   3
TORSDOF 10
ENDMDL
MODEL      237
REMARK 921   NORMALIZED FREE ENERGY PREDICTED BY IDOCK:   -1.40 KCAL/MOL
REMARK 922        TOTAL FREE ENERGY PREDICTED BY IDOCK:   -4.57 KCAL/MOL
REMARK 923 INTER-LIGAND FREE ENERGY PREDICTED BY IDOCK:   -5.99 KCAL/MOL
REMARK 924 INTRA-LIGAND FREE ENERGY PREDICTED BY IDOCK:    1.42 KCAL/MOL
REMARK 927      BINDING AFFINITY PREDICTED BY RF-SCORE:    0.00 PKD
ROOT
HETATM    1  C   UNL     1      -9.831  15.706  65.024  1.00  0.00     0.156 C  
HETATM    2  C   UNL     1      -9.031  16.765  65.761  1.00  0.00     0.103 C  
ENDROOT
BRANCH   2   3
HETATM    3  O   UNL     1      -8.704  16.243  67.054  1.00  0.00    -0.175 OA 
BRANCH   3   4
HETATM    4  C   UNL     1      -8.499  17.193  68.018  1.00  0.00    -0.219 C  
HETATM    5  O   UNL     1      -7.600  17.172  68.847  1.00  0.00    -0.247 OA 
BRANCH   4   6
HETATM    6  C   UNL     1      -9.556  18.294  67.857  1.00  0.00    -0.289 C  
HETATM    7  N   UNL     1      -9.370  18.954  66.544  1.00  0.00    -0.327 NA 
HETATM    8  H2  UNL     1      -9.380  18.289  65.770  1.00  0.00     0.000 HD 
HETATM    9  H1  UNL     1     -10.073  19.685  66.437  1.00  0.00     0.000 HD 
BRANCH   6  10
HETATM   10  C   UNL     1     -10.979  17.713  68.012  1.00  0.00    -0.107 C  
BRANCH  10  11
HETATM   11  C   UNL     1     -11.086  16.260  68.460  1.00  0.00    -0.368 A  
HETATM   12  C   UNL     1     -10.357  15.725  69.526  1.00  0.00    -0.272 A  
HETATM   13  C   UNL     1     -10.481  14.359  69.880  1.00  0.00     0.212 A  
HETATM   14  C   UNL     1     -11.328  13.468  69.184  1.00  0.00    -0.333 A  
HETATM   15  C   UNL     1     -12.107  14.053  68.169  1.00  0.00    -0.307 A  
HETATM   16  C   UNL     1     -11.984  15.408  67.811  1.00  0.00     0.106 A  
BRANCH  14  17
HETATM   17  C   UNL     1     -11.317  11.985  69.438  1.00  0.00    -0.251 A  
HETATM   18  N   UNL     1     -12.444  11.449  69.964  1.00  0.00    -0.199 NA 
HETATM   19  C   UNL     1     -12.405  10.171  70.367  1.00  0.00    -0.190 A  
HETATM   20  N   UNL     1     -11.324   9.382  70.366  1.00  0.00    -0.254 NA 
HETATM   21  N   UNL     1     -13.557   9.643  70.913  1.00  0.00    -0.551 NA 
HETATM   22  H1  UNL     1     -13.527   8.671  71.220  1.00  0.00     0.000 HD 
HETATM   23  C   UNL     1     -10.228   9.922  69.826  1.00  0.00    -0.246 A  
HETATM   24  H2  UNL     1     -14.405  10.203  71.006  1.00  0.00     0.000 HD 
HETATM   25  C   UNL     1     -10.184  11.199  69.301  1.00  0.00    -0.110 A  
BRANCH  23  26
HETATM   26  O   UNL     1      -9.017   9.258  69.906  1.00  0.00    -0.153 OA 
BRANCH  26  27
HETATM   27  C   UNL     1      -8.472   8.704  68.683  1.00  0.00    -0.130 C  
HETATM   28  C   UNL     1      -7.063   9.200  68.271  1.00  0.00    -0.077 C  
HETATM   29  F   UNL     1      -6.616  10.258  68.982  1.00  0.00    -0.049 F  
HETATM   30  F   UNL     1      -7.094   9.594  66.963  1.00  0.00    -0.082 F  
HETATM   31  F   UNL     1      -6.110   8.238  68.333  1.00  0.00    -0.040 F  
BRANCH  27  32
HETATM   32  C   UNL     1      -8.582   7.147  68.685  1.00  0.00    -0.124 A  
HETATM   33  C   UNL     1      -8.810   6.534  67.430  1.00  0.00    -0.115 A  
HETATM   34  C   UNL     1      -9.075   5.166  67.316  1.00  0.00    -0.113 A  
HETATM   35  C   UNL     1      -9.137   4.379  68.455  1.00  0.00    -0.124 A  
HETATM   36  C   UNL     1      -8.822   4.922  69.701  1.00  0.00    -0.117 A  
HETATM   37 CL   UNL     1      -9.594   2.724  68.334  1.00  0.00    -0.193 Cl 
HETATM   38  C   UNL     1      -8.485   6.287  69.819  1.00  0.00    -0.126 A  
BRANCH  38  39
HETATM   39  N   UNL     1      -8.020   6.751  71.085  1.00  0.00    -0.102 NA 
HETATM   40  C   UNL     1      -6.736   7.065  71.494  1.00  0.00    -0.052 A  
HETATM   41  C   UNL     1      -6.796   7.254  72.857  1.00  0.00    -0.068 A  
HETATM   42  C   UNL     1      -8.156   7.122  73.167  1.00  0.00    -0.101 A  
HETATM   43  N   UNL     1      -8.892   6.994  72.074  1.00  0.00    -0.128 NA 
HETATM   44  C   UNL     1      -8.837   7.081  74.486  1.00  0.00    -0.227 C  
ENDBRANCH  38  39
ENDBRANCH  27  32
ENDBRANCH  26  27
ENDBRANCH  23  26
ENDBRANCH  14  17
ENDBRANCH  10  11
ENDBRANCH   6  10
ENDBRANCH   4   6
ENDBRANCH   3   4
ENDBRANCH   2   3
TORSDOF 10
ENDMDL
MODEL      238
REMARK 921   NORMALIZED FREE ENERGY PREDICTED BY IDOCK:   -1.16 KCAL/MOL
REMARK 922        TOTAL FREE ENERGY PREDICTED BY IDOCK:   -4.18 KCAL/MOL
REMARK 923 INTER-LIGAND FREE ENERGY PREDICTED BY IDOCK:   -3.15 KCAL/MOL
REMARK 924 INTRA-LIGAND FREE ENERGY PREDICTED BY IDOCK:   -1.03 KCAL/MOL
REMARK 927      BINDING AFFINITY PREDICTED BY RF-SCORE:    0.00 PKD
ROOT
HETATM    1  C   UNL     1     -10.417   5.621  72.451  1.00  0.00    -0.255 C  
HETATM    2  C   UNL     1     -10.660   4.494  71.463  1.00  0.00     0.119 C  
ENDROOT
BRANCH   2   3
HETATM    3  O   UNL     1      -9.946   4.806  70.261  1.00  0.00    -0.222 OA 
BRANCH   3   4
HETATM    4  C   UNL     1      -8.703   4.242  70.173  1.00  0.00    -0.074 C  
HETATM    5  O   UNL     1      -7.836   4.310  71.034  1.00  0.00    -0.064 OA 
BRANCH   4   6
HETATM    6  C   UNL     1      -8.597   3.488  68.840  1.00  0.00    -0.086 C  
HETATM    7  N   UNL     1      -9.908   3.538  68.153  1.00  0.00     0.013 NA 
HETATM    8  H2  UNL     1     -10.249   4.492  68.034  1.00  0.00     0.000 HD 
HETATM    9  H1  UNL     1      -9.837   3.037  67.267  1.00  0.00     0.000 HD 
BRANCH   6  10
HETATM   10  C   UNL     1      -7.468   4.078  67.967  1.00  0.00    -0.067 C  
BRANCH  10  11
HETATM   11  C   UNL     1      -7.731   5.432  67.320  1.00  0.00    -0.096 A  
HETATM   12  C   UNL     1      -7.030   6.596  67.652  1.00  0.00    -0.083 A  
HETATM   13  C   UNL     1      -7.338   7.832  67.033  1.00  0.00    -0.091 A  
HETATM   14  C   UNL     1      -8.359   7.965  66.066  1.00  0.00    -0.128 A  
HETATM   15  C   UNL     1      -8.991   6.764  65.696  1.00  0.00     0.019 A  
HETATM   16  C   UNL     1      -8.693   5.534  66.311  1.00  0.00    -0.128 A  
BRANCH  14  17
HETATM   17  C   UNL     1      -8.810   9.304  65.550  1.00  0.00    -0.187 A  
HETATM   18  N   UNL     1      -9.345   9.330  64.307  1.00  0.00     0.071 NA 
HETATM   19  C   UNL     1      -9.589  10.525  63.751  1.00  0.00    -0.311 A  
HETATM   20  N   UNL     1      -9.285  11.714  64.284  1.00  0.00     0.077 NA 
HETATM   21  N   UNL     1     -10.122  10.535  62.478  1.00  0.00    -0.752 NA 
HETATM   22  H1  UNL     1     -10.307  11.443  62.055  1.00  0.00     0.000 HD 
HETATM   23  C   UNL     1      -8.777  11.669  65.518  1.00  0.00     0.192 A  
HETATM   24  H2  UNL     1     -10.323   9.667  61.980  1.00  0.00     0.000 HD 
HETATM   25  C   UNL     1      -8.566  10.496  66.216  1.00  0.00    -0.151 A  
BRANCH  23  26
HETATM   26  O   UNL     1      -8.286  12.820  66.108  1.00  0.00     0.399 OA 
BRANCH  26  27
HETATM   27  C   UNL     1      -8.184  12.844  67.553  1.00  0.00    -0.184 C  
HETATM   28  C   UNL     1      -7.436  14.052  68.170  1.00  0.00    -0.131 C  
HETATM   29  F   UNL     1      -6.774  14.815  67.272  1.00  0.00    -0.203 F  
HETATM   30  F   UNL     1      -6.501  13.593  69.055  1.00  0.00    -0.084 F  
HETATM   31  F   UNL     1      -8.237  14.876  68.890  1.00  0.00    -0.138 F  
BRANCH  27  32
HETATM   32  C   UNL     1      -9.579  12.604  68.210  1.00  0.00    -0.208 A  
HETATM   33  C   UNL     1      -9.630  11.629  69.235  1.00  0.00     0.377 A  
HETATM   34  C   UNL     1     -10.840  11.216  69.799  1.00  0.00    -0.152 A  
HETATM   35  C   UNL     1     -12.033  11.753  69.339  1.00  0.00    -0.298 A  
HETATM   36  C   UNL     1     -12.023  12.786  68.402  1.00  0.00    -0.275 A  
HETATM   37 CL   UNL     1     -13.532  11.152  69.934  1.00  0.00     1.022 Cl 
HETATM   38  C   UNL     1     -10.802  13.260  67.877  1.00  0.00    -0.243 A  
BRANCH  38  39
HETATM   39  N   UNL     1     -10.840  14.417  67.045  1.00  0.00    -0.292 NA 
HETATM   40  C   UNL     1     -10.434  15.712  67.314  1.00  0.00    -0.292 A  
HETATM   41  C   UNL     1     -10.879  16.487  66.266  1.00  0.00    -0.037 A  
HETATM   42  C   UNL     1     -11.461  15.571  65.379  1.00  0.00    -0.046 A  
HETATM   43  N   UNL     1     -11.274  14.323  65.780  1.00  0.00    -0.312 NA 
HETATM   44  C   UNL     1     -12.238  15.804  64.136  1.00  0.00     0.149 C  
ENDBRANCH  38  39
ENDBRANCH  27  32
ENDBRANCH  26  27
ENDBRANCH  23  26
ENDBRANCH  14  17
ENDBRANCH  10  11
ENDBRANCH   6  10
ENDBRANCH   4   6
ENDBRANCH   3   4
ENDBRANCH   2   3
TORSDOF 10
ENDMDL
MODEL      239
REMARK 921   NORMALIZED FREE ENERGY PREDICTED BY IDOCK:   -1.07 KCAL/MOL
REMARK 922        TOTAL FREE ENERGY PREDICTED BY IDOCK:   -4.03 KCAL/MOL
REMARK 923 INTER-LIGAND FREE ENERGY PREDICTED BY IDOCK:   -4.06 KCAL/MOL
REMARK 924 INTRA-LIGAND FREE ENERGY PREDICTED BY IDOCK:    0.03 KCAL/MOL
REMARK 927      BINDING AFFINITY PREDICTED BY RF-SCORE:    0.00 PKD
ROOT
HETATM    1  C   UNL     1      -8.518  14.049  67.763  1.00  0.00    -0.184 C  
HETATM    2  C   UNL     1      -9.230  15.021  66.840  1.00  0.00    -0.246 C  
ENDROOT
BRANCH   2   3
HETATM    3  O   UNL     1      -9.950  14.253  65.868  1.00  0.00    -0.299 OA 
BRANCH   3   4
HETATM    4  C   UNL     1     -11.266  14.035  66.174  1.00  0.00    -0.318 C  
HETATM    5  O   UNL     1     -11.878  14.581  67.082  1.00  0.00    -0.392 OA 
BRANCH   4   6
HETATM    6  C   UNL     1     -11.844  13.027  65.172  1.00  0.00    -0.369 C  
HETATM    7  N   UNL     1     -10.932  12.928  64.007  1.00  0.00    -0.399 NA 
HETATM    8  H2  UNL     1      -9.976  12.700  64.280  1.00  0.00     0.000 HD 
HETATM    9  H1  UNL     1     -11.317  12.258  63.341  1.00  0.00     0.000 HD 
BRANCH   6  10
HETATM   10  C   UNL     1     -12.069  11.655  65.844  1.00  0.00     0.664 C  
BRANCH  10  11
HETATM   11  C   UNL     1     -11.050  11.225  66.892  1.00  0.00    -0.339 A  
HETATM   12  C   UNL     1      -9.842  10.595  66.581  1.00  0.00    -0.245 A  
HETATM   13  C   UNL     1      -8.946  10.196  67.603  1.00  0.00    -0.134 A  
HETATM   14  C   UNL     1      -9.217  10.399  68.974  1.00  0.00    -0.194 A  
HETATM   15  C   UNL     1     -10.401  11.106  69.251  1.00  0.00    -0.148 A  
HETATM   16  C   UNL     1     -11.296  11.501  68.240  1.00  0.00    -0.352 A  
BRANCH  14  17
HETATM   17  C   UNL     1      -8.358   9.810  70.060  1.00  0.00    -0.192 A  
HETATM   18  N   UNL     1      -7.192  10.442  70.326  1.00  0.00    -0.245 NA 
HETATM   19  C   UNL     1      -6.326   9.845  71.156  1.00  0.00     0.054 A  
HETATM   20  N   UNL     1      -6.473   8.633  71.702  1.00  0.00    -0.067 NA 
HETATM   21  N   UNL     1      -5.135  10.496  71.407  1.00  0.00    -0.088 NA 
HETATM   22  H1  UNL     1      -4.476  10.042  72.038  1.00  0.00     0.000 HD 
HETATM   23  C   UNL     1      -7.638   8.033  71.445  1.00  0.00    -0.080 A  
HETATM   24  H2  UNL     1      -4.922  11.397  70.977  1.00  0.00     0.000 HD 
HETATM   25  C   UNL     1      -8.635   8.598  70.673  1.00  0.00    -0.183 A  
BRANCH  23  26
HETATM   26  O   UNL     1      -7.842   6.719  71.830  1.00  0.00    -0.099 OA 
BRANCH  26  27
HETATM   27  C   UNL     1      -7.527   5.681  70.869  1.00  0.00    -0.089 C  
HETATM   28  C   UNL     1      -7.093   4.313  71.452  1.00  0.00    -0.042 C  
HETATM   29  F   UNL     1      -6.842   4.328  72.779  1.00  0.00    -0.043 F  
HETATM   30  F   UNL     1      -5.937   3.915  70.841  1.00  0.00    -0.012 F  
HETATM   31  F   UNL     1      -7.983   3.318  71.218  1.00  0.00    -0.054 F  
BRANCH  27  32
HETATM   32  C   UNL     1      -8.664   5.547  69.808  1.00  0.00    -0.118 A  
HETATM   33  C   UNL     1      -8.279   5.701  68.454  1.00  0.00    -0.103 A  
HETATM   34  C   UNL     1      -9.220   5.751  67.422  1.00  0.00    -0.109 A  
HETATM   35  C   UNL     1     -10.572   5.668  67.718  1.00  0.00    -0.200 A  
HETATM   36  C   UNL     1     -10.990   5.418  69.025  1.00  0.00     0.150 A  
HETATM   37 CL   UNL     1     -11.739   5.864  66.469  1.00  0.00     0.918 Cl 
HETATM   38  C   UNL     1     -10.044   5.295  70.065  1.00  0.00    -0.266 A  
BRANCH  38  39
HETATM   39  N   UNL     1     -10.514   4.885  71.347  1.00  0.00    -0.149 NA 
HETATM   40  C   UNL     1     -11.739   5.103  71.951  1.00  0.00     0.651 A  
HETATM   41  C   UNL     1     -11.610   4.690  73.259  1.00  0.00    -0.274 A  
HETATM   42  C   UNL     1     -10.314   4.161  73.329  1.00  0.00    -0.164 A  
HETATM   43  N   UNL     1      -9.739   4.128  72.138  1.00  0.00    -0.154 NA 
HETATM   44  C   UNL     1      -9.538   3.687  74.503  1.00  0.00    -0.143 C  
ENDBRANCH  38  39
ENDBRANCH  27  32
ENDBRANCH  26  27
ENDBRANCH  23  26
ENDBRANCH  14  17
ENDBRANCH  10  11
ENDBRANCH   6  10
ENDBRANCH   4   6
ENDBRANCH   3   4
ENDBRANCH   2   3
TORSDOF 10
ENDMDL
MODEL      240
REMARK 921   NORMALIZED FREE ENERGY PREDICTED BY IDOCK:   -1.02 KCAL/MOL
REMARK 922        TOTAL FREE ENERGY PREDICTED BY IDOCK:   -3.96 KCAL/MOL
REMARK 923 INTER-LIGAND FREE ENERGY PREDICTED BY IDOCK:   -9.29 KCAL/MOL
REMARK 924 INTRA-LIGAND FREE ENERGY PREDICTED BY IDOCK:    5.32 KCAL/MOL
REMARK 927      BINDING AFFINITY PREDICTED BY RF-SCORE:    0.00 PKD
ROOT
HETATM    1  C   UNL     1     -11.321  14.995  68.229  1.00  0.00    -0.331 C  
HETATM    2  C   UNL     1     -10.983  15.349  66.792  1.00  0.00    -0.282 C  
ENDROOT
BRANCH   2   3
HETATM    3  O   UNL     1     -12.027  14.833  65.958  1.00  0.00    -0.281 OA 
BRANCH   3   4
HETATM    4  C   UNL     1     -11.784  14.927  64.615  1.00  0.00    -0.404 C  
HETATM    5  O   UNL     1     -11.828  15.961  63.961  1.00  0.00    -0.608 OA 
BRANCH   4   6
HETATM    6  C   UNL     1     -11.416  13.536  64.082  1.00  0.00    -0.360 C  
HETATM    7  N   UNL     1      -9.950  13.348  64.195  1.00  0.00    -0.757 NA 
HETATM    8  H2  UNL     1      -9.610  13.503  65.145  1.00  0.00     0.000 HD 
HETATM    9  H1  UNL     1      -9.706  12.424  63.841  1.00  0.00     0.000 HD 
BRANCH   6  10
HETATM   10  C   UNL     1     -12.195  12.437  64.837  1.00  0.00    -0.485 C  
BRANCH  10  11
HETATM   11  C   UNL     1     -11.375  11.443  65.649  1.00  0.00    -0.069 A  
HETATM   12  C   UNL     1     -10.533  10.486  65.075  1.00  0.00    -0.221 A  
HETATM   13  C   UNL     1      -9.813   9.572  65.883  1.00  0.00    -0.360 A  
HETATM   14  C   UNL     1      -9.907   9.565  67.292  1.00  0.00    -0.228 A  
HETATM   15  C   UNL     1     -10.699  10.589  67.843  1.00  0.00    -0.305 A  
HETATM   16  C   UNL     1     -11.419  11.497  67.046  1.00  0.00    -0.290 A  
BRANCH  14  17
HETATM   17  C   UNL     1      -9.295   8.479  68.135  1.00  0.00    -0.137 A  
HETATM   18  N   UNL     1      -7.946   8.365  68.095  1.00  0.00    -0.117 NA 
HETATM   19  C   UNL     1      -7.387   7.301  68.688  1.00  0.00    -0.100 A  
HETATM   20  N   UNL     1      -8.045   6.289  69.264  1.00  0.00    -0.109 NA 
HETATM   21  N   UNL     1      -6.012   7.191  68.627  1.00  0.00    -0.025 NA 
HETATM   22  H1  UNL     1      -5.586   6.382  69.078  1.00  0.00     0.000 HD 
HETATM   23  C   UNL     1      -9.372   6.430  69.312  1.00  0.00    -0.137 A  
HETATM   24  H2  UNL     1      -5.444   7.892  68.150  1.00  0.00     0.000 HD 
HETATM   25  C   UNL     1     -10.043   7.527  68.809  1.00  0.00    -0.191 A  
BRANCH  23  26
HETATM   26  O   UNL     1     -10.165   5.383  69.747  1.00  0.00    -0.229 OA 
BRANCH  26  27
HETATM   27  C   UNL     1     -10.910   5.568  70.976  1.00  0.00    -0.173 C  
HETATM   28  C   UNL     1     -10.340   4.870  72.237  1.00  0.00    -0.206 C  
HETATM   29  F   UNL     1      -9.347   3.989  71.985  1.00  0.00    -0.141 F  
HETATM   30  F   UNL     1     -11.340   4.167  72.847  1.00  0.00    -0.226 F  
HETATM   31  F   UNL     1      -9.886   5.736  73.176  1.00  0.00    -0.161 F  
BRANCH  27  32
HETATM   32  C   UNL     1     -11.215   7.080  71.214  1.00  0.00    -0.296 A  
HETATM   33  C   UNL     1     -12.506   7.525  70.838  1.00  0.00    -0.163 A  
HETATM   34  C   UNL     1     -12.853   8.878  70.861  1.00  0.00     0.058 A  
HETATM   35  C   UNL     1     -11.914   9.824  71.243  1.00  0.00    -0.386 A  
HETATM   36  C   UNL     1     -10.665   9.422  71.714  1.00  0.00    -0.190 A  
HETATM   37 CL   UNL     1     -12.294  11.500  71.145  1.00  0.00    -0.427 Cl 
HETATM   38  C   UNL     1     -10.327   8.053  71.762  1.00  0.00    -0.217 A  
BRANCH  38  39
HETATM   39  N   UNL     1      -9.103   7.691  72.396  1.00  0.00    -0.135 NA 
HETATM   40  C   UNL     1      -8.506   8.215  73.528  1.00  0.00    -0.246 A  
HETATM   41  C   UNL     1      -7.244   7.667  73.595  1.00  0.00    -0.122 A  
HETATM   42  C   UNL     1      -7.200   6.766  72.522  1.00  0.00    -0.075 A  
HETATM   43  N   UNL     1      -8.377   6.667  71.924  1.00  0.00    -0.114 NA 
HETATM   44  C   UNL     1      -6.065   5.975  71.984  1.00  0.00    -0.041 C  
ENDBRANCH  38  39
ENDBRANCH  27  32
ENDBRANCH  26  27
ENDBRANCH  23  26
ENDBRANCH  14  17
ENDBRANCH  10  11
ENDBRANCH   6  10
ENDBRANCH   4   6
ENDBRANCH   3   4
ENDBRANCH   2   3
TORSDOF 10
ENDMDL
MODEL      241
REMARK 921   NORMALIZED FREE ENERGY PREDICTED BY IDOCK:   -0.78 KCAL/MOL
REMARK 922        TOTAL FREE ENERGY PREDICTED BY IDOCK:   -3.57 KCAL/MOL
REMARK 923 INTER-LIGAND FREE ENERGY PREDICTED BY IDOCK:   -6.10 KCAL/MOL
REMARK 924 INTRA-LIGAND FREE ENERGY PREDICTED BY IDOCK:    2.53 KCAL/MOL
REMARK 927      BINDING AFFINITY PREDICTED BY RF-SCORE:    0.00 PKD
ROOT
HETATM    1  C   UNL     1      -9.001  17.958  69.018  1.00  0.00    -0.013 C  
HETATM    2  C   UNL     1     -10.068  17.033  69.574  1.00  0.00    -0.048 C  
ENDROOT
BRANCH   2   3
HETATM    3  O   UNL     1     -10.887  16.605  68.480  1.00  0.00    -0.331 OA 
BRANCH   3   4
HETATM    4  C   UNL     1     -10.572  17.171  67.275  1.00  0.00    -0.270 C  
HETATM    5  O   UNL     1     -10.427  18.370  67.076  1.00  0.00    -0.383 OA 
BRANCH   4   6
HETATM    6  C   UNL     1     -10.400  16.055  66.236  1.00  0.00    -0.321 C  
HETATM    7  N   UNL     1      -8.985  15.616  66.231  1.00  0.00    -0.324 NA 
HETATM    8  H2  UNL     1      -8.660  15.337  67.157  1.00  0.00     0.000 HD 
HETATM    9  H1  UNL     1      -8.870  14.874  65.540  1.00  0.00     0.000 HD 
BRANCH   6  10
HETATM   10  C   UNL     1     -11.364  14.884  66.525  1.00  0.00    -0.319 C  
BRANCH  10  11
HETATM   11  C   UNL     1     -10.750  13.606  67.082  1.00  0.00    -0.279 A  
HETATM   12  C   UNL     1     -11.123  13.040  68.305  1.00  0.00    -0.293 A  
HETATM   13  C   UNL     1     -10.497  11.862  68.782  1.00  0.00    -0.207 A  
HETATM   14  C   UNL     1      -9.471  11.204  68.069  1.00  0.00    -0.174 A  
HETATM   15  C   UNL     1      -9.174  11.751  66.807  1.00  0.00    -0.196 A  
HETATM   16  C   UNL     1      -9.789  12.923  66.331  1.00  0.00    -0.268 A  
BRANCH  14  17
HETATM   17  C   UNL     1      -8.680  10.068  68.660  1.00  0.00    -0.127 A  
HETATM   18  N   UNL     1      -7.912  10.356  69.736  1.00  0.00    -0.121 NA 
HETATM   19  C   UNL     1      -7.062   9.416  70.173  1.00  0.00    -0.083 A  
HETATM   20  N   UNL     1      -6.845   8.228  69.597  1.00  0.00    -0.044 NA 
HETATM   21  N   UNL     1      -6.276   9.728  71.263  1.00  0.00    -0.263 NA 
HETATM   22  H1  UNL     1      -5.630   9.013  71.596  1.00  0.00     0.000 HD 
HETATM   23  C   UNL     1      -7.626   7.954  68.549  1.00  0.00    -0.105 A  
HETATM   24  H2  UNL     1      -6.339  10.639  71.719  1.00  0.00     0.000 HD 
HETATM   25  C   UNL     1      -8.594   8.816  68.071  1.00  0.00    -0.134 A  
BRANCH  23  26
HETATM   26  O   UNL     1      -7.391   6.825  67.785  1.00  0.00    -0.091 OA 
BRANCH  26  27
HETATM   27  C   UNL     1      -7.618   5.534  68.404  1.00  0.00    -0.084 C  
HETATM   28  C   UNL     1      -8.527   5.523  69.659  1.00  0.00    -0.101 C  
HETATM   29  F   UNL     1      -8.809   6.749  70.152  1.00  0.00    -0.136 F  
HETATM   30  F   UNL     1      -7.899   4.836  70.658  1.00  0.00    -0.063 F  
HETATM   31  F   UNL     1      -9.706   4.882  69.467  1.00  0.00    -0.184 F  
BRANCH  27  32
HETATM   32  C   UNL     1      -8.053   4.480  67.339  1.00  0.00    -0.101 A  
HETATM   33  C   UNL     1      -8.061   4.915  65.992  1.00  0.00    -0.108 A  
HETATM   34  C   UNL     1      -8.570   4.119  64.963  1.00  0.00    -0.117 A  
HETATM   35  C   UNL     1      -9.103   2.873  65.256  1.00  0.00    -0.149 A  
HETATM   36  C   UNL     1      -9.027   2.364  66.553  1.00  0.00    -0.130 A  
HETATM   37 CL   UNL     1      -9.852   1.945  64.016  1.00  0.00    -0.131 Cl 
HETATM   38  C   UNL     1      -8.451   3.132  67.587  1.00  0.00    -0.090 A  
BRANCH  38  39
HETATM   39  N   UNL     1      -8.257   2.505  68.853  1.00  0.00    -0.051 NA 
HETATM   40  C   UNL     1      -9.188   1.989  69.736  1.00  0.00    -0.110 A  
HETATM   41  C   UNL     1      -8.507   1.695  70.896  1.00  0.00    -0.077 A  
HETATM   42  C   UNL     1      -7.169   1.981  70.595  1.00  0.00    -0.033 A  
HETATM   43  N   UNL     1      -7.016   2.298  69.319  1.00  0.00    -0.033 NA 
HETATM   44  C   UNL     1      -5.973   2.001  71.475  1.00  0.00    -0.013 C  
ENDBRANCH  38  39
ENDBRANCH  27  32
ENDBRANCH  26  27
ENDBRANCH  23  26
ENDBRANCH  14  17
ENDBRANCH  10  11
ENDBRANCH   6  10
ENDBRANCH   4   6
ENDBRANCH   3   4
ENDBRANCH   2   3
TORSDOF 10
ENDMDL
MODEL      242
REMARK 921   NORMALIZED FREE ENERGY PREDICTED BY IDOCK:   -0.73 KCAL/MOL
REMARK 922        TOTAL FREE ENERGY PREDICTED BY IDOCK:   -3.50 KCAL/MOL
REMARK 923 INTER-LIGAND FREE ENERGY PREDICTED BY IDOCK:   -6.00 KCAL/MOL
REMARK 924 INTRA-LIGAND FREE ENERGY PREDICTED BY IDOCK:    2.49 KCAL/MOL
REMARK 927      BINDING AFFINITY PREDICTED BY RF-SCORE:    0.00 PKD
ROOT
HETATM    1  C   UNL     1      -6.871   5.075  72.960  1.00  0.00    -0.076 C  
HETATM    2  C   UNL     1      -7.417   4.191  71.854  1.00  0.00    -0.065 C  
ENDROOT
BRANCH   2   3
HETATM    3  O   UNL     1      -8.712   4.688  71.496  1.00  0.00    -0.115 OA 
BRANCH   3   4
HETATM    4  C   UNL     1      -9.050   4.506  70.183  1.00  0.00    -0.101 C  
HETATM    5  O   UNL     1     -10.148   4.142  69.783  1.00  0.00    -0.137 OA 
BRANCH   4   6
HETATM    6  C   UNL     1      -7.842   4.865  69.308  1.00  0.00    -0.075 C  
HETATM    7  N   UNL     1      -8.212   4.698  67.883  1.00  0.00    -0.099 NA 
HETATM    8  H2  UNL     1      -9.045   5.230  67.632  1.00  0.00     0.000 HD 
HETATM    9  H1  UNL     1      -7.408   4.936  67.302  1.00  0.00     0.000 HD 
BRANCH   6  10
HETATM   10  C   UNL     1      -7.354   6.298  69.611  1.00  0.00    -0.080 C  
BRANCH  10  11
HETATM   11  C   UNL     1      -7.913   7.416  68.739  1.00  0.00    -0.123 A  
HETATM   12  C   UNL     1      -7.454   7.691  67.448  1.00  0.00    -0.100 A  
HETATM   13  C   UNL     1      -7.997   8.761  66.695  1.00  0.00    -0.100 A  
HETATM   14  C   UNL     1      -9.011   9.605  67.197  1.00  0.00    -0.148 A  
HETATM   15  C   UNL     1      -9.508   9.254  68.465  1.00  0.00    -0.150 A  
HETATM   16  C   UNL     1      -8.969   8.196  69.219  1.00  0.00    -0.148 A  
BRANCH  14  17
HETATM   17  C   UNL     1      -9.453  10.850  66.475  1.00  0.00    -0.185 A  
HETATM   18  N   UNL     1      -9.943  10.687  65.224  1.00  0.00    -0.274 NA 
HETATM   19  C   UNL     1     -10.175  11.785  64.490  1.00  0.00    -0.284 A  
HETATM   20  N   UNL     1      -9.899  13.042  64.854  1.00  0.00    -0.099 NA 
HETATM   21  N   UNL     1     -10.663  11.602  63.212  1.00  0.00    -0.633 NA 
HETATM   22  H1  UNL     1     -10.839  12.437  62.654  1.00  0.00     0.000 HD 
HETATM   23  C   UNL     1      -9.435  13.185  66.098  1.00  0.00    -0.145 A  
HETATM   24  H2  UNL     1     -10.840  10.669  62.840  1.00  0.00     0.000 HD 
HETATM   25  C   UNL     1      -9.241  12.128  66.967  1.00  0.00    -0.202 A  
BRANCH  23  26
HETATM   26  O   UNL     1      -8.974  14.415  66.530  1.00  0.00    -0.239 OA 
BRANCH  26  27
HETATM   27  C   UNL     1      -9.776  15.581  66.217  1.00  0.00    -0.302 C  
HETATM   28  C   UNL     1     -11.261  15.319  65.860  1.00  0.00    -0.237 C  
HETATM   29  F   UNL     1     -11.565  14.017  65.663  1.00  0.00    -0.310 F  
HETATM   30  F   UNL     1     -11.561  15.970  64.697  1.00  0.00    -0.365 F  
HETATM   31  F   UNL     1     -12.132  15.805  66.778  1.00  0.00     0.314 F  
BRANCH  27  32
HETATM   32  C   UNL     1      -9.608  16.679  67.314  1.00  0.00    -0.243 A  
HETATM   33  C   UNL     1     -10.560  16.668  68.361  1.00  0.00    -0.343 A  
HETATM   34  C   UNL     1     -10.610  17.683  69.321  1.00  0.00     0.090 A  
HETATM   35  C   UNL     1      -9.721  18.745  69.247  1.00  0.00    -0.081 A  
HETATM   36  C   UNL     1      -8.705  18.745  68.291  1.00  0.00    -0.363 A  
HETATM   37 CL   UNL     1      -9.864  20.063  70.345  1.00  0.00     0.568 Cl 
HETATM   38  C   UNL     1      -8.602  17.690  67.361  1.00  0.00    -0.226 A  
BRANCH  38  39
HETATM   39  N   UNL     1      -7.458  17.660  66.511  1.00  0.00    -0.239 NA 
HETATM   40  C   UNL     1      -6.351  16.832  66.548  1.00  0.00    -0.021 A  
HETATM   41  C   UNL     1      -5.443  17.351  65.652  1.00  0.00     0.280 A  
HETATM   42  C   UNL     1      -6.115  18.430  65.063  1.00  0.00    -0.117 A  
HETATM   43  N   UNL     1      -7.375  18.493  65.463  1.00  0.00    -0.519 NA 
HETATM   44  C   UNL     1      -5.619  19.469  64.125  1.00  0.00    -0.305 C  
ENDBRANCH  38  39
ENDBRANCH  27  32
ENDBRANCH  26  27
ENDBRANCH  23  26
ENDBRANCH  14  17
ENDBRANCH  10  11
ENDBRANCH   6  10
ENDBRANCH   4   6
ENDBRANCH   3   4
ENDBRANCH   2   3
TORSDOF 10
ENDMDL
MODEL      243
REMARK 921   NORMALIZED FREE ENERGY PREDICTED BY IDOCK:   -0.71 KCAL/MOL
REMARK 922        TOTAL FREE ENERGY PREDICTED BY IDOCK:   -3.46 KCAL/MOL
REMARK 923 INTER-LIGAND FREE ENERGY PREDICTED BY IDOCK:   -4.29 KCAL/MOL
REMARK 924 INTRA-LIGAND FREE ENERGY PREDICTED BY IDOCK:    0.83 KCAL/MOL
REMARK 927      BINDING AFFINITY PREDICTED BY RF-SCORE:    0.00 PKD
ROOT
HETATM    1  C   UNL     1      -8.757   6.269  66.716  1.00  0.00    -0.117 C  
HETATM    2  C   UNL     1      -8.006   5.270  67.578  1.00  0.00    -0.100 C  
ENDROOT
BRANCH   2   3
HETATM    3  O   UNL     1      -8.901   4.193  67.879  1.00  0.00    -0.103 OA 
BRANCH   3   4
HETATM    4  C   UNL     1      -8.449   3.326  68.837  1.00  0.00    -0.067 C  
HETATM    5  O   UNL     1      -7.317   2.864  68.891  1.00  0.00    -0.048 OA 
BRANCH   4   6
HETATM    6  C   UNL     1      -9.581   3.065  69.839  1.00  0.00    -0.054 C  
HETATM    7  N   UNL     1      -9.424   1.703  70.401  1.00  0.00    -0.100 NA 
HETATM    8  H2  UNL     1      -8.501   1.556  70.811  1.00  0.00     0.000 HD 
HETATM    9  H1  UNL     1     -10.177   1.530  71.066  1.00  0.00     0.000 HD 
BRANCH   6  10
HETATM   10  C   UNL     1      -9.595   4.145  70.943  1.00  0.00    -0.250 C  
BRANCH  10  11
HETATM   11  C   UNL     1      -9.698   5.595  70.489  1.00  0.00    -0.233 A  
HETATM   12  C   UNL     1     -10.804   6.115  69.811  1.00  0.00    -0.421 A  
HETATM   13  C   UNL     1     -10.832   7.468  69.392  1.00  0.00    -0.161 A  
HETATM   14  C   UNL     1      -9.759   8.357  69.623  1.00  0.00    -0.173 A  
HETATM   15  C   UNL     1      -8.696   7.827  70.377  1.00  0.00    -0.139 A  
HETATM   16  C   UNL     1      -8.662   6.484  70.791  1.00  0.00    -0.143 A  
BRANCH  14  17
HETATM   17  C   UNL     1      -9.709   9.733  69.016  1.00  0.00    -0.177 A  
HETATM   18  N   UNL     1      -8.719  10.551  69.443  1.00  0.00    -0.124 NA 
HETATM   19  C   UNL     1      -8.753  11.835  69.060  1.00  0.00     0.253 A  
HETATM   20  N   UNL     1      -9.724  12.413  68.343  1.00  0.00    -0.213 NA 
HETATM   21  N   UNL     1      -7.744  12.660  69.514  1.00  0.00     0.065 NA 
HETATM   22  H1  UNL     1      -7.771  13.637  69.223  1.00  0.00     0.000 HD 
HETATM   23  C   UNL     1     -10.681  11.586  67.914  1.00  0.00    -0.200 A  
HETATM   24  H2  UNL     1      -7.001  12.307  70.118  1.00  0.00     0.000 HD 
HETATM   25  C   UNL     1     -10.695  10.230  68.179  1.00  0.00    -0.287 A  
BRANCH  23  26
HETATM   26  O   UNL     1     -11.810  12.093  67.295  1.00  0.00    -0.530 OA 
BRANCH  26  27
HETATM   27  C   UNL     1     -11.982  11.819  65.883  1.00  0.00     0.293 C  
HETATM   28  C   UNL     1     -12.809  12.853  65.078  1.00  0.00    -0.273 C  
HETATM   29  F   UNL     1     -13.456  13.763  65.839  1.00  0.00    -0.277 F  
HETATM   30  F   UNL     1     -13.765  12.196  64.357  1.00  0.00    -0.124 F  
HETATM   31  F   UNL     1     -12.077  13.537  64.163  1.00  0.00    -0.411 F  
BRANCH  27  32
HETATM   32  C   UNL     1     -10.612  11.493  65.211  1.00  0.00    -0.339 A  
HETATM   33  C   UNL     1     -10.499  10.219  64.606  1.00  0.00     0.133 A  
HETATM   34  C   UNL     1      -9.283   9.748  64.103  1.00  0.00    -0.277 A  
HETATM   35  C   UNL     1      -8.144  10.532  64.209  1.00  0.00    -0.035 A  
HETATM   36  C   UNL     1      -8.230  11.831  64.708  1.00  0.00     1.417 A  
HETATM   37 CL   UNL     1      -6.620   9.904  63.713  1.00  0.00    -0.121 Cl 
HETATM   38  C   UNL     1      -9.467  12.342  65.155  1.00  0.00     0.164 A  
BRANCH  38  39
HETATM   39  N   UNL     1      -9.529  13.722  65.507  1.00  0.00     0.063 NA 
HETATM   40  C   UNL     1     -10.176  14.768  64.873  1.00  0.00    -0.275 A  
HETATM   41  C   UNL     1      -9.748  15.924  65.490  1.00  0.00    -0.215 A  
HETATM   42  C   UNL     1      -8.922  15.477  66.530  1.00  0.00    -0.312 A  
HETATM   43  N   UNL     1      -8.941  14.158  66.632  1.00  0.00    -0.212 NA 
HETATM   44  C   UNL     1      -8.057  16.245  67.460  1.00  0.00    -0.165 C  
ENDBRANCH  38  39
ENDBRANCH  27  32
ENDBRANCH  26  27
ENDBRANCH  23  26
ENDBRANCH  14  17
ENDBRANCH  10  11
ENDBRANCH   6  10
ENDBRANCH   4   6
ENDBRANCH   3   4
ENDBRANCH   2   3
TORSDOF 10
ENDMDL
MODEL      244
REMARK 921   NORMALIZED FREE ENERGY PREDICTED BY IDOCK:   -0.15 KCAL/MOL
REMARK 922        TOTAL FREE ENERGY PREDICTED BY IDOCK:   -2.58 KCAL/MOL
REMARK 923 INTER-LIGAND FREE ENERGY PREDICTED BY IDOCK:   -6.71 KCAL/MOL
REMARK 924 INTRA-LIGAND FREE ENERGY PREDICTED BY IDOCK:    4.13 KCAL/MOL
REMARK 927      BINDING AFFINITY PREDICTED BY RF-SCORE:    0.00 PKD
ROOT
HETATM    1  C   UNL     1      -9.700  17.245  69.454  1.00  0.00     0.081 C  
HETATM    2  C   UNL     1     -10.712  16.205  69.900  1.00  0.00    -0.328 C  
ENDROOT
BRANCH   2   3
HETATM    3  O   UNL     1     -11.418  15.755  68.738  1.00  0.00    -0.347 OA 
BRANCH   3   4
HETATM    4  C   UNL     1     -11.084  16.405  67.581  1.00  0.00    -0.150 C  
HETATM    5  O   UNL     1     -11.035  17.620  67.444  1.00  0.00    -0.237 OA 
BRANCH   4   6
HETATM    6  C   UNL     1     -10.751  15.360  66.508  1.00  0.00    -0.308 C  
HETATM    7  N   UNL     1      -9.300  15.065  66.556  1.00  0.00    -0.264 NA 
HETATM    8  H2  UNL     1      -8.991  14.779  67.486  1.00  0.00     0.000 HD 
HETATM    9  H1  UNL     1      -9.079  14.370  65.843  1.00  0.00     0.000 HD 
BRANCH   6  10
HETATM   10  C   UNL     1     -11.603  14.086  66.701  1.00  0.00    -0.400 C  
BRANCH  10  11
HETATM   11  C   UNL     1     -10.903  12.872  67.300  1.00  0.00    -0.277 A  
HETATM   12  C   UNL     1     -11.394  12.162  68.400  1.00  0.00    -0.336 A  
HETATM   13  C   UNL     1     -10.684  11.055  68.927  1.00  0.00    -0.249 A  
HETATM   14  C   UNL     1      -9.456  10.614  68.388  1.00  0.00    -0.165 A  
HETATM   15  C   UNL     1      -9.029  11.296  67.234  1.00  0.00    -0.149 A  
HETATM   16  C   UNL     1      -9.727  12.399  66.710  1.00  0.00    -0.226 A  
BRANCH  14  17
HETATM   17  C   UNL     1      -8.613   9.563  69.060  1.00  0.00    -0.133 A  
HETATM   18  N   UNL     1      -8.061   9.895  70.250  1.00  0.00    -0.168 NA 
HETATM   19  C   UNL     1      -7.165   9.054  70.785  1.00  0.00    -0.097 A  
HETATM   20  N   UNL     1      -6.703   7.935  70.215  1.00  0.00    -0.038 NA 
HETATM   21  N   UNL     1      -6.601   9.411  71.993  1.00  0.00    -0.292 NA 
HETATM   22  H1  UNL     1      -5.919   8.772  72.400  1.00  0.00     0.000 HD 
HETATM   23  C   UNL     1      -7.273   7.614  69.051  1.00  0.00    -0.080 A  
HETATM   24  H2  UNL     1      -6.856  10.282  72.461  1.00  0.00     0.000 HD 
HETATM   25  C   UNL     1      -8.268   8.365  68.454  1.00  0.00    -0.124 A  
BRANCH  23  26
HETATM   26  O   UNL     1      -6.773   6.566  68.299  1.00  0.00    -0.063 OA 
BRANCH  26  27
HETATM   27  C   UNL     1      -6.899   5.229  68.842  1.00  0.00    -0.055 C  
HETATM   28  C   UNL     1      -7.602   5.108  70.217  1.00  0.00    -0.071 C  
HETATM   29  F   UNL     1      -7.806   6.288  70.844  1.00  0.00    -0.097 F  
HETATM   30  F   UNL     1      -6.826   4.354  71.050  1.00  0.00    -0.031 F  
HETATM   31  F   UNL     1      -8.795   4.467  70.161  1.00  0.00    -0.094 F  
BRANCH  27  32
HETATM   32  C   UNL     1      -7.493   4.254  67.777  1.00  0.00    -0.069 A  
HETATM   33  C   UNL     1      -6.729   3.097  67.491  1.00  0.00    -0.045 A  
HETATM   34  C   UNL     1      -7.074   2.224  66.456  1.00  0.00    -0.052 A  
HETATM   35  C   UNL     1      -8.182   2.495  65.668  1.00  0.00    -0.087 A  
HETATM   36  C   UNL     1      -9.018   3.568  65.976  1.00  0.00    -0.140 A  
HETATM   37 CL   UNL     1      -8.535   1.498  64.309  1.00  0.00    -0.073 Cl 
HETATM   38  C   UNL     1      -8.718   4.416  67.063  1.00  0.00    -0.108 A  
BRANCH  38  39
HETATM   39  N   UNL     1      -9.685   5.398  67.428  1.00  0.00    -0.132 NA 
HETATM   40  C   UNL     1     -10.098   6.528  66.746  1.00  0.00    -0.176 A  
HETATM   41  C   UNL     1     -10.886   7.246  67.619  1.00  0.00    -0.251 A  
HETATM   42  C   UNL     1     -10.963   6.438  68.761  1.00  0.00    -0.334 A  
HETATM   43  N   UNL     1     -10.384   5.264  68.565  1.00  0.00    -0.146 NA 
HETATM   44  C   UNL     1     -11.551   6.721  70.095  1.00  0.00    -0.397 C  
ENDBRANCH  38  39
ENDBRANCH  27  32
ENDBRANCH  26  27
ENDBRANCH  23  26
ENDBRANCH  14  17
ENDBRANCH  10  11
ENDBRANCH   6  10
ENDBRANCH   4   6
ENDBRANCH   3   4
ENDBRANCH   2   3
TORSDOF 10
ENDMDL
MODEL      245
REMARK 921   NORMALIZED FREE ENERGY PREDICTED BY IDOCK:   -0.14 KCAL/MOL
REMARK 922        TOTAL FREE ENERGY PREDICTED BY IDOCK:   -2.57 KCAL/MOL
REMARK 923 INTER-LIGAND FREE ENERGY PREDICTED BY IDOCK:   -3.43 KCAL/MOL
REMARK 924 INTRA-LIGAND FREE ENERGY PREDICTED BY IDOCK:    0.87 KCAL/MOL
REMARK 927      BINDING AFFINITY PREDICTED BY RF-SCORE:    0.00 PKD
ROOT
HETATM    1  C   UNL     1      -9.957  20.529  70.094  1.00  0.00     0.887 C  
HETATM    2  C   UNL     1      -8.865  19.603  70.597  1.00  0.00     2.009 C  
ENDROOT
BRANCH   2   3
HETATM    3  O   UNL     1      -8.080  19.200  69.468  1.00  0.00     0.013 OA 
BRANCH   3   4
HETATM    4  C   UNL     1      -7.331  20.200  68.909  1.00  0.00    -0.062 C  
HETATM    5  O   UNL     1      -7.781  21.158  68.294  1.00  0.00     0.390 OA 
BRANCH   4   6
HETATM    6  C   UNL     1      -5.850  19.934  69.211  1.00  0.00    -0.260 C  
HETATM    7  N   UNL     1      -5.744  19.203  70.495  1.00  0.00    -0.231 NA 
HETATM    8  H2  UNL     1      -6.302  18.349  70.504  1.00  0.00     0.000 HD 
HETATM    9  H1  UNL     1      -4.760  19.026  70.696  1.00  0.00     0.000 HD 
BRANCH   6  10
HETATM   10  C   UNL     1      -5.186  19.159  68.052  1.00  0.00    -0.172 C  
BRANCH  10  11
HETATM   11  C   UNL     1      -5.520  17.677  67.932  1.00  0.00    -0.135 A  
HETATM   12  C   UNL     1      -6.131  17.112  66.808  1.00  0.00    -0.243 A  
HETATM   13  C   UNL     1      -6.439  15.730  66.765  1.00  0.00     0.509 A  
HETATM   14  C   UNL     1      -6.163  14.856  67.838  1.00  0.00    -0.175 A  
HETATM   15  C   UNL     1      -5.477  15.437  68.921  1.00  0.00    -0.099 A  
HETATM   16  C   UNL     1      -5.172  16.809  68.971  1.00  0.00    -0.128 A  
BRANCH  14  17
HETATM   17  C   UNL     1      -6.659  13.435  67.868  1.00  0.00    -0.149 A  
HETATM   18  N   UNL     1      -5.718  12.462  67.905  1.00  0.00    -0.074 NA 
HETATM   19  C   UNL     1      -6.119  11.193  67.751  1.00  0.00    -0.047 A  
HETATM   20  N   UNL     1      -7.369  10.792  67.490  1.00  0.00    -0.090 NA 
HETATM   21  N   UNL     1      -5.148  10.213  67.777  1.00  0.00    -0.031 NA 
HETATM   22  H1  UNL     1      -5.452   9.247  67.660  1.00  0.00     0.000 HD 
HETATM   23  C   UNL     1      -8.285  11.764  67.478  1.00  0.00    -0.152 A  
HETATM   24  H2  UNL     1      -4.163  10.446  67.909  1.00  0.00     0.000 HD 
HETATM   25  C   UNL     1      -7.993  13.094  67.711  1.00  0.00    -0.162 A  
BRANCH  23  26
HETATM   26  O   UNL     1      -9.579  11.491  67.072  1.00  0.00    -0.182 OA 
BRANCH  26  27
HETATM   27  C   UNL     1     -10.096  12.226  65.935  1.00  0.00    -0.251 C  
HETATM   28  C   UNL     1     -11.278  11.574  65.173  1.00  0.00    -0.146 C  
HETATM   29  F   UNL     1     -11.528  10.294  65.526  1.00  0.00     0.478 F  
HETATM   30  F   UNL     1     -10.994  11.562  63.837  1.00  0.00    -0.366 F  
HETATM   31  F   UNL     1     -12.441  12.261  65.287  1.00  0.00    -0.486 F  
BRANCH  27  32
HETATM   32  C   UNL     1     -10.379  13.712  66.320  1.00  0.00    -0.293 A  
HETATM   33  C   UNL     1     -10.113  14.680  65.322  1.00  0.00    -0.393 A  
HETATM   34  C   UNL     1     -10.182  16.050  65.587  1.00  0.00    -0.412 A  
HETATM   35  C   UNL     1     -10.501  16.489  66.863  1.00  0.00    -0.282 A  
HETATM   36  C   UNL     1     -10.865  15.573  67.850  1.00  0.00    -0.307 A  
HETATM   37 CL   UNL     1     -10.457  18.170  67.229  1.00  0.00    -0.403 Cl 
HETATM   38  C   UNL     1     -10.867  14.190  67.573  1.00  0.00    -0.275 A  
BRANCH  38  39
HETATM   39  N   UNL     1     -11.397  13.313  68.564  1.00  0.00    -0.264 NA 
HETATM   40  C   UNL     1     -11.733  11.974  68.471  1.00  0.00    -0.332 A  
HETATM   41  C   UNL     1     -12.396  11.656  69.636  1.00  0.00    -0.172 A  
HETATM   42  C   UNL     1     -12.336  12.828  70.401  1.00  0.00    -0.247 A  
HETATM   43  N   UNL     1     -11.587  13.750  69.818  1.00  0.00    -0.272 NA 
HETATM   44  C   UNL     1     -12.989  13.161  71.693  1.00  0.00    -0.429 C  
ENDBRANCH  38  39
ENDBRANCH  27  32
ENDBRANCH  26  27
ENDBRANCH  23  26
ENDBRANCH  14  17
ENDBRANCH  10  11
ENDBRANCH   6  10
ENDBRANCH   4   6
ENDBRANCH   3   4
ENDBRANCH   2   3
TORSDOF 10
ENDMDL
MODEL      246
REMARK 921   NORMALIZED FREE ENERGY PREDICTED BY IDOCK:   -0.09 KCAL/MOL
REMARK 922        TOTAL FREE ENERGY PREDICTED BY IDOCK:   -2.48 KCAL/MOL
REMARK 923 INTER-LIGAND FREE ENERGY PREDICTED BY IDOCK:   -5.47 KCAL/MOL
REMARK 924 INTRA-LIGAND FREE ENERGY PREDICTED BY IDOCK:    2.99 KCAL/MOL
REMARK 927      BINDING AFFINITY PREDICTED BY RF-SCORE:    0.00 PKD
ROOT
HETATM    1  C   UNL     1     -11.558   6.949  71.723  1.00  0.00    -0.322 C  
HETATM    2  C   UNL     1     -12.449   6.229  70.726  1.00  0.00     0.544 C  
ENDROOT
BRANCH   2   3
HETATM    3  O   UNL     1     -11.864   6.382  69.428  1.00  0.00    -0.215 OA 
BRANCH   3   4
HETATM    4  C   UNL     1     -10.755   5.612  69.207  1.00  0.00    -0.280 C  
HETATM    5  O   UNL     1     -10.227   4.882  70.037  1.00  0.00    -0.264 OA 
BRANCH   4   6
HETATM    6  C   UNL     1     -10.312   5.792  67.749  1.00  0.00    -0.213 C  
HETATM    7  N   UNL     1     -11.363   6.535  67.015  1.00  0.00    -0.780 NA 
HETATM    8  H2  UNL     1     -11.597   7.421  67.462  1.00  0.00     0.000 HD 
HETATM    9  H1  UNL     1     -11.068   6.654  66.045  1.00  0.00     0.000 HD 
BRANCH   6  10
HETATM   10  C   UNL     1      -8.945   6.507  67.676  1.00  0.00    -0.114 C  
BRANCH  10  11
HETATM   11  C   UNL     1      -8.965   8.009  67.422  1.00  0.00    -0.141 A  
HETATM   12  C   UNL     1      -8.964   8.965  68.442  1.00  0.00    -0.134 A  
HETATM   13  C   UNL     1      -9.008  10.348  68.142  1.00  0.00    -0.132 A  
HETATM   14  C   UNL     1      -9.063  10.838  66.819  1.00  0.00    -0.167 A  
HETATM   15  C   UNL     1      -8.981   9.856  65.814  1.00  0.00    -0.189 A  
HETATM   16  C   UNL     1      -8.942   8.481  66.106  1.00  0.00    -0.220 A  
BRANCH  14  17
HETATM   17  C   UNL     1      -9.299  12.291  66.507  1.00  0.00    -0.230 A  
HETATM   18  N   UNL     1     -10.266  12.571  65.602  1.00  0.00    -0.265 NA 
HETATM   19  C   UNL     1     -10.378  13.835  65.170  1.00  0.00    -0.372 A  
HETATM   20  N   UNL     1      -9.569  14.849  65.498  1.00  0.00    -0.237 NA 
HETATM   21  N   UNL     1     -11.360  14.102  64.238  1.00  0.00    -0.605 NA 
HETATM   22  H1  UNL     1     -11.445  15.064  63.910  1.00  0.00     0.000 HD 
HETATM   23  C   UNL     1      -8.635  14.559  66.407  1.00  0.00     0.192 A  
HETATM   24  H2  UNL     1     -11.977  13.367  63.892  1.00  0.00     0.000 HD 
HETATM   25  C   UNL     1      -8.488  13.311  66.980  1.00  0.00    -0.138 A  
BRANCH  23  26
HETATM   26  O   UNL     1      -7.651  15.483  66.709  1.00  0.00    -0.179 OA 
BRANCH  26  27
HETATM   27  C   UNL     1      -7.321  15.682  68.106  1.00  0.00    -0.118 C  
HETATM   28  C   UNL     1      -6.334  16.834  68.423  1.00  0.00    -0.139 C  
HETATM   29  F   UNL     1      -5.728  17.362  67.337  1.00  0.00    -0.122 F  
HETATM   30  F   UNL     1      -5.341  16.359  69.232  1.00  0.00    -0.114 F  
HETATM   31  F   UNL     1      -6.899  17.857  69.110  1.00  0.00    -0.230 F  
BRANCH  27  32
HETATM   32  C   UNL     1      -8.616  15.746  68.975  1.00  0.00    -0.236 A  
HETATM   33  C   UNL     1      -8.997  14.545  69.621  1.00  0.00     0.456 A  
HETATM   34  C   UNL     1     -10.210  14.429  70.305  1.00  0.00     0.814 A  
HETATM   35  C   UNL     1     -11.083  15.506  70.345  1.00  0.00    -0.337 A  
HETATM   36  C   UNL     1     -10.706  16.736  69.807  1.00  0.00    -0.187 A  
HETATM   37 CL   UNL     1     -12.634  15.327  71.069  1.00  0.00    -0.423 Cl 
HETATM   38  C   UNL     1      -9.453  16.884  69.176  1.00  0.00    -0.135 A  
BRANCH  38  39
HETATM   39  N   UNL     1      -9.055  18.196  68.786  1.00  0.00    -0.269 NA 
HETATM   40  C   UNL     1      -8.944  19.348  69.544  1.00  0.00     0.276 A  
HETATM   41  C   UNL     1      -8.732  20.381  68.657  1.00  0.00     0.424 A  
HETATM   42  C   UNL     1      -8.643  19.753  67.408  1.00  0.00    -0.322 A  
HETATM   43  N   UNL     1      -8.665  18.435  67.525  1.00  0.00    -0.256 NA 
HETATM   44  C   UNL     1      -8.561  20.340  66.046  1.00  0.00    -0.091 C  
ENDBRANCH  38  39
ENDBRANCH  27  32
ENDBRANCH  26  27
ENDBRANCH  23  26
ENDBRANCH  14  17
ENDBRANCH  10  11
ENDBRANCH   6  10
ENDBRANCH   4   6
ENDBRANCH   3   4
ENDBRANCH   2   3
TORSDOF 10
ENDMDL
MODEL      247
REMARK 921   NORMALIZED FREE ENERGY PREDICTED BY IDOCK:   -0.08 KCAL/MOL
REMARK 922        TOTAL FREE ENERGY PREDICTED BY IDOCK:   -2.46 KCAL/MOL
REMARK 923 INTER-LIGAND FREE ENERGY PREDICTED BY IDOCK:   -5.71 KCAL/MOL
REMARK 924 INTRA-LIGAND FREE ENERGY PREDICTED BY IDOCK:    3.25 KCAL/MOL
REMARK 927      BINDING AFFINITY PREDICTED BY RF-SCORE:    0.00 PKD
ROOT
HETATM    1  C   UNL     1      -8.731  14.762  69.541  1.00  0.00     0.110 C  
HETATM    2  C   UNL     1      -9.021  15.622  68.324  1.00  0.00    -0.181 C  
ENDROOT
BRANCH   2   3
HETATM    3  O   UNL     1      -9.783  14.832  67.403  1.00  0.00    -0.212 OA 
BRANCH   3   4
HETATM    4  C   UNL     1     -11.133  14.841  67.623  1.00  0.00    -0.306 C  
HETATM    5  O   UNL     1     -11.667  14.919  68.722  1.00  0.00    -0.308 OA 
BRANCH   4   6
HETATM    6  C   UNL     1     -11.854  14.774  66.270  1.00  0.00    -0.209 C  
HETATM    7  N   UNL     1     -10.909  15.171  65.200  1.00  0.00    -0.393 NA 
HETATM    8  H2  UNL     1     -10.052  14.617  65.212  1.00  0.00     0.000 HD 
HETATM    9  H1  UNL     1     -11.388  15.126  64.301  1.00  0.00     0.000 HD 
BRANCH   6  10
HETATM   10  C   UNL     1     -12.434  13.363  66.029  1.00  0.00    -0.431 C  
BRANCH  10  11
HETATM   11  C   UNL     1     -11.452  12.199  66.052  1.00  0.00    -0.427 A  
HETATM   12  C   UNL     1     -10.796  11.720  64.914  1.00  0.00    -0.353 A  
HETATM   13  C   UNL     1      -9.911  10.617  64.995  1.00  0.00    -0.353 A  
HETATM   14  C   UNL     1      -9.648   9.941  66.206  1.00  0.00    -0.265 A  
HETATM   15  C   UNL     1     -10.259  10.495  67.345  1.00  0.00    -0.253 A  
HETATM   16  C   UNL     1     -11.142  11.587  67.270  1.00  0.00    -0.351 A  
BRANCH  14  17
HETATM   17  C   UNL     1      -8.860   8.660  66.258  1.00  0.00    -0.157 A  
HETATM   18  N   UNL     1      -7.511   8.774  66.255  1.00  0.00    -0.086 NA 
HETATM   19  C   UNL     1      -6.784   7.656  66.119  1.00  0.00    -0.053 A  
HETATM   20  N   UNL     1      -7.270   6.426  65.911  1.00  0.00    -0.076 NA 
HETATM   21  N   UNL     1      -5.411   7.789  66.104  1.00  0.00    -0.028 NA 
HETATM   22  H1  UNL     1      -4.858   6.939  66.000  1.00  0.00     0.000 HD 
HETATM   23  C   UNL     1      -8.602   6.331  65.938  1.00  0.00    -0.148 A  
HETATM   24  H2  UNL     1      -4.966   8.703  66.194  1.00  0.00     0.000 HD 
HETATM   25  C   UNL     1      -9.442   7.406  66.158  1.00  0.00    -0.076 A  
BRANCH  23  26
HETATM   26  O   UNL     1      -9.219   5.143  65.588  1.00  0.00    -0.156 OA 
BRANCH  26  27
HETATM   27  C   UNL     1      -9.801   4.349  66.651  1.00  0.00    -0.226 C  
HETATM   28  C   UNL     1      -9.286   2.893  66.784  1.00  0.00    -0.124 C  
HETATM   29  F   UNL     1      -8.524   2.476  65.749  1.00  0.00    -0.086 F  
HETATM   30  F   UNL     1     -10.355   2.046  66.847  1.00  0.00     1.004 F  
HETATM   31  F   UNL     1      -8.583   2.670  67.921  1.00  0.00    -0.084 F  
BRANCH  27  32
HETATM   32  C   UNL     1      -9.763   5.124  68.005  1.00  0.00    -0.188 A  
HETATM   33  C   UNL     1     -10.979   5.716  68.422  1.00  0.00    -0.038 A  
HETATM   34  C   UNL     1     -11.044   6.559  69.535  1.00  0.00    -0.425 A  
HETATM   35  C   UNL     1      -9.891   6.847  70.249  1.00  0.00    -0.178 A  
HETATM   36  C   UNL     1      -8.692   6.209  69.932  1.00  0.00    -0.136 A  
HETATM   37 CL   UNL     1      -9.939   7.988  71.537  1.00  0.00    -0.213 Cl 
HETATM   38  C   UNL     1      -8.630   5.302  68.853  1.00  0.00    -0.091 A  
BRANCH  38  39
HETATM   39  N   UNL     1      -7.424   4.563  68.673  1.00  0.00    -0.064 NA 
HETATM   40  C   UNL     1      -6.455   4.678  67.693  1.00  0.00    -0.045 A  
HETATM   41  C   UNL     1      -5.613   3.598  67.846  1.00  0.00    -0.021 A  
HETATM   42  C   UNL     1      -6.096   2.941  68.985  1.00  0.00    -0.025 A  
HETATM   43  N   UNL     1      -7.069   3.626  69.565  1.00  0.00    -0.042 NA 
HETATM   44  C   UNL     1      -5.700   1.638  69.577  1.00  0.00    -0.018 C  
ENDBRANCH  38  39
ENDBRANCH  27  32
ENDBRANCH  26  27
ENDBRANCH  23  26
ENDBRANCH  14  17
ENDBRANCH  10  11
ENDBRANCH   6  10
ENDBRANCH   4   6
ENDBRANCH   3   4
ENDBRANCH   2   3
TORSDOF 10
ENDMDL
MODEL      248
REMARK 921   NORMALIZED FREE ENERGY PREDICTED BY IDOCK:    0.05 KCAL/MOL
REMARK 922        TOTAL FREE ENERGY PREDICTED BY IDOCK:   -2.26 KCAL/MOL
REMARK 923 INTER-LIGAND FREE ENERGY PREDICTED BY IDOCK:   -3.11 KCAL/MOL
REMARK 924 INTRA-LIGAND FREE ENERGY PREDICTED BY IDOCK:    0.84 KCAL/MOL
REMARK 927      BINDING AFFINITY PREDICTED BY RF-SCORE:    0.00 PKD
ROOT
HETATM    1  C   UNL     1     -14.061  15.663  72.471  1.00  0.00    -0.562 C  
HETATM    2  C   UNL     1     -13.354  16.292  71.284  1.00  0.00     1.592 C  
ENDROOT
BRANCH   2   3
HETATM    3  O   UNL     1     -13.216  15.284  70.275  1.00  0.00    -0.194 OA 
BRANCH   3   4
HETATM    4  C   UNL     1     -12.228  15.525  69.359  1.00  0.00    -0.205 C  
HETATM    5  O   UNL     1     -12.315  16.298  68.415  1.00  0.00     0.428 OA 
BRANCH   4   6
HETATM    6  C   UNL     1     -10.994  14.694  69.737  1.00  0.00    -0.201 C  
HETATM    7  N   UNL     1     -10.252  15.394  70.812  1.00  0.00    -0.242 NA 
HETATM    8  H2  UNL     1     -10.841  15.604  71.618  1.00  0.00     0.000 HD 
HETATM    9  H1  UNL     1      -9.432  14.842  71.062  1.00  0.00     0.000 HD 
BRANCH   6  10
HETATM   10  C   UNL     1     -11.404  13.266  70.158  1.00  0.00     0.101 C  
BRANCH  10  11
HETATM   11  C   UNL     1     -10.936  12.123  69.267  1.00  0.00    -0.168 A  
HETATM   12  C   UNL     1     -10.669  10.835  69.740  1.00  0.00    -0.241 A  
HETATM   13  C   UNL     1     -10.211   9.818  68.865  1.00  0.00    -0.213 A  
HETATM   14  C   UNL     1      -9.993  10.042  67.488  1.00  0.00    -0.232 A  
HETATM   15  C   UNL     1     -10.346  11.324  67.028  1.00  0.00    -0.263 A  
HETATM   16  C   UNL     1     -10.796  12.338  67.892  1.00  0.00    -0.252 A  
BRANCH  14  17
HETATM   17  C   UNL     1      -9.331   9.022  66.602  1.00  0.00    -0.177 A  
HETATM   18  N   UNL     1      -8.731   9.487  65.481  1.00  0.00    -0.145 NA 
HETATM   19  C   UNL     1      -8.292   8.592  64.584  1.00  0.00    -0.155 A  
HETATM   20  N   UNL     1      -8.455   7.266  64.657  1.00  0.00     0.066 NA 
HETATM   21  N   UNL     1      -7.694   9.081  63.441  1.00  0.00    -0.118 NA 
HETATM   22  H1  UNL     1      -7.360   8.401  62.759  1.00  0.00     0.000 HD 
HETATM   23  C   UNL     1      -9.030   6.826  65.778  1.00  0.00    -0.016 A  
HETATM   24  H2  UNL     1      -7.590  10.084  63.284  1.00  0.00     0.000 HD 
HETATM   25  C   UNL     1      -9.441   7.655  66.804  1.00  0.00    -0.244 A  
BRANCH  23  26
HETATM   26  O   UNL     1      -9.386   5.494  65.899  1.00  0.00    -0.161 OA 
BRANCH  26  27
HETATM   27  C   UNL     1      -8.964   4.791  67.093  1.00  0.00    -0.112 C  
HETATM   28  C   UNL     1      -8.274   3.420  66.877  1.00  0.00    -0.092 C  
HETATM   29  F   UNL     1      -8.357   2.948  65.614  1.00  0.00    -0.088 F  
HETATM   30  F   UNL     1      -8.869   2.490  67.681  1.00  0.00    -0.104 F  
HETATM   31  F   UNL     1      -6.965   3.412  67.228  1.00  0.00    -0.052 F  
BRANCH  27  32
HETATM   32  C   UNL     1      -8.144   5.733  68.029  1.00  0.00    -0.104 A  
HETATM   33  C   UNL     1      -6.915   6.212  67.516  1.00  0.00    -0.069 A  
HETATM   34  C   UNL     1      -6.021   6.939  68.305  1.00  0.00    -0.028 A  
HETATM   35  C   UNL     1      -6.323   7.191  69.635  1.00  0.00    -0.035 A  
HETATM   36  C   UNL     1      -7.565   6.824  70.154  1.00  0.00    -0.099 A  
HETATM   37 CL   UNL     1      -5.168   7.969  70.646  1.00  0.00    -0.023 Cl 
HETATM   38  C   UNL     1      -8.504   6.150  69.345  1.00  0.00    -0.120 A  
BRANCH  38  39
HETATM   39  N   UNL     1      -9.810   5.939  69.877  1.00  0.00    -0.167 NA 
HETATM   40  C   UNL     1     -11.044   6.279  69.351  1.00  0.00    -0.410 A  
HETATM   41  C   UNL     1     -11.969   6.051  70.346  1.00  0.00     0.439 A  
HETATM   42  C   UNL     1     -11.223   5.497  71.394  1.00  0.00    -0.011 A  
HETATM   43  N   UNL     1      -9.968   5.278  71.033  1.00  0.00    -0.190 NA 
HETATM   44  C   UNL     1     -11.625   5.169  72.785  1.00  0.00    -0.241 C  
ENDBRANCH  38  39
ENDBRANCH  27  32
ENDBRANCH  26  27
ENDBRANCH  23  26
ENDBRANCH  14  17
ENDBRANCH  10  11
ENDBRANCH   6  10
ENDBRANCH   4   6
ENDBRANCH   3   4
ENDBRANCH   2   3
TORSDOF 10
ENDMDL
MODEL      249
REMARK 921   NORMALIZED FREE ENERGY PREDICTED BY IDOCK:    0.10 KCAL/MOL
REMARK 922        TOTAL FREE ENERGY PREDICTED BY IDOCK:   -2.19 KCAL/MOL
REMARK 923 INTER-LIGAND FREE ENERGY PREDICTED BY IDOCK:   -7.53 KCAL/MOL
REMARK 924 INTRA-LIGAND FREE ENERGY PREDICTED BY IDOCK:    5.34 KCAL/MOL
REMARK 927      BINDING AFFINITY PREDICTED BY RF-SCORE:    0.00 PKD
ROOT
HETATM    1  C   UNL     1     -11.922   7.025  72.465  1.00  0.00    -0.092 C  
HETATM    2  C   UNL     1     -12.779   6.616  71.281  1.00  0.00    -0.117 C  
ENDROOT
BRANCH   2   3
HETATM    3  O   UNL     1     -12.043   6.909  70.087  1.00  0.00    -0.234 OA 
BRANCH   3   4
HETATM    4  C   UNL     1     -10.804   6.333  70.025  1.00  0.00    -0.324 C  
HETATM    5  O   UNL     1     -10.110   6.049  70.992  1.00  0.00    -0.182 OA 
BRANCH   4   6
HETATM    6  C   UNL     1     -10.453   6.076  68.553  1.00  0.00    -0.234 C  
HETATM    7  N   UNL     1     -11.507   6.669  67.696  1.00  0.00    -0.685 NA 
HETATM    8  H2  UNL     1     -11.657   7.659  67.893  1.00  0.00     0.000 HD 
HETATM    9  H1  UNL     1     -11.274   6.498  66.718  1.00  0.00     0.000 HD 
BRANCH   6  10
HETATM   10  C   UNL     1      -9.055   6.638  68.217  1.00  0.00    -0.123 C  
BRANCH  10  11
HETATM   11  C   UNL     1      -8.884   8.151  68.289  1.00  0.00    -0.133 A  
HETATM   12  C   UNL     1      -9.780   9.057  67.715  1.00  0.00    -0.190 A  
HETATM   13  C   UNL     1      -9.554  10.453  67.794  1.00  0.00    -0.169 A  
HETATM   14  C   UNL     1      -8.425  11.005  68.439  1.00  0.00    -0.144 A  
HETATM   15  C   UNL     1      -7.585  10.073  69.075  1.00  0.00    -0.090 A  
HETATM   16  C   UNL     1      -7.803   8.685  68.996  1.00  0.00    -0.100 A  
BRANCH  14  17
HETATM   17  C   UNL     1      -8.089  12.469  68.360  1.00  0.00    -0.136 A  
HETATM   18  N   UNL     1      -6.835  12.786  67.960  1.00  0.00    -0.086 NA 
HETATM   19  C   UNL     1      -6.448  14.066  68.051  1.00  0.00    -0.149 A  
HETATM   20  N   UNL     1      -7.167  15.066  68.574  1.00  0.00    -0.110 NA 
HETATM   21  N   UNL     1      -5.164  14.371  67.651  1.00  0.00    -0.330 NA 
HETATM   22  H1  UNL     1      -4.869  15.344  67.721  1.00  0.00     0.000 HD 
HETATM   23  C   UNL     1      -8.408  14.739  68.945  1.00  0.00    -0.163 A  
HETATM   24  H2  UNL     1      -4.532  13.650  67.299  1.00  0.00     0.000 HD 
HETATM   25  C   UNL     1      -8.936  13.469  68.814  1.00  0.00     0.098 A  
BRANCH  23  26
HETATM   26  O   UNL     1      -9.188  15.649  69.635  1.00  0.00    -0.277 OA 
BRANCH  26  27
HETATM   27  C   UNL     1     -10.148  16.424  68.875  1.00  0.00    -0.255 C  
HETATM   28  C   UNL     1      -9.886  17.948  68.785  1.00  0.00    -0.352 C  
HETATM   29  F   UNL     1      -8.920  18.397  69.617  1.00  0.00     0.222 F  
HETATM   30  F   UNL     1     -11.029  18.618  69.118  1.00  0.00     0.383 F  
HETATM   31  F   UNL     1      -9.573  18.371  67.535  1.00  0.00    -0.272 F  
BRANCH  27  32
HETATM   32  C   UNL     1     -10.399  15.776  67.477  1.00  0.00    -0.280 A  
HETATM   33  C   UNL     1     -11.510  14.904  67.382  1.00  0.00    -0.354 A  
HETATM   34  C   UNL     1     -11.756  14.148  66.232  1.00  0.00    -0.402 A  
HETATM   35  C   UNL     1     -10.886  14.229  65.155  1.00  0.00    -0.378 A  
HETATM   36  C   UNL     1      -9.836  15.147  65.169  1.00  0.00    -0.170 A  
HETATM   37 CL   UNL     1     -11.108  13.202  63.792  1.00  0.00    -0.349 Cl 
HETATM   38  C   UNL     1      -9.620  15.966  66.297  1.00  0.00    -0.316 A  
BRANCH  38  39
HETATM   39  N   UNL     1      -8.635  16.991  66.197  1.00  0.00    -0.466 NA 
HETATM   40  C   UNL     1      -8.779  18.325  65.856  1.00  0.00     0.213 A  
HETATM   41  C   UNL     1      -7.506  18.827  65.698  1.00  0.00    -0.035 A  
HETATM   42  C   UNL     1      -6.666  17.761  66.045  1.00  0.00    -0.281 A  
HETATM   43  N   UNL     1      -7.356  16.730  66.506  1.00  0.00    -0.267 NA 
HETATM   44  C   UNL     1      -5.190  17.634  65.943  1.00  0.00    -0.200 C  
ENDBRANCH  38  39
ENDBRANCH  27  32
ENDBRANCH  26  27
ENDBRANCH  23  26
ENDBRANCH  14  17
ENDBRANCH  10  11
ENDBRANCH   6  10
ENDBRANCH   4   6
ENDBRANCH   3   4
ENDBRANCH   2   3
TORSDOF 10
ENDMDL
MODEL      250
REMARK 921   NORMALIZED FREE ENERGY PREDICTED BY IDOCK:    0.16 KCAL/MOL
REMARK 922        TOTAL FREE ENERGY PREDICTED BY IDOCK:   -2.09 KCAL/MOL
REMARK 923 INTER-LIGAND FREE ENERGY PREDICTED BY IDOCK:   -7.48 KCAL/MOL
REMARK 924 INTRA-LIGAND FREE ENERGY PREDICTED BY IDOCK:    5.39 KCAL/MOL
REMARK 927      BINDING AFFINITY PREDICTED BY RF-SCORE:    0.00 PKD
ROOT
HETATM    1  C   UNL     1      -9.211  19.500  69.303  1.00  0.00    -0.097 C  
HETATM    2  C   UNL     1      -8.017  19.651  68.378  1.00  0.00    -0.322 C  
ENDROOT
BRANCH   2   3
HETATM    3  O   UNL     1      -8.515  19.941  67.067  1.00  0.00    -0.302 OA 
BRANCH   3   4
HETATM    4  C   UNL     1      -8.779  18.838  66.300  1.00  0.00    -0.233 C  
HETATM    5  O   UNL     1      -7.999  18.329  65.507  1.00  0.00    -0.373 OA 
BRANCH   4   6
HETATM    6  C   UNL     1     -10.192  18.337  66.629  1.00  0.00    -0.384 C  
HETATM    7  N   UNL     1     -11.114  19.495  66.682  1.00  0.00    -0.247 NA 
HETATM    8  H2  UNL     1     -11.089  20.052  65.828  1.00  0.00     0.000 HD 
HETATM    9  H1  UNL     1     -12.053  19.161  66.901  1.00  0.00     0.000 HD 
BRANCH   6  10
HETATM   10  C   UNL     1     -10.652  17.283  65.599  1.00  0.00    -0.173 C  
BRANCH  10  11
HETATM   11  C   UNL     1     -10.221  15.842  65.847  1.00  0.00    -0.373 A  
HETATM   12  C   UNL     1      -8.914  15.473  66.176  1.00  0.00    -0.329 A  
HETATM   13  C   UNL     1      -8.569  14.113  66.370  1.00  0.00     0.288 A  
HETATM   14  C   UNL     1      -9.506  13.065  66.238  1.00  0.00    -0.199 A  
HETATM   15  C   UNL     1     -10.828  13.473  65.985  1.00  0.00    -0.282 A  
HETATM   16  C   UNL     1     -11.175  14.822  65.787  1.00  0.00    -0.337 A  
BRANCH  14  17
HETATM   17  C   UNL     1      -9.101  11.615  66.258  1.00  0.00    -0.214 A  
HETATM   18  N   UNL     1      -7.880  11.317  65.755  1.00  0.00     0.089 NA 
HETATM   19  C   UNL     1      -7.564  10.024  65.593  1.00  0.00    -0.137 A  
HETATM   20  N   UNL     1      -8.377   8.985  65.818  1.00  0.00    -0.122 NA 
HETATM   21  N   UNL     1      -6.322   9.736  65.067  1.00  0.00    -0.089 NA 
HETATM   22  H1  UNL     1      -6.081   8.753  64.943  1.00  0.00     0.000 HD 
HETATM   23  C   UNL     1      -9.569   9.298  66.333  1.00  0.00    -0.238 A  
HETATM   24  H2  UNL     1      -5.669  10.477  64.811  1.00  0.00     0.000 HD 
HETATM   25  C   UNL     1      -9.962  10.591  66.619  1.00  0.00    -0.260 A  
BRANCH  23  26
HETATM   26  O   UNL     1     -10.544   8.326  66.465  1.00  0.00    -0.193 OA 
BRANCH  26  27
HETATM   27  C   UNL     1     -10.202   7.127  67.203  1.00  0.00    -0.257 C  
HETATM   28  C   UNL     1      -8.830   6.485  66.875  1.00  0.00    -0.120 C  
HETATM   29  F   UNL     1      -8.225   6.995  65.780  1.00  0.00    -0.105 F  
HETATM   30  F   UNL     1      -9.007   5.152  66.637  1.00  0.00    -0.115 F  
HETATM   31  F   UNL     1      -7.943   6.552  67.897  1.00  0.00    -0.103 F  
BRANCH  27  32
HETATM   32  C   UNL     1     -10.413   7.341  68.734  1.00  0.00    -0.214 A  
HETATM   33  C   UNL     1     -11.488   6.633  69.324  1.00  0.00    -0.253 A  
HETATM   34  C   UNL     1     -11.874   6.851  70.649  1.00  0.00    -0.418 A  
HETATM   35  C   UNL     1     -11.207   7.795  71.414  1.00  0.00    -0.246 A  
HETATM   36  C   UNL     1     -10.082   8.443  70.905  1.00  0.00    -0.234 A  
HETATM   37 CL   UNL     1     -11.762   8.163  73.001  1.00  0.00    -0.196 Cl 
HETATM   38  C   UNL     1      -9.640   8.180  69.592  1.00  0.00    -0.168 A  
BRANCH  38  39
HETATM   39  N   UNL     1      -8.400   8.748  69.179  1.00  0.00    -0.123 NA 
HETATM   40  C   UNL     1      -7.199   8.129  68.883  1.00  0.00    -0.078 A  
HETATM   41  C   UNL     1      -6.264   9.132  68.748  1.00  0.00    -0.044 A  
HETATM   42  C   UNL     1      -7.001  10.315  68.892  1.00  0.00    -0.065 A  
HETATM   43  N   UNL     1      -8.299  10.070  68.976  1.00  0.00    -0.124 NA 
HETATM   44  C   UNL     1      -6.540  11.723  68.986  1.00  0.00    -0.094 C  
ENDBRANCH  38  39
ENDBRANCH  27  32
ENDBRANCH  26  27
ENDBRANCH  23  26
ENDBRANCH  14  17
ENDBRANCH  10  11
ENDBRANCH   6  10
ENDBRANCH   4   6
ENDBRANCH   3   4
ENDBRANCH   2   3
TORSDOF 10
ENDMDL
MODEL      251
REMARK 921   NORMALIZED FREE ENERGY PREDICTED BY IDOCK:    0.47 KCAL/MOL
REMARK 922        TOTAL FREE ENERGY PREDICTED BY IDOCK:   -1.60 KCAL/MOL
REMARK 923 INTER-LIGAND FREE ENERGY PREDICTED BY IDOCK:   -4.97 KCAL/MOL
REMARK 924 INTRA-LIGAND FREE ENERGY PREDICTED BY IDOCK:    3.37 KCAL/MOL
REMARK 927      BINDING AFFINITY PREDICTED BY RF-SCORE:    0.00 PKD
ROOT
HETATM    1  C   UNL     1     -12.955  15.509  73.078  1.00  0.00    -0.609 C  
HETATM    2  C   UNL     1     -12.330  14.525  72.106  1.00  0.00    -0.260 C  
ENDROOT
BRANCH   2   3
HETATM    3  O   UNL     1     -11.651  15.280  71.096  1.00  0.00    -0.310 OA 
BRANCH   3   4
HETATM    4  C   UNL     1     -11.102  14.527  70.093  1.00  0.00    -0.082 C  
HETATM    5  O   UNL     1      -9.910  14.478  69.822  1.00  0.00     0.157 OA 
BRANCH   4   6
HETATM    6  C   UNL     1     -12.221  13.738  69.400  1.00  0.00    -0.278 C  
HETATM    7  N   UNL     1     -12.217  14.065  67.955  1.00  0.00    -0.520 NA 
HETATM    8  H2  UNL     1     -11.306  13.907  67.523  1.00  0.00     0.000 HD 
HETATM    9  H1  UNL     1     -12.961  13.540  67.494  1.00  0.00     0.000 HD 
BRANCH   6  10
HETATM   10  C   UNL     1     -12.057  12.223  69.648  1.00  0.00    -0.277 C  
BRANCH  10  11
HETATM   11  C   UNL     1     -11.009  11.497  68.813  1.00  0.00    -0.271 A  
HETATM   12  C   UNL     1     -11.221  11.087  67.494  1.00  0.00    -0.372 A  
HETATM   13  C   UNL     1     -10.215  10.393  66.776  1.00  0.00    -0.282 A  
HETATM   14  C   UNL     1      -8.963  10.072  67.343  1.00  0.00    -0.139 A  
HETATM   15  C   UNL     1      -8.749  10.567  68.642  1.00  0.00    -0.143 A  
HETATM   16  C   UNL     1      -9.746  11.252  69.360  1.00  0.00     0.238 A  
BRANCH  14  17
HETATM   17  C   UNL     1      -7.972   9.175  66.650  1.00  0.00    -0.104 A  
HETATM   18  N   UNL     1      -8.188   8.929  65.337  1.00  0.00    -0.122 NA 
HETATM   19  C   UNL     1      -7.433   7.997  64.738  1.00  0.00    -0.091 A  
HETATM   20  N   UNL     1      -6.520   7.225  65.338  1.00  0.00    -0.043 NA 
HETATM   21  N   UNL     1      -7.674   7.748  63.403  1.00  0.00    -0.130 NA 
HETATM   22  H1  UNL     1      -7.100   7.039  62.947  1.00  0.00     0.000 HD 
HETATM   23  C   UNL     1      -6.307   7.496  66.628  1.00  0.00    -0.045 A  
HETATM   24  H2  UNL     1      -8.398   8.253  62.890  1.00  0.00     0.000 HD 
HETATM   25  C   UNL     1      -6.968   8.493  67.319  1.00  0.00    -0.075 A  
BRANCH  23  26
HETATM   26  O   UNL     1      -5.499   6.668  67.387  1.00  0.00    -0.011 OA 
BRANCH  26  27
HETATM   27  C   UNL     1      -6.138   5.593  68.119  1.00  0.00    -0.018 C  
HETATM   28  C   UNL     1      -7.274   6.002  69.091  1.00  0.00    -0.082 C  
HETATM   29  F   UNL     1      -7.372   7.333  69.303  1.00  0.00    -0.076 F  
HETATM   30  F   UNL     1      -7.045   5.429  70.309  1.00  0.00    -0.053 F  
HETATM   31  F   UNL     1      -8.497   5.561  68.710  1.00  0.00    -0.099 F  
BRANCH  27  32
HETATM   32  C   UNL     1      -6.561   4.442  67.154  1.00  0.00    -0.046 A  
HETATM   33  C   UNL     1      -5.979   4.460  65.864  1.00  0.00    -0.023 A  
HETATM   34  C   UNL     1      -6.385   3.576  64.860  1.00  0.00    -0.027 A  
HETATM   35  C   UNL     1      -7.396   2.662  65.115  1.00  0.00    -0.067 A  
HETATM   36  C   UNL     1      -7.928   2.544  66.399  1.00  0.00    -0.081 A  
HETATM   37 CL   UNL     1      -7.992   1.664  63.846  1.00  0.00    -0.061 Cl 
HETATM   38  C   UNL     1      -7.477   3.385  67.438  1.00  0.00    -0.066 A  
BRANCH  38  39
HETATM   39  N   UNL     1      -7.938   3.116  68.760  1.00  0.00    -0.057 NA 
HETATM   40  C   UNL     1      -9.188   3.318  69.317  1.00  0.00    -0.149 A  
HETATM   41  C   UNL     1      -9.053   3.098  70.671  1.00  0.00    -0.191 A  
HETATM   42  C   UNL     1      -7.722   2.686  70.824  1.00  0.00    -0.042 A  
HETATM   43  N   UNL     1      -7.123   2.537  69.654  1.00  0.00    -0.036 NA 
HETATM   44  C   UNL     1      -6.935   2.437  72.058  1.00  0.00    -0.026 C  
ENDBRANCH  38  39
ENDBRANCH  27  32
ENDBRANCH  26  27
ENDBRANCH  23  26
ENDBRANCH  14  17
ENDBRANCH  10  11
ENDBRANCH   6  10
ENDBRANCH   4   6
ENDBRANCH   3   4
ENDBRANCH   2   3
TORSDOF 10
ENDMDL
MODEL      252
REMARK 921   NORMALIZED FREE ENERGY PREDICTED BY IDOCK:    0.73 KCAL/MOL
REMARK 922        TOTAL FREE ENERGY PREDICTED BY IDOCK:   -1.19 KCAL/MOL
REMARK 923 INTER-LIGAND FREE ENERGY PREDICTED BY IDOCK:   -5.73 KCAL/MOL
REMARK 924 INTRA-LIGAND FREE ENERGY PREDICTED BY IDOCK:    4.54 KCAL/MOL
REMARK 927      BINDING AFFINITY PREDICTED BY RF-SCORE:    0.00 PKD
ROOT
HETATM    1  C   UNL     1      -7.387  19.379  66.589  1.00  0.00    -0.240 C  
HETATM    2  C   UNL     1      -7.230  20.111  67.909  1.00  0.00    -0.294 C  
ENDROOT
BRANCH   2   3
HETATM    3  O   UNL     1      -8.525  20.198  68.516  1.00  0.00    -0.096 OA 
BRANCH   3   4
HETATM    4  C   UNL     1      -9.352  19.141  68.251  1.00  0.00    -0.344 C  
HETATM    5  O   UNL     1      -9.347  18.075  68.851  1.00  0.00    -0.254 OA 
BRANCH   4   6
HETATM    6  C   UNL     1     -10.298  19.531  67.107  1.00  0.00    -0.451 C  
HETATM    7  N   UNL     1      -9.828  20.801  66.505  1.00  0.00    -0.555 NA 
HETATM    8  H2  UNL     1      -8.855  20.752  66.204  1.00  0.00     0.000 HD 
HETATM    9  H1  UNL     1     -10.457  21.060  65.745  1.00  0.00     0.000 HD 
BRANCH   6  10
HETATM   10  C   UNL     1     -10.389  18.398  66.062  1.00  0.00    -0.397 C  
BRANCH  10  11
HETATM   11  C   UNL     1      -9.793  17.051  66.450  1.00  0.00    -0.312 A  
HETATM   12  C   UNL     1     -10.561  15.910  66.701  1.00  0.00    -0.305 A  
HETATM   13  C   UNL     1      -9.950  14.691  67.083  1.00  0.00    -0.240 A  
HETATM   14  C   UNL     1      -8.552  14.558  67.239  1.00  0.00    -0.231 A  
HETATM   15  C   UNL     1      -7.802  15.699  66.903  1.00  0.00    -0.258 A  
HETATM   16  C   UNL     1      -8.404  16.913  66.527  1.00  0.00    -0.315 A  
BRANCH  14  17
HETATM   17  C   UNL     1      -7.922  13.323  67.824  1.00  0.00    -0.166 A  
HETATM   18  N   UNL     1      -6.828  12.839  67.191  1.00  0.00    -0.070 NA 
HETATM   19  C   UNL     1      -6.352  11.647  67.577  1.00  0.00    -0.087 A  
HETATM   20  N   UNL     1      -6.904  10.842  68.492  1.00  0.00    -0.057 NA 
HETATM   21  N   UNL     1      -5.244  11.161  66.914  1.00  0.00    -0.067 NA 
HETATM   22  H1  UNL     1      -4.882  10.254  67.207  1.00  0.00     0.000 HD 
HETATM   23  C   UNL     1      -7.971  11.345  69.120  1.00  0.00     0.055 A  
HETATM   24  H2  UNL     1      -4.803  11.689  66.160  1.00  0.00     0.000 HD 
HETATM   25  C   UNL     1      -8.490  12.598  68.860  1.00  0.00     0.294 A  
BRANCH  23  26
HETATM   26  O   UNL     1      -8.712  10.548  69.974  1.00  0.00     0.133 OA 
BRANCH  26  27
HETATM   27  C   UNL     1      -9.544   9.519  69.382  1.00  0.00    -0.180 C  
HETATM   28  C   UNL     1     -10.707   8.988  70.257  1.00  0.00    -0.230 C  
HETATM   29  F   UNL     1     -10.661   9.387  71.547  1.00  0.00    -0.366 F  
HETATM   30  F   UNL     1     -10.667   7.623  70.270  1.00  0.00    -0.219 F  
HETATM   31  F   UNL     1     -11.935   9.306  69.777  1.00  0.00     0.027 F  
BRANCH  27  32
HETATM   32  C   UNL     1     -10.012   9.940  67.954  1.00  0.00    -0.190 A  
HETATM   33  C   UNL     1     -10.602  11.222  67.841  1.00  0.00    -0.231 A  
HETATM   34  C   UNL     1     -11.195  11.658  66.653  1.00  0.00    -0.362 A  
HETATM   35  C   UNL     1     -11.229  10.815  65.552  1.00  0.00     0.385 A  
HETATM   36  C   UNL     1     -10.575   9.584  65.589  1.00  0.00     0.676 A  
HETATM   37 CL   UNL     1     -12.075  11.293  64.131  1.00  0.00     0.238 Cl 
HETATM   38  C   UNL     1      -9.913   9.164  66.761  1.00  0.00    -0.254 A  
BRANCH  38  39
HETATM   39  N   UNL     1      -9.130   7.974  66.694  1.00  0.00    -0.153 NA 
HETATM   40  C   UNL     1      -7.775   7.820  66.461  1.00  0.00    -0.097 A  
HETATM   41  C   UNL     1      -7.560   6.471  66.285  1.00  0.00    -0.090 A  
HETATM   42  C   UNL     1      -8.813   5.886  66.513  1.00  0.00    -0.128 A  
HETATM   43  N   UNL     1      -9.697   6.781  66.925  1.00  0.00    -0.160 NA 
HETATM   44  C   UNL     1      -9.259   4.482  66.336  1.00  0.00    -0.137 C  
ENDBRANCH  38  39
ENDBRANCH  27  32
ENDBRANCH  26  27
ENDBRANCH  23  26
ENDBRANCH  14  17
ENDBRANCH  10  11
ENDBRANCH   6  10
ENDBRANCH   4   6
ENDBRANCH   3   4
ENDBRANCH   2   3
TORSDOF 10
ENDMDL
MODEL      253
REMARK 921   NORMALIZED FREE ENERGY PREDICTED BY IDOCK:    0.76 KCAL/MOL
REMARK 922        TOTAL FREE ENERGY PREDICTED BY IDOCK:   -1.14 KCAL/MOL
REMARK 923 INTER-LIGAND FREE ENERGY PREDICTED BY IDOCK:   -6.88 KCAL/MOL
REMARK 924 INTRA-LIGAND FREE ENERGY PREDICTED BY IDOCK:    5.74 KCAL/MOL
REMARK 927      BINDING AFFINITY PREDICTED BY RF-SCORE:    0.00 PKD
ROOT
HETATM    1  C   UNL     1      -7.762   5.399  71.833  1.00  0.00    -0.104 C  
HETATM    2  C   UNL     1      -6.860   4.644  72.793  1.00  0.00    -0.065 C  
ENDROOT
BRANCH   2   3
HETATM    3  O   UNL     1      -6.291   5.596  73.699  1.00  0.00    -0.066 OA 
BRANCH   3   4
HETATM    4  C   UNL     1      -6.035   6.823  73.149  1.00  0.00    -0.057 C  
HETATM    5  O   UNL     1      -5.225   7.040  72.258  1.00  0.00    -0.035 OA 
BRANCH   4   6
HETATM    6  C   UNL     1      -6.951   7.860  73.812  1.00  0.00    -0.113 C  
HETATM    7  N   UNL     1      -6.334   9.202  73.681  1.00  0.00    -0.323 NA 
HETATM    8  H2  UNL     1      -6.117   9.437  72.713  1.00  0.00     0.000 HD 
HETATM    9  H1  UNL     1      -6.944   9.891  74.122  1.00  0.00     0.000 HD 
BRANCH   6  10
HETATM   10  C   UNL     1      -8.365   7.816  73.193  1.00  0.00    -0.207 C  
BRANCH  10  11
HETATM   11  C   UNL     1      -8.511   8.329  71.766  1.00  0.00    -0.207 A  
HETATM   12  C   UNL     1      -9.744   8.603  71.167  1.00  0.00    -0.287 A  
HETATM   13  C   UNL     1      -9.816   9.055  69.826  1.00  0.00    -0.188 A  
HETATM   14  C   UNL     1      -8.669   9.245  69.025  1.00  0.00    -0.135 A  
HETATM   15  C   UNL     1      -7.442   9.037  69.680  1.00  0.00    -0.076 A  
HETATM   16  C   UNL     1      -7.364   8.584  71.009  1.00  0.00    -0.074 A  
BRANCH  14  17
HETATM   17  C   UNL     1      -8.756   9.541  67.552  1.00  0.00    -0.126 A  
HETATM   18  N   UNL     1      -7.882   8.893  66.747  1.00  0.00    -0.097 NA 
HETATM   19  C   UNL     1      -7.812   9.266  65.462  1.00  0.00    -0.099 A  
HETATM   20  N   UNL     1      -8.482  10.281  64.904  1.00  0.00    -0.171 NA 
HETATM   21  N   UNL     1      -6.907   8.605  64.657  1.00  0.00    -0.072 NA 
HETATM   22  H1  UNL     1      -6.854   8.889  63.680  1.00  0.00     0.000 HD 
HETATM   23  C   UNL     1      -9.354  10.895  65.708  1.00  0.00    -0.203 A  
HETATM   24  H2  UNL     1      -6.314   7.860  65.026  1.00  0.00     0.000 HD 
HETATM   25  C   UNL     1      -9.567  10.533  67.024  1.00  0.00    -0.202 A  
BRANCH  23  26
HETATM   26  O   UNL     1      -9.991  12.049  65.287  1.00  0.00    -0.251 OA 
BRANCH  26  27
HETATM   27  C   UNL     1     -10.231  13.083  66.274  1.00  0.00    -0.288 C  
HETATM   28  C   UNL     1     -11.541  12.961  67.093  1.00  0.00    -0.363 C  
HETATM   29  F   UNL     1     -12.405  12.033  66.626  1.00  0.00    -0.217 F  
HETATM   30  F   UNL     1     -12.199  14.157  67.061  1.00  0.00    -0.425 F  
HETATM   31  F   UNL     1     -11.336  12.699  68.407  1.00  0.00    -0.246 F  
BRANCH  27  32
HETATM   32  C   UNL     1      -8.976  13.286  67.179  1.00  0.00    -0.229 A  
HETATM   33  C   UNL     1      -7.803  12.594  66.788  1.00  0.00     0.159 A  
HETATM   34  C   UNL     1      -6.659  12.573  67.591  1.00  0.00    -0.136 A  
HETATM   35  C   UNL     1      -6.663  13.227  68.813  1.00  0.00    -0.099 A  
HETATM   36  C   UNL     1      -7.760  14.001  69.192  1.00  0.00     0.068 A  
HETATM   37 CL   UNL     1      -5.307  13.093  69.864  1.00  0.00    -0.089 Cl 
HETATM   38  C   UNL     1      -8.894  14.086  68.357  1.00  0.00    -0.180 A  
BRANCH  38  39
HETATM   39  N   UNL     1      -9.917  15.012  68.716  1.00  0.00    -0.221 NA 
HETATM   40  C   UNL     1     -10.233  16.239  68.161  1.00  0.00    -0.258 A  
HETATM   41  C   UNL     1     -11.154  16.823  69.003  1.00  0.00    -0.171 A  
HETATM   42  C   UNL     1     -11.397  15.850  69.981  1.00  0.00    -0.358 A  
HETATM   43  N   UNL     1     -10.782  14.713  69.697  1.00  0.00    -0.194 NA 
HETATM   44  C   UNL     1     -12.187  15.932  71.236  1.00  0.00    -0.473 C  
ENDBRANCH  38  39
ENDBRANCH  27  32
ENDBRANCH  26  27
ENDBRANCH  23  26
ENDBRANCH  14  17
ENDBRANCH  10  11
ENDBRANCH   6  10
ENDBRANCH   4   6
ENDBRANCH   3   4
ENDBRANCH   2   3
TORSDOF 10
ENDMDL
MODEL      254
REMARK 921   NORMALIZED FREE ENERGY PREDICTED BY IDOCK:    1.00 KCAL/MOL
REMARK 922        TOTAL FREE ENERGY PREDICTED BY IDOCK:   -0.75 KCAL/MOL
REMARK 923 INTER-LIGAND FREE ENERGY PREDICTED BY IDOCK:   -4.01 KCAL/MOL
REMARK 924 INTRA-LIGAND FREE ENERGY PREDICTED BY IDOCK:    3.26 KCAL/MOL
REMARK 927      BINDING AFFINITY PREDICTED BY RF-SCORE:    0.00 PKD
ROOT
HETATM    1  C   UNL     1     -13.621  13.459  65.534  1.00  0.00     1.468 C  
HETATM    2  C   UNL     1     -12.356  14.287  65.670  1.00  0.00    -0.405 C  
ENDROOT
BRANCH   2   3
HETATM    3  O   UNL     1     -11.527  13.658  66.655  1.00  0.00    -0.319 OA 
BRANCH   3   4
HETATM    4  C   UNL     1     -10.352  13.150  66.171  1.00  0.00    -0.284 C  
HETATM    5  O   UNL     1     -10.260  12.255  65.342  1.00  0.00    -0.261 OA 
BRANCH   4   6
HETATM    6  C   UNL     1      -9.185  13.911  66.814  1.00  0.00    -0.254 C  
HETATM    7  N   UNL     1      -9.727  15.009  67.649  1.00  0.00    -0.215 NA 
HETATM    8  H2  UNL     1     -10.401  14.677  68.339  1.00  0.00     0.000 HD 
HETATM    9  H1  UNL     1      -8.951  15.515  68.076  1.00  0.00     0.000 HD 
BRANCH   6  10
HETATM   10  C   UNL     1      -8.292  12.954  67.633  1.00  0.00    -0.176 C  
BRANCH  10  11
HETATM   11  C   UNL     1      -8.874  11.586  67.970  1.00  0.00    -0.158 A  
HETATM   12  C   UNL     1      -9.548  11.307  69.162  1.00  0.00     0.038 A  
HETATM   13  C   UNL     1     -10.046  10.007  69.429  1.00  0.00    -0.235 A  
HETATM   14  C   UNL     1      -9.886   8.932  68.527  1.00  0.00    -0.182 A  
HETATM   15  C   UNL     1      -9.276   9.264  67.304  1.00  0.00    -0.149 A  
HETATM   16  C   UNL     1      -8.776  10.551  67.036  1.00  0.00    -0.132 A  
BRANCH  14  17
HETATM   17  C   UNL     1     -10.246   7.517  68.891  1.00  0.00    -0.208 A  
HETATM   18  N   UNL     1     -10.381   7.242  70.209  1.00  0.00    -0.207 NA 
HETATM   19  C   UNL     1     -10.522   5.960  70.574  1.00  0.00    -0.254 A  
HETATM   20  N   UNL     1     -10.470   4.902  69.756  1.00  0.00    -0.145 NA 
HETATM   21  N   UNL     1     -10.645   5.694  71.923  1.00  0.00    -0.225 NA 
HETATM   22  H1  UNL     1     -10.752   4.719  72.200  1.00  0.00     0.000 HD 
HETATM   23  C   UNL     1     -10.356   5.194  68.458  1.00  0.00    -0.070 A  
HETATM   24  H2  UNL     1     -10.631   6.444  72.615  1.00  0.00     0.000 HD 
HETATM   25  C   UNL     1     -10.291   6.484  67.967  1.00  0.00    -0.226 A  
BRANCH  23  26
HETATM   26  O   UNL     1     -10.142   4.185  67.536  1.00  0.00    -0.070 OA 
BRANCH  26  27
HETATM   27  C   UNL     1      -8.831   4.101  66.923  1.00  0.00    -0.119 C  
HETATM   28  C   UNL     1      -8.792   3.643  65.444  1.00  0.00    -0.123 C  
HETATM   29  F   UNL     1      -9.966   3.160  64.979  1.00  0.00    -0.142 F  
HETATM   30  F   UNL     1      -7.877   2.637  65.313  1.00  0.00    -0.074 F  
HETATM   31  F   UNL     1      -8.385   4.612  64.587  1.00  0.00    -0.105 F  
BRANCH  27  32
HETATM   32  C   UNL     1      -8.023   5.414  67.166  1.00  0.00    -0.101 A  
HETATM   33  C   UNL     1      -8.247   6.467  66.247  1.00  0.00    -0.118 A  
HETATM   34  C   UNL     1      -7.481   7.635  66.264  1.00  0.00    -0.083 A  
HETATM   35  C   UNL     1      -6.457   7.774  67.189  1.00  0.00    -0.055 A  
HETATM   36  C   UNL     1      -6.266   6.805  68.174  1.00  0.00    -0.033 A  
HETATM   37 CL   UNL     1      -5.425   9.149  67.129  1.00  0.00    -0.040 Cl 
HETATM   38  C   UNL     1      -7.080   5.653  68.209  1.00  0.00    -0.074 A  
BRANCH  38  39
HETATM   39  N   UNL     1      -6.945   4.777  69.326  1.00  0.00    -0.050 NA 
HETATM   40  C   UNL     1      -6.965   3.394  69.371  1.00  0.00    -0.041 A  
HETATM   41  C   UNL     1      -7.010   3.047  70.703  1.00  0.00    -0.033 A  
HETATM   42  C   UNL     1      -6.926   4.269  71.384  1.00  0.00    -0.035 A  
HETATM   43  N   UNL     1      -6.714   5.275  70.549  1.00  0.00    -0.038 NA 
HETATM   44  C   UNL     1      -7.064   4.569  72.831  1.00  0.00    -0.076 C  
ENDBRANCH  38  39
ENDBRANCH  27  32
ENDBRANCH  26  27
ENDBRANCH  23  26
ENDBRANCH  14  17
ENDBRANCH  10  11
ENDBRANCH   6  10
ENDBRANCH   4   6
ENDBRANCH   3   4
ENDBRANCH   2   3
TORSDOF 10
ENDMDL
MODEL      255
REMARK 921   NORMALIZED FREE ENERGY PREDICTED BY IDOCK:    1.28 KCAL/MOL
REMARK 922        TOTAL FREE ENERGY PREDICTED BY IDOCK:   -0.32 KCAL/MOL
REMARK 923 INTER-LIGAND FREE ENERGY PREDICTED BY IDOCK:   -5.66 KCAL/MOL
REMARK 924 INTRA-LIGAND FREE ENERGY PREDICTED BY IDOCK:    5.34 KCAL/MOL
REMARK 927      BINDING AFFINITY PREDICTED BY RF-SCORE:    0.00 PKD
ROOT
HETATM    1  C   UNL     1     -13.882  15.636  72.667  1.00  0.00    -0.648 C  
HETATM    2  C   UNL     1     -13.056  16.177  71.514  1.00  0.00     0.449 C  
ENDROOT
BRANCH   2   3
HETATM    3  O   UNL     1     -13.350  15.385  70.357  1.00  0.00    -0.237 OA 
BRANCH   3   4
HETATM    4  C   UNL     1     -12.293  15.205  69.506  1.00  0.00    -0.171 C  
HETATM    5  O   UNL     1     -12.091  15.853  68.488  1.00  0.00    -0.208 OA 
BRANCH   4   6
HETATM    6  C   UNL     1     -11.399  14.088  70.060  1.00  0.00    -0.100 C  
HETATM    7  N   UNL     1     -10.706  14.582  71.273  1.00  0.00     0.290 NA 
HETATM    8  H2  UNL     1     -11.355  14.943  71.972  1.00  0.00     0.000 HD 
HETATM    9  H1  UNL     1     -10.112  13.839  71.641  1.00  0.00     0.000 HD 
BRANCH   6  10
HETATM   10  C   UNL     1     -12.228  12.817  70.350  1.00  0.00    -0.371 C  
BRANCH  10  11
HETATM   11  C   UNL     1     -11.735  11.516  69.730  1.00  0.00    -0.426 A  
HETATM   12  C   UNL     1     -11.649  10.310  70.433  1.00  0.00    -0.411 A  
HETATM   13  C   UNL     1     -11.159   9.137  69.808  1.00  0.00    -0.140 A  
HETATM   14  C   UNL     1     -10.727   9.116  68.463  1.00  0.00    -0.160 A  
HETATM   15  C   UNL     1     -10.900  10.323  67.761  1.00  0.00    -0.346 A  
HETATM   16  C   UNL     1     -11.382  11.491  68.378  1.00  0.00    -0.342 A  
BRANCH  14  17
HETATM   17  C   UNL     1     -10.033   7.925  67.859  1.00  0.00    -0.178 A  
HETATM   18  N   UNL     1      -9.385   8.127  66.688  1.00  0.00    -0.183 NA 
HETATM   19  C   UNL     1      -8.913   7.055  66.036  1.00  0.00    -0.107 A  
HETATM   20  N   UNL     1      -9.086   5.779  66.400  1.00  0.00    -0.142 NA 
HETATM   21  N   UNL     1      -8.266   7.275  64.838  1.00  0.00    -0.254 NA 
HETATM   22  H1  UNL     1      -7.908   6.460  64.342  1.00  0.00     0.000 HD 
HETATM   23  C   UNL     1      -9.710   5.600  67.567  1.00  0.00    -0.124 A  
HETATM   24  H2  UNL     1      -8.150   8.217  64.462  1.00  0.00     0.000 HD 
HETATM   25  C   UNL     1     -10.159   6.639  68.360  1.00  0.00    -0.163 A  
BRANCH  23  26
HETATM   26  O   UNL     1     -10.076   4.329  67.971  1.00  0.00    -0.038 OA 
BRANCH  26  27
HETATM   27  C   UNL     1      -9.383   3.758  69.108  1.00  0.00    -0.173 C  
HETATM   28  C   UNL     1      -8.720   2.375  68.886  1.00  0.00    -0.084 C  
HETATM   29  F   UNL     1      -9.067   1.771  67.728  1.00  0.00    -0.122 F  
HETATM   30  F   UNL     1      -9.099   1.533  69.893  1.00  0.00    -0.100 F  
HETATM   31  F   UNL     1      -7.366   2.409  68.937  1.00  0.00    -0.043 F  
BRANCH  27  32
HETATM   32  C   UNL     1      -8.404   4.798  69.737  1.00  0.00    -0.078 A  
HETATM   33  C   UNL     1      -8.117   5.942  68.954  1.00  0.00    -0.103 A  
HETATM   34  C   UNL     1      -7.146   6.871  69.336  1.00  0.00    -0.079 A  
HETATM   35  C   UNL     1      -6.422   6.671  70.502  1.00  0.00    -0.047 A  
HETATM   36  C   UNL     1      -6.739   5.611  71.351  1.00  0.00    -0.060 A  
HETATM   37 CL   UNL     1      -5.134   7.738  70.908  1.00  0.00    -0.023 Cl 
HETATM   38  C   UNL     1      -7.766   4.706  71.009  1.00  0.00    -0.080 A  
BRANCH  38  39
HETATM   39  N   UNL     1      -8.152   3.739  71.983  1.00  0.00    -0.071 NA 
HETATM   40  C   UNL     1      -7.415   2.718  72.555  1.00  0.00    -0.048 A  
HETATM   41  C   UNL     1      -8.305   1.945  73.268  1.00  0.00    -0.057 A  
HETATM   42  C   UNL     1      -9.527   2.618  73.143  1.00  0.00    -0.089 A  
HETATM   43  N   UNL     1      -9.381   3.776  72.518  1.00  0.00    -0.116 NA 
HETATM   44  C   UNL     1     -10.890   2.212  73.569  1.00  0.00    -0.272 C  
ENDBRANCH  38  39
ENDBRANCH  27  32
ENDBRANCH  26  27
ENDBRANCH  23  26
ENDBRANCH  14  17
ENDBRANCH  10  11
ENDBRANCH   6  10
ENDBRANCH   4   6
ENDBRANCH   3   4
ENDBRANCH   2   3
TORSDOF 10
ENDMDL
MODEL      256
REMARK 921   NORMALIZED FREE ENERGY PREDICTED BY IDOCK:    2.85 KCAL/MOL
REMARK 922        TOTAL FREE ENERGY PREDICTED BY IDOCK:    2.17 KCAL/MOL
REMARK 923 INTER-LIGAND FREE ENERGY PREDICTED BY IDOCK:    0.15 KCAL/MOL
REMARK 924 INTRA-LIGAND FREE ENERGY PREDICTED BY IDOCK:    2.02 KCAL/MOL
REMARK 927      BINDING AFFINITY PREDICTED BY RF-SCORE:    0.00 PKD
ROOT
HETATM    1  C   UNL     1      -6.177   3.893  69.829  1.00  0.00    -0.027 C  
HETATM    2  C   UNL     1      -6.007   3.911  71.337  1.00  0.00    -0.014 C  
ENDROOT
BRANCH   2   3
HETATM    3  O   UNL     1      -6.936   2.973  71.893  1.00  0.00    -0.025 OA 
BRANCH   3   4
HETATM    4  C   UNL     1      -7.954   2.612  71.052  1.00  0.00    -0.050 C  
HETATM    5  O   UNL     1      -7.810   2.203  69.907  1.00  0.00    -0.043 OA 
BRANCH   4   6
HETATM    6  C   UNL     1      -9.287   2.773  71.794  1.00  0.00    -0.122 C  
HETATM    7  N   UNL     1      -9.031   3.389  73.117  1.00  0.00    -0.090 NA 
HETATM    8  H2  UNL     1      -8.518   4.268  73.044  1.00  0.00     0.000 HD 
HETATM    9  H1  UNL     1      -9.917   3.496  73.611  1.00  0.00     0.000 HD 
BRANCH   6  10
HETATM   10  C   UNL     1     -10.283   3.604  70.957  1.00  0.00     0.238 C  
BRANCH  10  11
HETATM   11  C   UNL     1      -9.797   4.955  70.447  1.00  0.00    -0.302 A  
HETATM   12  C   UNL     1      -9.709   5.282  69.091  1.00  0.00    -0.231 A  
HETATM   13  C   UNL     1      -9.226   6.548  68.678  1.00  0.00    -0.127 A  
HETATM   14  C   UNL     1      -8.803   7.536  69.594  1.00  0.00    -0.141 A  
HETATM   15  C   UNL     1      -8.979   7.208  70.950  1.00  0.00    -0.151 A  
HETATM   16  C   UNL     1      -9.454   5.951  71.366  1.00  0.00    -0.168 A  
BRANCH  14  17
HETATM   17  C   UNL     1      -8.117   8.801  69.154  1.00  0.00    -0.118 A  
HETATM   18  N   UNL     1      -7.015   9.170  69.849  1.00  0.00    -0.050 NA 
HETATM   19  C   UNL     1      -6.489  10.377  69.600  1.00  0.00    -0.076 A  
HETATM   20  N   UNL     1      -6.995  11.297  68.771  1.00  0.00    -0.083 NA 
HETATM   21  N   UNL     1      -5.374  10.745  70.326  1.00  0.00    -0.059 NA 
HETATM   22  H1  UNL     1      -4.973  11.663  70.137  1.00  0.00     0.000 HD 
HETATM   23  C   UNL     1      -8.069  10.908  68.080  1.00  0.00    -0.119 A  
HETATM   24  H2  UNL     1      -4.966  10.122  71.024  1.00  0.00     0.000 HD 
HETATM   25  C   UNL     1      -8.640   9.655  68.195  1.00  0.00    -0.119 A  
BRANCH  23  26
HETATM   26  O   UNL     1      -8.765  11.820  67.307  1.00  0.00    -0.152 OA 
BRANCH  26  27
HETATM   27  C   UNL     1      -9.563  12.814  67.996  1.00  0.00    -0.217 C  
HETATM   28  C   UNL     1     -10.005  12.462  69.439  1.00  0.00     0.774 C  
HETATM   29  F   UNL     1      -9.784  11.176  69.791  1.00  0.00     0.029 F  
HETATM   30  F   UNL     1     -11.350  12.672  69.557  1.00  0.00    -0.293 F  
HETATM   31  F   UNL     1      -9.435  13.246  70.387  1.00  0.00     2.711 F  
BRANCH  27  32
HETATM   32  C   UNL     1      -8.896  14.222  67.901  1.00  0.00    -0.179 A  
HETATM   33  C   UNL     1      -7.850  14.483  68.818  1.00  0.00    -0.145 A  
HETATM   34  C   UNL     1      -7.272  15.750  68.936  1.00  0.00    -0.147 A  
HETATM   35  C   UNL     1      -7.739  16.795  68.153  1.00  0.00    -0.180 A  
HETATM   36  C   UNL     1      -8.699  16.560  67.169  1.00  0.00    -0.216 A  
HETATM   37 CL   UNL     1      -7.126  18.386  68.388  1.00  0.00    -0.263 Cl 
HETATM   38  C   UNL     1      -9.239  15.268  66.993  1.00  0.00    -0.218 A  
BRANCH  38  39
HETATM   39  N   UNL     1     -10.096  15.051  65.875  1.00  0.00    -0.298 NA 
HETATM   40  C   UNL     1     -10.003  15.536  64.583  1.00  0.00     0.822 A  
HETATM   41  C   UNL     1     -11.185  15.209  63.956  1.00  0.00     0.421 A  
HETATM   42  C   UNL     1     -11.888  14.459  64.909  1.00  0.00    -0.417 A  
HETATM   43  N   UNL     1     -11.150  14.229  65.984  1.00  0.00    -0.314 NA 
HETATM   44  C   UNL     1     -13.279  13.942  64.883  1.00  0.00     0.306 C  
ENDBRANCH  38  39
ENDBRANCH  27  32
ENDBRANCH  26  27
ENDBRANCH  23  26
ENDBRANCH  14  17
ENDBRANCH  10  11
ENDBRANCH   6  10
ENDBRANCH   4   6
ENDBRANCH   3   4
ENDBRANCH   2   3
TORSDOF 10
ENDMDL
MODEL      257
REMARK 921   NORMALIZED FREE ENERGY PREDICTED BY IDOCK:    3.03 KCAL/MOL
REMARK 922        TOTAL FREE ENERGY PREDICTED BY IDOCK:    2.46 KCAL/MOL
REMARK 923 INTER-LIGAND FREE ENERGY PREDICTED BY IDOCK:   -4.73 KCAL/MOL
REMARK 924 INTRA-LIGAND FREE ENERGY PREDICTED BY IDOCK:    7.20 KCAL/MOL
REMARK 927      BINDING AFFINITY PREDICTED BY RF-SCORE:    0.00 PKD
ROOT
HETATM    1  C   UNL     1      -6.177   3.893  69.830  1.00  0.00    -0.027 C  
HETATM    2  C   UNL     1      -6.000   3.893  71.338  1.00  0.00    -0.014 C  
ENDROOT
BRANCH   2   3
HETATM    3  O   UNL     1      -6.931   2.952  71.886  1.00  0.00    -0.028 OA 
BRANCH   3   4
HETATM    4  C   UNL     1      -7.961   2.615  71.051  1.00  0.00    -0.050 C  
HETATM    5  O   UNL     1      -7.835   2.234  69.895  1.00  0.00    -0.043 OA 
BRANCH   4   6
HETATM    6  C   UNL     1      -9.283   2.763  71.816  1.00  0.00    -0.103 C  
HETATM    7  N   UNL     1      -9.005   3.329  73.156  1.00  0.00    -0.087 NA 
HETATM    8  H2  UNL     1      -8.484   4.205  73.108  1.00  0.00     0.000 HD 
HETATM    9  H1  UNL     1      -9.884   3.426  73.664  1.00  0.00     0.000 HD 
BRANCH   6  10
HETATM   10  C   UNL     1     -10.281   3.633  71.021  1.00  0.00     0.238 C  
BRANCH  10  11
HETATM   11  C   UNL     1      -9.790   5.000  70.561  1.00  0.00    -0.290 A  
HETATM   12  C   UNL     1      -9.717   5.382  69.218  1.00  0.00    -0.224 A  
HETATM   13  C   UNL     1      -9.228   6.660  68.851  1.00  0.00    -0.130 A  
HETATM   14  C   UNL     1      -8.785   7.606  69.801  1.00  0.00    -0.140 A  
HETATM   15  C   UNL     1      -8.946   7.224  71.145  1.00  0.00    -0.147 A  
HETATM   16  C   UNL     1      -9.427   5.955  71.515  1.00  0.00    -0.171 A  
BRANCH  14  17
HETATM   17  C   UNL     1      -8.093   8.883  69.404  1.00  0.00    -0.105 A  
HETATM   18  N   UNL     1      -6.976   9.211  70.095  1.00  0.00    -0.049 NA 
HETATM   19  C   UNL     1      -6.442  10.422  69.890  1.00  0.00    -0.109 A  
HETATM   20  N   UNL     1      -6.953  11.382  69.110  1.00  0.00    -0.110 NA 
HETATM   21  N   UNL     1      -5.311  10.747  70.611  1.00  0.00    -0.083 NA 
HETATM   22  H1  UNL     1      -4.905  11.669  70.455  1.00  0.00     0.000 HD 
HETATM   23  C   UNL     1      -8.043  11.033  68.422  1.00  0.00    -0.134 A  
HETATM   24  H2  UNL     1      -4.897  10.091  71.274  1.00  0.00     0.000 HD 
HETATM   25  C   UNL     1      -8.624   9.782  68.493  1.00  0.00    -0.120 A  
BRANCH  23  26
HETATM   26  O   UNL     1      -8.743  11.985  67.702  1.00  0.00    -0.152 OA 
BRANCH  26  27
HETATM   27  C   UNL     1     -10.177  11.818  67.582  1.00  0.00    -0.199 C  
HETATM   28  C   UNL     1     -10.720  10.380  67.776  1.00  0.00    -0.279 C  
HETATM   29  F   UNL     1      -9.766   9.423  67.805  1.00  0.00    -0.154 F  
HETATM   30  F   UNL     1     -11.548  10.072  66.733  1.00  0.00     0.159 F  
HETATM   31  F   UNL     1     -11.477  10.232  68.890  1.00  0.00    -0.275 F  
BRANCH  27  32
HETATM   32  C   UNL     1     -10.931  12.866  68.459  1.00  0.00    -0.288 A  
HETATM   33  C   UNL     1     -11.049  12.561  69.837  1.00  0.00     0.246 A  
HETATM   34  C   UNL     1     -11.826  13.340  70.699  1.00  0.00    -0.128 A  
HETATM   35  C   UNL     1     -12.519  14.433  70.203  1.00  0.00    -0.339 A  
HETATM   36  C   UNL     1     -12.353  14.826  68.875  1.00  0.00    -0.049 A  
HETATM   37 CL   UNL     1     -13.582  15.315  71.231  1.00  0.00    -0.562 Cl 
HETATM   38  C   UNL     1     -11.516  14.088  68.012  1.00  0.00    -0.311 A  
BRANCH  38  39
HETATM   39  N   UNL     1     -11.260  14.622  66.716  1.00  0.00    -0.336 NA 
HETATM   40  C   UNL     1     -11.044  15.931  66.326  1.00  0.00    -0.014 A  
HETATM   41  C   UNL     1     -11.060  15.937  64.949  1.00  0.00    -0.400 A  
HETATM   42  C   UNL     1     -11.202  14.588  64.597  1.00  0.00    -0.353 A  
HETATM   43  N   UNL     1     -11.146  13.802  65.660  1.00  0.00    -0.294 NA 
HETATM   44  C   UNL     1     -11.423  13.965  63.268  1.00  0.00     0.919 C  
ENDBRANCH  38  39
ENDBRANCH  27  32
ENDBRANCH  26  27
ENDBRANCH  23  26
ENDBRANCH  14  17
ENDBRANCH  10  11
ENDBRANCH   6  10
ENDBRANCH   4   6
ENDBRANCH   3   4
ENDBRANCH   2   3
TORSDOF 10
ENDMDL
MODEL      258
REMARK 921   NORMALIZED FREE ENERGY PREDICTED BY IDOCK:    3.12 KCAL/MOL
REMARK 922        TOTAL FREE ENERGY PREDICTED BY IDOCK:    2.60 KCAL/MOL
REMARK 923 INTER-LIGAND FREE ENERGY PREDICTED BY IDOCK:   -0.84 KCAL/MOL
REMARK 924 INTRA-LIGAND FREE ENERGY PREDICTED BY IDOCK:    3.44 KCAL/MOL
REMARK 927      BINDING AFFINITY PREDICTED BY RF-SCORE:    0.00 PKD
ROOT
HETATM    1  C   UNL     1      -6.403   3.564  68.596  1.00  0.00    -0.033 C  
HETATM    2  C   UNL     1      -6.150   2.173  69.148  1.00  0.00    -0.024 C  
ENDROOT
BRANCH   2   3
HETATM    3  O   UNL     1      -5.754   2.313  70.517  1.00  0.00    -0.015 OA 
BRANCH   3   4
HETATM    4  C   UNL     1      -6.213   3.446  71.132  1.00  0.00    -0.018 C  
HETATM    5  O   UNL     1      -5.714   4.558  71.023  1.00  0.00    -0.014 OA 
BRANCH   4   6
HETATM    6  C   UNL     1      -7.468   3.093  71.942  1.00  0.00    -0.052 C  
HETATM    7  N   UNL     1      -7.148   3.180  73.387  1.00  0.00    -0.040 NA 
HETATM    8  H2  UNL     1      -6.761   4.087  73.646  1.00  0.00     0.000 HD 
HETATM    9  H1  UNL     1      -7.982   2.945  73.925  1.00  0.00     0.000 HD 
BRANCH   6  10
HETATM   10  C   UNL     1      -8.645   4.016  71.558  1.00  0.00    -0.127 C  
BRANCH  10  11
HETATM   11  C   UNL     1      -8.296   5.432  71.115  1.00  0.00    -0.124 A  
HETATM   12  C   UNL     1      -7.389   5.718  70.090  1.00  0.00    -0.073 A  
HETATM   13  C   UNL     1      -7.087   7.057  69.740  1.00  0.00    -0.067 A  
HETATM   14  C   UNL     1      -7.666   8.164  70.398  1.00  0.00    -0.085 A  
HETATM   15  C   UNL     1      -8.634   7.844  71.368  1.00  0.00    -0.141 A  
HETATM   16  C   UNL     1      -8.934   6.517  71.723  1.00  0.00    -0.138 A  
BRANCH  14  17
HETATM   17  C   UNL     1      -7.206   9.576  70.155  1.00  0.00    -0.114 A  
HETATM   18  N   UNL     1      -6.588  10.201  71.184  1.00  0.00    -0.320 NA 
HETATM   19  C   UNL     1      -6.329  11.511  71.062  1.00  0.00     1.051 A  
HETATM   20  N   UNL     1      -6.691  12.288  70.035  1.00  0.00     0.153 NA 
HETATM   21  N   UNL     1      -5.711  12.137  72.125  1.00  0.00     0.244 NA 
HETATM   22  H1  UNL     1      -5.514  13.133  72.032  1.00  0.00     0.000 HD 
HETATM   23  C   UNL     1      -7.281  11.651  69.021  1.00  0.00    -0.094 A  
HETATM   24  H2  UNL     1      -5.460  11.623  72.970  1.00  0.00     0.000 HD 
HETATM   25  C   UNL     1      -7.517  10.289  69.007  1.00  0.00    -0.097 A  
BRANCH  23  26
HETATM   26  O   UNL     1      -7.832  12.370  67.975  1.00  0.00    -0.120 OA 
BRANCH  26  27
HETATM   27  C   UNL     1      -8.191  13.752  68.226  1.00  0.00    -0.156 C  
HETATM   28  C   UNL     1      -8.055  14.726  67.029  1.00  0.00    -0.144 C  
HETATM   29  F   UNL     1      -7.400  14.212  65.965  1.00  0.00     1.964 F  
HETATM   30  F   UNL     1      -7.347  15.825  67.428  1.00  0.00    -0.147 F  
HETATM   31  F   UNL     1      -9.241  15.206  66.583  1.00  0.00    -0.219 F  
BRANCH  27  32
HETATM   32  C   UNL     1      -9.588  13.843  68.916  1.00  0.00     0.021 A  
HETATM   33  C   UNL     1      -9.644  14.580  70.123  1.00  0.00     0.959 A  
HETATM   34  C   UNL     1     -10.796  14.613  70.914  1.00  0.00     0.311 A  
HETATM   35  C   UNL     1     -11.917  13.895  70.527  1.00  0.00    -0.314 A  
HETATM   36  C   UNL     1     -11.939  13.236  69.298  1.00  0.00    -0.354 A  
HETATM   37 CL   UNL     1     -13.291  13.824  71.561  1.00  0.00    -0.407 Cl 
HETATM   38  C   UNL     1     -10.805  13.254  68.459  1.00  0.00    -0.265 A  
BRANCH  38  39
HETATM   39  N   UNL     1     -10.935  12.700  67.152  1.00  0.00    -0.253 NA 
HETATM   40  C   UNL     1     -11.907  12.918  66.192  1.00  0.00    -0.429 A  
HETATM   41  C   UNL     1     -11.693  11.988  65.200  1.00  0.00    -0.315 A  
HETATM   42  C   UNL     1     -10.530  11.316  65.599  1.00  0.00    -0.261 A  
HETATM   43  N   UNL     1      -9.995  11.869  66.676  1.00  0.00    -0.196 NA 
HETATM   44  C   UNL     1      -9.872  10.116  65.021  1.00  0.00    -0.392 C  
ENDBRANCH  38  39
ENDBRANCH  27  32
ENDBRANCH  26  27
ENDBRANCH  23  26
ENDBRANCH  14  17
ENDBRANCH  10  11
ENDBRANCH   6  10
ENDBRANCH   4   6
ENDBRANCH   3   4
ENDBRANCH   2   3
TORSDOF 10
ENDMDL
MODEL      259
REMARK 921   NORMALIZED FREE ENERGY PREDICTED BY IDOCK:    3.31 KCAL/MOL
REMARK 922        TOTAL FREE ENERGY PREDICTED BY IDOCK:    2.90 KCAL/MOL
REMARK 923 INTER-LIGAND FREE ENERGY PREDICTED BY IDOCK:   -0.68 KCAL/MOL
REMARK 924 INTRA-LIGAND FREE ENERGY PREDICTED BY IDOCK:    3.58 KCAL/MOL
REMARK 927      BINDING AFFINITY PREDICTED BY RF-SCORE:    0.00 PKD
ROOT
HETATM    1  C   UNL     1     -10.476  15.671  65.360  1.00  0.00    -0.435 C  
HETATM    2  C   UNL     1     -10.073  14.987  66.654  1.00  0.00    -0.261 C  
ENDROOT
BRANCH   2   3
HETATM    3  O   UNL     1      -9.330  13.811  66.313  1.00  0.00    -0.239 OA 
BRANCH   3   4
HETATM    4  C   UNL     1      -9.840  13.099  65.261  1.00  0.00    -0.076 C  
HETATM    5  O   UNL     1      -9.870  13.483  64.100  1.00  0.00    -0.087 OA 
BRANCH   4   6
HETATM    6  C   UNL     1     -10.329  11.740  65.778  1.00  0.00    -0.253 C  
HETATM    7  N   UNL     1     -11.579  11.938  66.548  1.00  0.00    -0.519 NA 
HETATM    8  H2  UNL     1     -12.294  12.429  66.011  1.00  0.00     0.000 HD 
HETATM    9  H1  UNL     1     -11.904  11.034  66.892  1.00  0.00     0.000 HD 
BRANCH   6  10
HETATM   10  C   UNL     1     -10.525  10.749  64.610  1.00  0.00    -0.346 C  
BRANCH  10  11
HETATM   11  C   UNL     1      -9.682   9.480  64.631  1.00  0.00     0.102 A  
HETATM   12  C   UNL     1     -10.033   8.332  65.348  1.00  0.00     1.213 A  
HETATM   13  C   UNL     1      -9.194   7.190  65.350  1.00  0.00     0.405 A  
HETATM   14  C   UNL     1      -7.970   7.146  64.647  1.00  0.00    -0.114 A  
HETATM   15  C   UNL     1      -7.684   8.285  63.872  1.00  0.00    -0.141 A  
HETATM   16  C   UNL     1      -8.511   9.422  63.870  1.00  0.00    -0.204 A  
BRANCH  14  17
HETATM   17  C   UNL     1      -6.995   6.010  64.800  1.00  0.00    -0.055 A  
HETATM   18  N   UNL     1      -6.840   5.192  63.733  1.00  0.00    -0.045 NA 
HETATM   19  C   UNL     1      -6.120   4.073  63.896  1.00  0.00    -0.018 A  
HETATM   20  N   UNL     1      -5.590   3.644  65.047  1.00  0.00    -0.010 NA 
HETATM   21  N   UNL     1      -5.982   3.242  62.803  1.00  0.00    -0.013 NA 
HETATM   22  H1  UNL     1      -5.434   2.391  62.927  1.00  0.00     0.000 HD 
HETATM   23  C   UNL     1      -5.735   4.474  66.083  1.00  0.00    -0.022 A  
HETATM   24  H2  UNL     1      -6.411   3.470  61.906  1.00  0.00     0.000 HD 
HETATM   25  C   UNL     1      -6.384   5.691  66.003  1.00  0.00    -0.039 A  
BRANCH  23  26
HETATM   26  O   UNL     1      -5.362   4.070  67.353  1.00  0.00    -0.011 OA 
BRANCH  26  27
HETATM   27  C   UNL     1      -6.350   3.377  68.156  1.00  0.00    -0.036 C  
HETATM   28  C   UNL     1      -6.294   3.628  69.684  1.00  0.00    -0.029 C  
HETATM   29  F   UNL     1      -5.187   4.283  70.100  1.00  0.00    -0.003 F  
HETATM   30  F   UNL     1      -6.303   2.426  70.333  1.00  0.00    -0.022 F  
HETATM   31  F   UNL     1      -7.368   4.302  70.162  1.00  0.00    -0.043 F  
BRANCH  27  32
HETATM   32  C   UNL     1      -7.781   3.580  67.567  1.00  0.00    -0.077 A  
HETATM   33  C   UNL     1      -8.288   2.523  66.773  1.00  0.00    -0.090 A  
HETATM   34  C   UNL     1      -9.490   2.641  66.070  1.00  0.00     0.097 A  
HETATM   35  C   UNL     1     -10.207   3.826  66.127  1.00  0.00     0.341 A  
HETATM   36  C   UNL     1      -9.796   4.856  66.973  1.00  0.00    -0.214 A  
HETATM   37 CL   UNL     1     -11.616   4.025  65.158  1.00  0.00     1.266 Cl 
HETATM   38  C   UNL     1      -8.621   4.720  67.742  1.00  0.00    -0.103 A  
BRANCH  38  39
HETATM   39  N   UNL     1      -8.334   5.733  68.703  1.00  0.00    -0.107 NA 
HETATM   40  C   UNL     1      -8.999   6.055  69.873  1.00  0.00    -0.141 A  
HETATM   41  C   UNL     1      -8.451   7.237  70.321  1.00  0.00    -0.137 A  
HETATM   42  C   UNL     1      -7.414   7.504  69.417  1.00  0.00    -0.087 A  
HETATM   43  N   UNL     1      -7.248   6.508  68.561  1.00  0.00    -0.083 NA 
HETATM   44  C   UNL     1      -6.546   8.701  69.284  1.00  0.00    -0.049 C  
ENDBRANCH  38  39
ENDBRANCH  27  32
ENDBRANCH  26  27
ENDBRANCH  23  26
ENDBRANCH  14  17
ENDBRANCH  10  11
ENDBRANCH   6  10
ENDBRANCH   4   6
ENDBRANCH   3   4
ENDBRANCH   2   3
TORSDOF 10
ENDMDL
MODEL      260
REMARK 921   NORMALIZED FREE ENERGY PREDICTED BY IDOCK:    3.85 KCAL/MOL
REMARK 922        TOTAL FREE ENERGY PREDICTED BY IDOCK:    3.76 KCAL/MOL
REMARK 923 INTER-LIGAND FREE ENERGY PREDICTED BY IDOCK:    3.23 KCAL/MOL
REMARK 924 INTRA-LIGAND FREE ENERGY PREDICTED BY IDOCK:    0.53 KCAL/MOL
REMARK 927      BINDING AFFINITY PREDICTED BY RF-SCORE:    0.00 PKD
ROOT
HETATM    1  C   UNL     1      -9.887  17.397  68.220  1.00  0.00    -0.310 C  
HETATM    2  C   UNL     1      -8.549  18.057  68.501  1.00  0.00    -0.297 C  
ENDROOT
BRANCH   2   3
HETATM    3  O   UNL     1      -7.654  17.697  67.442  1.00  0.00    -0.193 OA 
BRANCH   3   4
HETATM    4  C   UNL     1      -6.409  17.308  67.855  1.00  0.00    -0.149 C  
HETATM    5  O   UNL     1      -5.721  16.454  67.312  1.00  0.00    -0.146 OA 
BRANCH   4   6
HETATM    6  C   UNL     1      -6.014  18.142  69.081  1.00  0.00    -0.228 C  
HETATM    7  N   UNL     1      -6.863  19.356  69.133  1.00  0.00    -0.328 NA 
HETATM    8  H2  UNL     1      -7.859  19.134  69.118  1.00  0.00     0.000 HD 
HETATM    9  H1  UNL     1      -6.600  19.909  69.948  1.00  0.00     0.000 HD 
BRANCH   6  10
HETATM   10  C   UNL     1      -6.129  17.304  70.373  1.00  0.00     0.254 C  
BRANCH  10  11
HETATM   11  C   UNL     1      -6.353  15.806  70.207  1.00  0.00     0.048 A  
HETATM   12  C   UNL     1      -5.317  14.889  70.004  1.00  0.00    -0.101 A  
HETATM   13  C   UNL     1      -5.591  13.510  69.831  1.00  0.00    -0.108 A  
HETATM   14  C   UNL     1      -6.902  12.988  69.844  1.00  0.00     0.357 A  
HETATM   15  C   UNL     1      -7.915  13.921  70.130  1.00  0.00     1.696 A  
HETATM   16  C   UNL     1      -7.650  15.292  70.298  1.00  0.00     0.490 A  
BRANCH  14  17
HETATM   17  C   UNL     1      -7.204  11.560  69.474  1.00  0.00     0.070 A  
HETATM   18  N   UNL     1      -6.143  10.753  69.246  1.00  0.00    -0.043 NA 
HETATM   19  C   UNL     1      -6.376   9.533  68.742  1.00  0.00    -0.047 A  
HETATM   20  N   UNL     1      -7.569   9.054  68.371  1.00  0.00    -0.089 NA 
HETATM   21  N   UNL     1      -5.282   8.726  68.503  1.00  0.00    -0.036 NA 
HETATM   22  H1  UNL     1      -5.460   7.798  68.119  1.00  0.00     0.000 HD 
HETATM   23  C   UNL     1      -8.606   9.856  68.622  1.00  0.00    -0.119 A  
HETATM   24  H2  UNL     1      -4.334   9.044  68.701  1.00  0.00     0.000 HD 
HETATM   25  C   UNL     1      -8.485  11.097  69.218  1.00  0.00     0.121 A  
BRANCH  23  26
HETATM   26  O   UNL     1      -9.864   9.533  68.147  1.00  0.00    -0.148 OA 
BRANCH  26  27
HETATM   27  C   UNL     1      -9.950   8.908  66.843  1.00  0.00    -0.247 C  
HETATM   28  C   UNL     1     -10.840   7.643  66.743  1.00  0.00     0.098 C  
HETATM   29  F   UNL     1     -11.241   7.150  67.936  1.00  0.00    -0.210 F  
HETATM   30  F   UNL     1     -10.133   6.648  66.129  1.00  0.00    -0.146 F  
HETATM   31  F   UNL     1     -11.948   7.818  65.983  1.00  0.00     3.456 F  
BRANCH  27  32
HETATM   32  C   UNL     1     -10.286   9.964  65.744  1.00  0.00    -0.251 A  
HETATM   33  C   UNL     1     -11.393  10.807  66.003  1.00  0.00     0.434 A  
HETATM   34  C   UNL     1     -11.887  11.691  65.039  1.00  0.00     0.021 A  
HETATM   35  C   UNL     1     -11.298  11.741  63.785  1.00  0.00    -0.438 A  
HETATM   36  C   UNL     1     -10.147  11.000  63.520  1.00  0.00    -0.428 A  
HETATM   37 CL   UNL     1     -11.984  12.727  62.552  1.00  0.00     1.199 Cl 
HETATM   38  C   UNL     1      -9.598  10.157  64.509  1.00  0.00    -0.311 A  
BRANCH  38  39
HETATM   39  N   UNL     1      -8.338   9.547  64.239  1.00  0.00    -0.157 NA 
HETATM   40  C   UNL     1      -7.059  10.034  64.443  1.00  0.00    -0.135 A  
HETATM   41  C   UNL     1      -6.201   9.152  63.822  1.00  0.00    -0.088 A  
HETATM   42  C   UNL     1      -7.035   8.129  63.352  1.00  0.00    -0.085 A  
HETATM   43  N   UNL     1      -8.284   8.295  63.761  1.00  0.00    -0.126 NA 
HETATM   44  C   UNL     1      -6.725   6.966  62.483  1.00  0.00    -0.047 C  
ENDBRANCH  38  39
ENDBRANCH  27  32
ENDBRANCH  26  27
ENDBRANCH  23  26
ENDBRANCH  14  17
ENDBRANCH  10  11
ENDBRANCH   6  10
ENDBRANCH   4   6
ENDBRANCH   3   4
ENDBRANCH   2   3
TORSDOF 10
ENDMDL
MODEL      261
REMARK 921   NORMALIZED FREE ENERGY PREDICTED BY IDOCK:    4.82 KCAL/MOL
REMARK 922        TOTAL FREE ENERGY PREDICTED BY IDOCK:    5.30 KCAL/MOL
REMARK 923 INTER-LIGAND FREE ENERGY PREDICTED BY IDOCK:    5.85 KCAL/MOL
REMARK 924 INTRA-LIGAND FREE ENERGY PREDICTED BY IDOCK:   -0.54 KCAL/MOL
REMARK 927      BINDING AFFINITY PREDICTED BY RF-SCORE:    0.00 PKD
ROOT
HETATM    1  C   UNL     1     -11.508  19.382  72.685  1.00  0.00     7.606 C  
HETATM    2  C   UNL     1     -11.596  17.984  73.271  1.00  0.00     1.868 C  
ENDROOT
BRANCH   2   3
HETATM    3  O   UNL     1     -10.917  17.093  72.379  1.00  0.00     1.262 OA 
BRANCH   3   4
HETATM    4  C   UNL     1     -11.654  16.700  71.295  1.00  0.00     0.163 C  
HETATM    5  O   UNL     1     -11.558  17.170  70.169  1.00  0.00     0.849 OA 
BRANCH   4   6
HETATM    6  C   UNL     1     -12.586  15.558  71.721  1.00  0.00    -0.410 C  
HETATM    7  N   UNL     1     -13.473  16.039  72.807  1.00  0.00    -0.481 NA 
HETATM    8  H2  UNL     1     -13.985  16.882  72.546  1.00  0.00     0.000 HD 
HETATM    9  H1  UNL     1     -14.092  15.280  73.090  1.00  0.00     0.000 HD 
BRANCH   6  10
HETATM   10  C   UNL     1     -13.391  15.029  70.514  1.00  0.00    -0.177 C  
BRANCH  10  11
HETATM   11  C   UNL     1     -12.612  14.281  69.440  1.00  0.00     0.048 A  
HETATM   12  C   UNL     1     -12.642  14.624  68.085  1.00  0.00     0.552 A  
HETATM   13  C   UNL     1     -11.915  13.873  67.128  1.00  0.00    -0.455 A  
HETATM   14  C   UNL     1     -11.136  12.749  67.477  1.00  0.00    -0.300 A  
HETATM   15  C   UNL     1     -11.061  12.477  68.856  1.00  0.00    -0.309 A  
HETATM   16  C   UNL     1     -11.785  13.216  69.809  1.00  0.00    -0.350 A  
BRANCH  14  17
HETATM   17  C   UNL     1     -10.519  11.844  66.444  1.00  0.00    -0.223 A  
HETATM   18  N   UNL     1     -10.952  11.991  65.170  1.00  0.00    -0.302 NA 
HETATM   19  C   UNL     1     -10.558  11.087  64.263  1.00  0.00    -0.331 A  
HETATM   20  N   UNL     1      -9.826   9.995  64.512  1.00  0.00    -0.260 NA 
HETATM   21  N   UNL     1     -11.018  11.242  62.971  1.00  0.00    -0.836 NA 
HETATM   22  H1  UNL     1     -10.719  10.554  62.281  1.00  0.00     0.000 HD 
HETATM   23  C   UNL     1      -9.392   9.878  65.770  1.00  0.00    -0.204 A  
HETATM   24  H2  UNL     1     -11.633  12.016  62.716  1.00  0.00     0.000 HD 
HETATM   25  C   UNL     1      -9.666  10.799  66.762  1.00  0.00    -0.221 A  
BRANCH  23  26
HETATM   26  O   UNL     1      -8.755   8.720  66.179  1.00  0.00    -0.142 OA 
BRANCH  26  27
HETATM   27  C   UNL     1      -7.450   8.435  65.617  1.00  0.00    -0.081 C  
HETATM   28  C   UNL     1      -6.286   9.343  66.088  1.00  0.00    -0.067 C  
HETATM   29  F   UNL     1      -6.676  10.431  66.788  1.00  0.00    -0.073 F  
HETATM   30  F   UNL     1      -5.612   9.805  64.993  1.00  0.00    -0.053 F  
HETATM   31  F   UNL     1      -5.359   8.692  66.832  1.00  0.00    -0.033 F  
BRANCH  27  32
HETATM   32  C   UNL     1      -7.114   6.916  65.743  1.00  0.00    -0.072 A  
HETATM   33  C   UNL     1      -6.162   6.408  64.827  1.00  0.00    -0.030 A  
HETATM   34  C   UNL     1      -5.884   5.041  64.736  1.00  0.00    -0.017 A  
HETATM   35  C   UNL     1      -6.564   4.145  65.546  1.00  0.00    -0.044 A  
HETATM   36  C   UNL     1      -7.438   4.610  66.529  1.00  0.00    -0.082 A  
HETATM   37 CL   UNL     1      -6.325   2.452  65.346  1.00  0.00    -0.023 Cl 
HETATM   38  C   UNL     1      -7.673   5.993  66.676  1.00  0.00    -0.103 A  
BRANCH  38  39
HETATM   39  N   UNL     1      -8.449   6.421  67.793  1.00  0.00    -0.117 NA 
HETATM   40  C   UNL     1      -9.798   6.253  68.048  1.00  0.00    -0.125 A  
HETATM   41  C   UNL     1     -10.089   7.033  69.147  1.00  0.00    -0.183 A  
HETATM   42  C   UNL     1      -8.850   7.560  69.535  1.00  0.00    -0.137 A  
HETATM   43  N   UNL     1      -7.860   7.047  68.823  1.00  0.00    -0.116 NA 
HETATM   44  C   UNL     1      -8.526   8.580  70.564  1.00  0.00    -0.143 C  
ENDBRANCH  38  39
ENDBRANCH  27  32
ENDBRANCH  26  27
ENDBRANCH  23  26
ENDBRANCH  14  17
ENDBRANCH  10  11
ENDBRANCH   6  10
ENDBRANCH   4   6
ENDBRANCH   3   4
ENDBRANCH   2   3
TORSDOF 10
ENDMDL
MODEL      262
REMARK 921   NORMALIZED FREE ENERGY PREDICTED BY IDOCK:    5.27 KCAL/MOL
REMARK 922        TOTAL FREE ENERGY PREDICTED BY IDOCK:    6.01 KCAL/MOL
REMARK 923 INTER-LIGAND FREE ENERGY PREDICTED BY IDOCK:   -3.34 KCAL/MOL
REMARK 924 INTRA-LIGAND FREE ENERGY PREDICTED BY IDOCK:    9.36 KCAL/MOL
REMARK 927      BINDING AFFINITY PREDICTED BY RF-SCORE:    0.00 PKD
ROOT
HETATM    1  C   UNL     1     -13.078  15.471  68.200  1.00  0.00     2.862 C  
HETATM    2  C   UNL     1     -12.678  14.035  67.915  1.00  0.00     0.926 C  
ENDROOT
BRANCH   2   3
HETATM    3  O   UNL     1     -11.480  14.064  67.130  1.00  0.00    -0.318 OA 
BRANCH   3   4
HETATM    4  C   UNL     1     -10.322  14.101  67.858  1.00  0.00    -0.234 C  
HETATM    5  O   UNL     1      -9.292  13.502  67.576  1.00  0.00    -0.205 OA 
BRANCH   4   6
HETATM    6  C   UNL     1     -10.523  15.038  69.056  1.00  0.00    -0.245 C  
HETATM    7  N   UNL     1     -10.922  16.376  68.560  1.00  0.00    -0.337 NA 
HETATM    8  H2  UNL     1     -11.743  16.337  67.955  1.00  0.00     0.000 HD 
HETATM    9  H1  UNL     1     -11.056  16.999  69.357  1.00  0.00     0.000 HD 
BRANCH   6  10
HETATM   10  C   UNL     1     -11.563  14.456  70.038  1.00  0.00    -0.334 C  
BRANCH  10  11
HETATM   11  C   UNL     1     -11.645  12.937  70.135  1.00  0.00    -0.131 A  
HETATM   12  C   UNL     1     -12.471  12.266  71.042  1.00  0.00    -0.361 A  
HETATM   13  C   UNL     1     -12.486  10.850  71.101  1.00  0.00    -0.511 A  
HETATM   14  C   UNL     1     -11.676  10.046  70.270  1.00  0.00    -0.327 A  
HETATM   15  C   UNL     1     -10.917  10.747  69.315  1.00  0.00    -0.292 A  
HETATM   16  C   UNL     1     -10.895  12.152  69.255  1.00  0.00    -0.105 A  
BRANCH  14  17
HETATM   17  C   UNL     1     -11.553   8.558  70.461  1.00  0.00    -0.132 A  
HETATM   18  N   UNL     1     -11.688   8.094  71.726  1.00  0.00    -0.279 NA 
HETATM   19  C   UNL     1     -11.406   6.804  71.957  1.00  0.00    -0.272 A  
HETATM   20  N   UNL     1     -10.929   5.934  71.059  1.00  0.00    -0.280 NA 
HETATM   21  N   UNL     1     -11.535   6.349  73.253  1.00  0.00    -0.419 NA 
HETATM   22  H1  UNL     1     -11.321   5.367  73.428  1.00  0.00     0.000 HD 
HETATM   23  C   UNL     1     -10.823   6.404  69.814  1.00  0.00    -0.314 A  
HETATM   24  H2  UNL     1     -11.834   6.969  74.006  1.00  0.00     0.000 HD 
HETATM   25  C   UNL     1     -11.168   7.692  69.451  1.00  0.00     0.117 A  
BRANCH  23  26
HETATM   26  O   UNL     1     -10.203   5.646  68.837  1.00  0.00    -0.174 OA 
BRANCH  26  27
HETATM   27  C   UNL     1      -9.087   6.242  68.130  1.00  0.00    -0.112 C  
HETATM   28  C   UNL     1      -7.811   6.517  68.966  1.00  0.00    -0.110 C  
HETATM   29  F   UNL     1      -7.978   6.377  70.299  1.00  0.00    -0.102 F  
HETATM   30  F   UNL     1      -7.411   7.806  68.756  1.00  0.00    -0.077 F  
HETATM   31  F   UNL     1      -6.753   5.749  68.607  1.00  0.00    -0.050 F  
BRANCH  27  32
HETATM   32  C   UNL     1      -8.784   5.459  66.814  1.00  0.00    -0.113 A  
HETATM   33  C   UNL     1      -8.424   6.240  65.690  1.00  0.00    -0.148 A  
HETATM   34  C   UNL     1      -8.273   5.676  64.420  1.00  0.00    -0.120 A  
HETATM   35  C   UNL     1      -8.497   4.320  64.237  1.00  0.00    -0.110 A  
HETATM   36  C   UNL     1      -8.757   3.498  65.334  1.00  0.00    -0.120 A  
HETATM   37 CL   UNL     1      -8.444   3.645  62.655  1.00  0.00    -0.080 Cl 
HETATM   38  C   UNL     1      -8.842   4.045  66.631  1.00  0.00    -0.122 A  
BRANCH  38  39
HETATM   39  N   UNL     1      -8.953   3.143  67.729  1.00  0.00    -0.136 NA 
HETATM   40  C   UNL     1      -9.424   1.842  67.759  1.00  0.00    -0.084 A  
HETATM   41  C   UNL     1      -9.520   1.492  69.088  1.00  0.00    -0.157 A  
HETATM   42  C   UNL     1      -9.008   2.600  69.777  1.00  0.00    -0.103 A  
HETATM   43  N   UNL     1      -8.515   3.503  68.944  1.00  0.00    -0.075 NA 
HETATM   44  C   UNL     1      -8.974   2.889  71.233  1.00  0.00    -0.161 C  
ENDBRANCH  38  39
ENDBRANCH  27  32
ENDBRANCH  26  27
ENDBRANCH  23  26
ENDBRANCH  14  17
ENDBRANCH  10  11
ENDBRANCH   6  10
ENDBRANCH   4   6
ENDBRANCH   3   4
ENDBRANCH   2   3
TORSDOF 10
ENDMDL
MODEL      263
REMARK 921   NORMALIZED FREE ENERGY PREDICTED BY IDOCK:    5.73 KCAL/MOL
REMARK 922        TOTAL FREE ENERGY PREDICTED BY IDOCK:    6.73 KCAL/MOL
REMARK 923 INTER-LIGAND FREE ENERGY PREDICTED BY IDOCK:    2.61 KCAL/MOL
REMARK 924 INTRA-LIGAND FREE ENERGY PREDICTED BY IDOCK:    4.12 KCAL/MOL
REMARK 927      BINDING AFFINITY PREDICTED BY RF-SCORE:    0.00 PKD
ROOT
HETATM    1  C   UNL     1      -6.923   5.104  72.853  1.00  0.00    -0.079 C  
HETATM    2  C   UNL     1      -6.563   4.164  71.717  1.00  0.00    -0.022 C  
ENDROOT
BRANCH   2   3
HETATM    3  O   UNL     1      -7.753   3.926  70.955  1.00  0.00    -0.050 OA 
BRANCH   3   4
HETATM    4  C   UNL     1      -7.572   3.934  69.598  1.00  0.00    -0.052 C  
HETATM    5  O   UNL     1      -8.056   3.124  68.819  1.00  0.00    -0.060 OA 
BRANCH   4   6
HETATM    6  C   UNL     1      -6.699   5.139  69.225  1.00  0.00    -0.052 C  
HETATM    7  N   UNL     1      -6.915   5.466  67.796  1.00  0.00    -0.064 NA 
HETATM    8  H2  UNL     1      -7.899   5.617  67.576  1.00  0.00     0.000 HD 
HETATM    9  H1  UNL     1      -6.334   6.267  67.548  1.00  0.00     0.000 HD 
BRANCH   6  10
HETATM   10  C   UNL     1      -7.006   6.342  70.143  1.00  0.00    -0.063 C  
BRANCH  10  11
HETATM   11  C   UNL     1      -7.828   7.476  69.542  1.00  0.00    -0.120 A  
HETATM   12  C   UNL     1      -7.396   8.258  68.467  1.00  0.00    -0.093 A  
HETATM   13  C   UNL     1      -8.196   9.315  67.969  1.00  0.00    -0.115 A  
HETATM   14  C   UNL     1      -9.453   9.643  68.522  1.00  0.00    -0.145 A  
HETATM   15  C   UNL     1      -9.895   8.789  69.548  1.00  0.00    -0.180 A  
HETATM   16  C   UNL     1      -9.103   7.741  70.050  1.00  0.00    -0.150 A  
BRANCH  14  17
HETATM   17  C   UNL     1     -10.213  10.878  68.118  1.00  0.00    -0.176 A  
HETATM   18  N   UNL     1     -10.616  10.950  66.828  1.00  0.00    -0.255 NA 
HETATM   19  C   UNL     1     -11.134  12.107  66.393  1.00  0.00    -0.314 A  
HETATM   20  N   UNL     1     -11.227  13.238  67.101  1.00  0.00    -0.289 NA 
HETATM   21  N   UNL     1     -11.528  12.169  65.072  1.00  0.00    -0.331 NA 
HETATM   22  H1  UNL     1     -11.922  13.049  64.741  1.00  0.00     0.000 HD 
HETATM   23  C   UNL     1     -10.843  13.142  68.377  1.00  0.00    -0.262 A  
HETATM   24  H2  UNL     1     -11.430  11.365  64.451  1.00  0.00     0.000 HD 
HETATM   25  C   UNL     1     -10.377  11.975  68.949  1.00  0.00    -0.117 A  
BRANCH  23  26
HETATM   26  O   UNL     1     -10.754  14.279  69.161  1.00  0.00    -0.247 OA 
BRANCH  26  27
HETATM   27  C   UNL     1     -11.928  14.670  69.914  1.00  0.00    -0.329 C  
HETATM   28  C   UNL     1     -12.725  13.526  70.590  1.00  0.00    -0.205 C  
HETATM   29  F   UNL     1     -12.355  12.286  70.203  1.00  0.00    -0.342 F  
HETATM   30  F   UNL     1     -14.047  13.655  70.271  1.00  0.00     0.833 F  
HETATM   31  F   UNL     1     -12.678  13.560  71.944  1.00  0.00    -0.395 F  
BRANCH  27  32
HETATM   32  C   UNL     1     -11.590  15.830  70.902  1.00  0.00    -0.440 A  
HETATM   33  C   UNL     1     -11.951  15.625  72.256  1.00  0.00    -0.562 A  
HETATM   34  C   UNL     1     -11.839  16.641  73.209  1.00  0.00    -0.275 A  
HETATM   35  C   UNL     1     -11.380  17.893  72.831  1.00  0.00     2.146 A  
HETATM   36  C   UNL     1     -10.922  18.110  71.532  1.00  0.00     2.989 A  
HETATM   37 CL   UNL     1     -11.367  19.184  73.970  1.00  0.00     3.245 Cl 
HETATM   38  C   UNL     1     -10.965  17.071  70.578  1.00  0.00     0.581 A  
BRANCH  38  39
HETATM   39  N   UNL     1     -10.341  17.299  69.317  1.00  0.00    -0.298 NA 
HETATM   40  C   UNL     1      -9.223  18.052  69.007  1.00  0.00    -0.045 A  
HETATM   41  C   UNL     1      -9.165  18.121  67.632  1.00  0.00    -0.259 A  
HETATM   42  C   UNL     1     -10.227  17.315  67.200  1.00  0.00    -0.319 A  
HETATM   43  N   UNL     1     -10.809  16.695  68.214  1.00  0.00    -0.348 NA 
HETATM   44  C   UNL     1     -10.770  17.099  65.835  1.00  0.00    -0.132 C  
ENDBRANCH  38  39
ENDBRANCH  27  32
ENDBRANCH  26  27
ENDBRANCH  23  26
ENDBRANCH  14  17
ENDBRANCH  10  11
ENDBRANCH   6  10
ENDBRANCH   4   6
ENDBRANCH   3   4
ENDBRANCH   2   3
TORSDOF 10
ENDMDL
MODEL      264
REMARK 921   NORMALIZED FREE ENERGY PREDICTED BY IDOCK:    5.80 KCAL/MOL
REMARK 922        TOTAL FREE ENERGY PREDICTED BY IDOCK:    6.85 KCAL/MOL
REMARK 923 INTER-LIGAND FREE ENERGY PREDICTED BY IDOCK:    7.81 KCAL/MOL
REMARK 924 INTRA-LIGAND FREE ENERGY PREDICTED BY IDOCK:   -0.96 KCAL/MOL
REMARK 927      BINDING AFFINITY PREDICTED BY RF-SCORE:    0.00 PKD
ROOT
HETATM    1  C   UNL     1      -6.973  18.871  69.700  1.00  0.00    -0.041 C  
HETATM    2  C   UNL     1      -7.542  20.108  70.372  1.00  0.00     0.945 C  
ENDROOT
BRANCH   2   3
HETATM    3  O   UNL     1      -8.858  20.321  69.848  1.00  0.00     0.709 OA 
BRANCH   3   4
HETATM    4  C   UNL     1      -9.847  19.621  70.485  1.00  0.00     1.213 C  
HETATM    5  O   UNL     1      -9.899  19.415  71.690  1.00  0.00     2.460 OA 
BRANCH   4   6
HETATM    6  C   UNL     1     -10.883  19.175  69.446  1.00  0.00     1.481 C  
HETATM    7  N   UNL     1     -11.919  20.226  69.315  1.00  0.00     3.803 NA 
HETATM    8  H2  UNL     1     -11.521  21.140  69.099  1.00  0.00     0.000 HD 
HETATM    9  H1  UNL     1     -12.608  19.929  68.624  1.00  0.00     0.000 HD 
BRANCH   6  10
HETATM   10  C   UNL     1     -10.204  18.867  68.093  1.00  0.00    -0.454 C  
BRANCH  10  11
HETATM   11  C   UNL     1      -9.616  17.472  67.918  1.00  0.00    -0.277 A  
HETATM   12  C   UNL     1     -10.386  16.341  67.632  1.00  0.00    -0.284 A  
HETATM   13  C   UNL     1      -9.784  15.065  67.505  1.00  0.00    -0.215 A  
HETATM   14  C   UNL     1      -8.396  14.860  67.664  1.00  0.00    -0.178 A  
HETATM   15  C   UNL     1      -7.639  16.028  67.870  1.00  0.00    -0.144 A  
HETATM   16  C   UNL     1      -8.232  17.296  68.002  1.00  0.00    -0.223 A  
BRANCH  14  17
HETATM   17  C   UNL     1      -7.785  13.485  67.715  1.00  0.00    -0.163 A  
HETATM   18  N   UNL     1      -7.067  13.179  68.820  1.00  0.00    -0.103 NA 
HETATM   19  C   UNL     1      -6.364  12.037  68.819  1.00  0.00    -0.071 A  
HETATM   20  N   UNL     1      -6.246  11.192  67.788  1.00  0.00    -0.050 NA 
HETATM   21  N   UNL     1      -5.626  11.745  69.948  1.00  0.00    -0.092 NA 
HETATM   22  H1  UNL     1      -5.092  10.876  69.946  1.00  0.00     0.000 HD 
HETATM   23  C   UNL     1      -6.978  11.500  66.715  1.00  0.00    -0.108 A  
HETATM   24  H2  UNL     1      -5.616  12.373  70.752  1.00  0.00     0.000 HD 
HETATM   25  C   UNL     1      -7.803  12.606  66.644  1.00  0.00     0.303 A  
BRANCH  23  26
HETATM   26  O   UNL     1      -6.821  10.786  65.540  1.00  0.00    -0.094 OA 
BRANCH  26  27
HETATM   27  C   UNL     1      -7.816   9.780  65.227  1.00  0.00    -0.120 C  
HETATM   28  C   UNL     1      -8.438   9.846  63.809  1.00  0.00    -0.181 C  
HETATM   29  F   UNL     1      -8.142  10.972  63.123  1.00  0.00    -0.084 F  
HETATM   30  F   UNL     1      -9.799   9.804  63.918  1.00  0.00    -0.279 F  
HETATM   31  F   UNL     1      -8.108   8.793  63.023  1.00  0.00    -0.139 F  
BRANCH  27  32
HETATM   32  C   UNL     1      -7.292   8.354  65.585  1.00  0.00    -0.076 A  
HETATM   33  C   UNL     1      -5.936   8.090  65.278  1.00  0.00    -0.045 A  
HETATM   34  C   UNL     1      -5.386   6.811  65.411  1.00  0.00    -0.026 A  
HETATM   35  C   UNL     1      -6.184   5.760  65.837  1.00  0.00    -0.034 A  
HETATM   36  C   UNL     1      -7.497   5.995  66.243  1.00  0.00    -0.086 A  
HETATM   37 CL   UNL     1      -5.550   4.161  65.874  1.00  0.00    -0.013 Cl 
HETATM   38  C   UNL     1      -8.041   7.295  66.179  1.00  0.00    -0.121 A  
BRANCH  38  39
HETATM   39  N   UNL     1      -9.329   7.507  66.752  1.00  0.00    -0.157 NA 
HETATM   40  C   UNL     1     -10.471   6.730  66.671  1.00  0.00    -0.143 A  
HETATM   41  C   UNL     1     -11.493   7.478  67.214  1.00  0.00     0.956 A  
HETATM   42  C   UNL     1     -10.864   8.643  67.672  1.00  0.00    -0.010 A  
HETATM   43  N   UNL     1      -9.549   8.568  67.543  1.00  0.00    -0.149 NA 
HETATM   44  C   UNL     1     -11.449   9.891  68.225  1.00  0.00     0.099 C  
ENDBRANCH  38  39
ENDBRANCH  27  32
ENDBRANCH  26  27
ENDBRANCH  23  26
ENDBRANCH  14  17
ENDBRANCH  10  11
ENDBRANCH   6  10
ENDBRANCH   4   6
ENDBRANCH   3   4
ENDBRANCH   2   3
TORSDOF 10
ENDMDL
MODEL      265
REMARK 921   NORMALIZED FREE ENERGY PREDICTED BY IDOCK:    5.98 KCAL/MOL
REMARK 922        TOTAL FREE ENERGY PREDICTED BY IDOCK:    7.14 KCAL/MOL
REMARK 923 INTER-LIGAND FREE ENERGY PREDICTED BY IDOCK:    2.74 KCAL/MOL
REMARK 924 INTRA-LIGAND FREE ENERGY PREDICTED BY IDOCK:    4.40 KCAL/MOL
REMARK 927      BINDING AFFINITY PREDICTED BY RF-SCORE:    0.00 PKD
ROOT
HETATM    1  C   UNL     1     -13.216  16.466  72.494  1.00  0.00     0.381 C  
HETATM    2  C   UNL     1     -12.625  15.068  72.462  1.00  0.00    -0.357 C  
ENDROOT
BRANCH   2   3
HETATM    3  O   UNL     1     -11.236  15.174  72.795  1.00  0.00    -0.248 OA 
BRANCH   3   4
HETATM    4  C   UNL     1     -10.408  15.394  71.728  1.00  0.00     1.414 C  
HETATM    5  O   UNL     1      -9.376  14.777  71.498  1.00  0.00     2.717 OA 
BRANCH   4   6
HETATM    6  C   UNL     1     -11.007  16.509  70.861  1.00  0.00     0.209 C  
HETATM    7  N   UNL     1      -9.907  17.332  70.306  1.00  0.00     1.299 NA 
HETATM    8  H2  UNL     1      -9.220  16.773  69.799  1.00  0.00     0.000 HD 
HETATM    9  H1  UNL     1     -10.305  18.073  69.730  1.00  0.00     0.000 HD 
BRANCH   6  10
HETATM   10  C   UNL     1     -11.900  15.918  69.749  1.00  0.00    -0.303 C  
BRANCH  10  11
HETATM   11  C   UNL     1     -11.415  14.636  69.083  1.00  0.00    -0.320 A  
HETATM   12  C   UNL     1     -11.452  14.422  67.702  1.00  0.00    -0.369 A  
HETATM   13  C   UNL     1     -11.009  13.197  67.144  1.00  0.00    -0.289 A  
HETATM   14  C   UNL     1     -10.521  12.134  67.935  1.00  0.00    -0.224 A  
HETATM   15  C   UNL     1     -10.422  12.409  69.311  1.00  0.00     0.176 A  
HETATM   16  C   UNL     1     -10.864  13.621  69.871  1.00  0.00     0.341 A  
BRANCH  14  17
HETATM   17  C   UNL     1     -10.230  10.773  67.362  1.00  0.00    -0.204 A  
HETATM   18  N   UNL     1     -11.055   9.766  67.735  1.00  0.00    -0.180 NA 
HETATM   19  C   UNL     1     -10.719   8.516  67.389  1.00  0.00    -0.145 A  
HETATM   20  N   UNL     1      -9.594   8.152  66.763  1.00  0.00    -0.199 NA 
HETATM   21  N   UNL     1     -11.563   7.499  67.788  1.00  0.00     0.352 NA 
HETATM   22  H1  UNL     1     -11.307   6.548  67.525  1.00  0.00     0.000 HD 
HETATM   23  C   UNL     1      -8.803   9.159  66.386  1.00  0.00    -0.141 A  
HETATM   24  H2  UNL     1     -12.409   7.691  68.324  1.00  0.00     0.000 HD 
HETATM   25  C   UNL     1      -9.098  10.490  66.615  1.00  0.00    -0.172 A  
BRANCH  23  26
HETATM   26  O   UNL     1      -7.548   8.899  65.867  1.00  0.00    -0.091 OA 
BRANCH  26  27
HETATM   27  C   UNL     1      -7.412   7.768  64.971  1.00  0.00    -0.089 C  
HETATM   28  C   UNL     1      -6.781   8.059  63.586  1.00  0.00    -0.074 C  
HETATM   29  F   UNL     1      -6.647   9.373  63.301  1.00  0.00    -0.091 F  
HETATM   30  F   UNL     1      -7.580   7.529  62.613  1.00  0.00    -0.084 F  
HETATM   31  F   UNL     1      -5.568   7.480  63.410  1.00  0.00    -0.041 F  
BRANCH  27  32
HETATM   32  C   UNL     1      -6.732   6.566  65.698  1.00  0.00    -0.048 A  
HETATM   33  C   UNL     1      -6.419   5.443  64.894  1.00  0.00    -0.039 A  
HETATM   34  C   UNL     1      -5.947   4.250  65.447  1.00  0.00    -0.023 A  
HETATM   35  C   UNL     1      -5.792   4.141  66.821  1.00  0.00    -0.023 A  
HETATM   36  C   UNL     1      -5.994   5.252  67.640  1.00  0.00    -0.022 A  
HETATM   37 CL   UNL     1      -5.339   2.635  67.518  1.00  0.00    -0.016 Cl 
HETATM   38  C   UNL     1      -6.404   6.483  67.084  1.00  0.00    -0.041 A  
BRANCH  38  39
HETATM   39  N   UNL     1      -6.443   7.621  67.942  1.00  0.00    -0.053 NA 
HETATM   40  C   UNL     1      -7.363   7.961  68.917  1.00  0.00    -0.085 A  
HETATM   41  C   UNL     1      -7.066   9.250  69.302  1.00  0.00    -0.057 A  
HETATM   42  C   UNL     1      -5.911   9.572  68.576  1.00  0.00    -0.043 A  
HETATM   43  N   UNL     1      -5.456   8.528  67.902  1.00  0.00    -0.035 NA 
HETATM   44  C   UNL     1      -5.190  10.864  68.450  1.00  0.00    -0.040 C  
ENDBRANCH  38  39
ENDBRANCH  27  32
ENDBRANCH  26  27
ENDBRANCH  23  26
ENDBRANCH  14  17
ENDBRANCH  10  11
ENDBRANCH   6  10
ENDBRANCH   4   6
ENDBRANCH   3   4
ENDBRANCH   2   3
TORSDOF 10
ENDMDL
MODEL      266
REMARK 921   NORMALIZED FREE ENERGY PREDICTED BY IDOCK:    6.42 KCAL/MOL
REMARK 922        TOTAL FREE ENERGY PREDICTED BY IDOCK:    7.83 KCAL/MOL
REMARK 923 INTER-LIGAND FREE ENERGY PREDICTED BY IDOCK:    7.32 KCAL/MOL
REMARK 924 INTRA-LIGAND FREE ENERGY PREDICTED BY IDOCK:    0.51 KCAL/MOL
REMARK 927      BINDING AFFINITY PREDICTED BY RF-SCORE:    0.00 PKD
ROOT
HETATM    1  C   UNL     1      -8.847  14.161  71.615  1.00  0.00     7.480 C  
HETATM    2  C   UNL     1     -10.081  14.979  71.953  1.00  0.00     2.626 C  
ENDROOT
BRANCH   2   3
HETATM    3  O   UNL     1     -11.102  14.072  72.383  1.00  0.00     2.189 OA 
BRANCH   3   4
HETATM    4  C   UNL     1     -12.209  14.035  71.579  1.00  0.00    -0.199 C  
HETATM    5  O   UNL     1     -12.369  14.708  70.569  1.00  0.00    -0.297 OA 
BRANCH   4   6
HETATM    6  C   UNL     1     -13.188  12.994  72.137  1.00  0.00    -0.457 C  
HETATM    7  N   UNL     1     -14.402  13.687  72.629  1.00  0.00    -0.603 NA 
HETATM    8  H2  UNL     1     -14.828  14.278  71.916  1.00  0.00     0.000 HD 
HETATM    9  H1  UNL     1     -15.052  12.994  73.000  1.00  0.00     0.000 HD 
BRANCH   6  10
HETATM   10  C   UNL     1     -13.527  11.933  71.067  1.00  0.00     0.654 C  
BRANCH  10  11
HETATM   11  C   UNL     1     -12.809  10.594  71.170  1.00  0.00    -0.518 A  
HETATM   12  C   UNL     1     -13.471   9.373  71.327  1.00  0.00    -0.331 A  
HETATM   13  C   UNL     1     -12.746   8.161  71.443  1.00  0.00    -0.283 A  
HETATM   14  C   UNL     1     -11.335   8.114  71.416  1.00  0.00    -0.299 A  
HETATM   15  C   UNL     1     -10.700   9.347  71.177  1.00  0.00    -0.417 A  
HETATM   16  C   UNL     1     -11.415  10.553  71.066  1.00  0.00    -0.207 A  
BRANCH  14  17
HETATM   17  C   UNL     1     -10.565   6.859  71.726  1.00  0.00    -0.212 A  
HETATM   18  N   UNL     1     -11.100   6.029  72.652  1.00  0.00    -0.260 NA 
HETATM   19  C   UNL     1     -10.357   5.000  73.081  1.00  0.00    -0.187 A  
HETATM   20  N   UNL     1      -9.090   4.749  72.730  1.00  0.00    -0.122 NA 
HETATM   21  N   UNL     1     -10.911   4.170  74.034  1.00  0.00    -0.215 NA 
HETATM   22  H1  UNL     1     -10.346   3.387  74.360  1.00  0.00     0.000 HD 
HETATM   23  C   UNL     1      -8.586   5.566  71.801  1.00  0.00    -0.135 A  
HETATM   24  H2  UNL     1     -11.850   4.334  74.398  1.00  0.00     0.000 HD 
HETATM   25  C   UNL     1      -9.296   6.604  71.230  1.00  0.00    -0.159 A  
BRANCH  23  26
HETATM   26  O   UNL     1      -7.244   5.497  71.472  1.00  0.00    -0.075 OA 
BRANCH  26  27
HETATM   27  C   UNL     1      -6.904   5.148  70.108  1.00  0.00    -0.048 C  
HETATM   28  C   UNL     1      -6.262   3.754  69.894  1.00  0.00    -0.027 C  
HETATM   29  F   UNL     1      -5.891   3.132  71.034  1.00  0.00    -0.012 F  
HETATM   30  F   UNL     1      -5.131   3.895  69.141  1.00  0.00    -0.005 F  
HETATM   31  F   UNL     1      -7.049   2.896  69.200  1.00  0.00    -0.042 F  
BRANCH  27  32
HETATM   32  C   UNL     1      -8.112   5.404  69.154  1.00  0.00    -0.094 A  
HETATM   33  C   UNL     1      -9.205   4.513  69.274  1.00  0.00    -0.195 A  
HETATM   34  C   UNL     1     -10.280   4.542  68.381  1.00  0.00     0.075 A  
HETATM   35  C   UNL     1     -10.282   5.450  67.334  1.00  0.00    -0.201 A  
HETATM   36  C   UNL     1      -9.274   6.410  67.236  1.00  0.00    -0.122 A  
HETATM   37 CL   UNL     1     -11.535   5.401  66.156  1.00  0.00     0.521 Cl 
HETATM   38  C   UNL     1      -8.220   6.435  68.173  1.00  0.00    -0.116 A  
BRANCH  38  39
HETATM   39  N   UNL     1      -7.308   7.529  68.119  1.00  0.00    -0.093 NA 
HETATM   40  C   UNL     1      -6.178   7.701  67.339  1.00  0.00    -0.053 A  
HETATM   41  C   UNL     1      -5.537   8.822  67.819  1.00  0.00    -0.035 A  
HETATM   42  C   UNL     1      -6.389   9.306  68.821  1.00  0.00    -0.048 A  
HETATM   43  N   UNL     1      -7.521   8.622  68.867  1.00  0.00    -0.088 NA 
HETATM   44  C   UNL     1      -6.187  10.405  69.799  1.00  0.00    -0.067 C  
ENDBRANCH  38  39
ENDBRANCH  27  32
ENDBRANCH  26  27
ENDBRANCH  23  26
ENDBRANCH  14  17
ENDBRANCH  10  11
ENDBRANCH   6  10
ENDBRANCH   4   6
ENDBRANCH   3   4
ENDBRANCH   2   3
TORSDOF 10
ENDMDL
MODEL      267
REMARK 921   NORMALIZED FREE ENERGY PREDICTED BY IDOCK:    6.75 KCAL/MOL
REMARK 922        TOTAL FREE ENERGY PREDICTED BY IDOCK:    8.35 KCAL/MOL
REMARK 923 INTER-LIGAND FREE ENERGY PREDICTED BY IDOCK:   -0.58 KCAL/MOL
REMARK 924 INTRA-LIGAND FREE ENERGY PREDICTED BY IDOCK:    8.93 KCAL/MOL
REMARK 927      BINDING AFFINITY PREDICTED BY RF-SCORE:    0.00 PKD
ROOT
HETATM    1  C   UNL     1     -11.455  15.462  72.287  1.00  0.00    -0.506 C  
HETATM    2  C   UNL     1     -11.474  16.641  71.331  1.00  0.00     0.130 C  
ENDROOT
BRANCH   2   3
HETATM    3  O   UNL     1     -11.875  16.154  70.045  1.00  0.00    -0.278 OA 
BRANCH   3   4
HETATM    4  C   UNL     1     -11.027  16.480  69.022  1.00  0.00    -0.306 C  
HETATM    5  O   UNL     1     -11.356  17.040  67.985  1.00  0.00    -0.147 OA 
BRANCH   4   6
HETATM    6  C   UNL     1      -9.603  16.057  69.409  1.00  0.00    -0.236 C  
HETATM    7  N   UNL     1      -9.065  17.024  70.396  1.00  0.00     2.546 NA 
HETATM    8  H2  UNL     1      -9.674  17.130  71.208  1.00  0.00     0.000 HD 
HETATM    9  H1  UNL     1      -8.119  16.743  70.653  1.00  0.00     0.000 HD 
BRANCH   6  10
HETATM   10  C   UNL     1      -9.590  14.613  69.954  1.00  0.00     0.466 C  
BRANCH  10  11
HETATM   11  C   UNL     1      -9.287  13.501  68.957  1.00  0.00     0.321 A  
HETATM   12  C   UNL     1      -9.116  12.163  69.322  1.00  0.00     0.808 A  
HETATM   13  C   UNL     1      -8.810  11.177  68.351  1.00  0.00    -0.157 A  
HETATM   14  C   UNL     1      -8.654  11.483  66.981  1.00  0.00    -0.161 A  
HETATM   15  C   UNL     1      -8.911  12.822  66.634  1.00  0.00    -0.113 A  
HETATM   16  C   UNL     1      -9.210  13.805  67.595  1.00  0.00    -0.207 A  
BRANCH  14  17
HETATM   17  C   UNL     1      -8.147  10.477  65.984  1.00  0.00    -0.148 A  
HETATM   18  N   UNL     1      -8.237  10.815  64.676  1.00  0.00    -0.011 NA 
HETATM   19  C   UNL     1      -7.963   9.874  63.762  1.00  0.00    -0.148 A  
HETATM   20  N   UNL     1      -7.673   8.594  64.018  1.00  0.00    -0.126 NA 
HETATM   21  N   UNL     1      -8.072  10.231  62.433  1.00  0.00    -0.144 NA 
HETATM   22  H1  UNL     1      -7.864   9.515  61.737  1.00  0.00     0.000 HD 
HETATM   23  C   UNL     1      -7.569   8.284  65.313  1.00  0.00    -0.094 A  
HETATM   24  H2  UNL     1      -8.350  11.173  62.157  1.00  0.00     0.000 HD 
HETATM   25  C   UNL     1      -7.746   9.197  66.334  1.00  0.00    -0.096 A  
BRANCH  23  26
HETATM   26  O   UNL     1      -7.423   6.963  65.700  1.00  0.00    -0.079 OA 
BRANCH  26  27
HETATM   27  C   UNL     1      -7.269   6.691  67.115  1.00  0.00    -0.081 C  
HETATM   28  C   UNL     1      -6.276   5.564  67.495  1.00  0.00    -0.031 C  
HETATM   29  F   UNL     1      -5.848   4.823  66.449  1.00  0.00    -0.019 F  
HETATM   30  F   UNL     1      -6.889   4.702  68.359  1.00  0.00    -0.046 F  
HETATM   31  F   UNL     1      -5.177   6.010  68.152  1.00  0.00    -0.003 F  
BRANCH  27  32
HETATM   32  C   UNL     1      -7.010   8.010  67.907  1.00  0.00    -0.078 A  
HETATM   33  C   UNL     1      -5.967   8.836  67.424  1.00  0.00    -0.047 A  
HETATM   34  C   UNL     1      -5.538   9.966  68.126  1.00  0.00    -0.039 A  
HETATM   35  C   UNL     1      -6.128  10.289  69.338  1.00  0.00    -0.042 A  
HETATM   36  C   UNL     1      -7.223   9.560  69.802  1.00  0.00    -0.084 A  
HETATM   37 CL   UNL     1      -5.514  11.599  70.271  1.00  0.00    -0.109 Cl 
HETATM   38  C   UNL     1      -7.710   8.460  69.067  1.00  0.00    -0.097 A  
BRANCH  38  39
HETATM   39  N   UNL     1      -8.923   7.851  69.504  1.00  0.00    -0.142 NA 
HETATM   40  C   UNL     1     -10.233   8.172  69.197  1.00  0.00    -0.214 A  
HETATM   41  C   UNL     1     -11.026   7.424  70.039  1.00  0.00    -0.264 A  
HETATM   42  C   UNL     1     -10.121   6.624  70.750  1.00  0.00    -0.184 A  
HETATM   43  N   UNL     1      -8.886   6.769  70.295  1.00  0.00    -0.151 NA 
HETATM   44  C   UNL     1     -10.349   5.711  71.897  1.00  0.00    -0.266 C  
ENDBRANCH  38  39
ENDBRANCH  27  32
ENDBRANCH  26  27
ENDBRANCH  23  26
ENDBRANCH  14  17
ENDBRANCH  10  11
ENDBRANCH   6  10
ENDBRANCH   4   6
ENDBRANCH   3   4
ENDBRANCH   2   3
TORSDOF 10
ENDMDL
MODEL      268
REMARK 921   NORMALIZED FREE ENERGY PREDICTED BY IDOCK:    7.03 KCAL/MOL
REMARK 922        TOTAL FREE ENERGY PREDICTED BY IDOCK:    8.80 KCAL/MOL
REMARK 923 INTER-LIGAND FREE ENERGY PREDICTED BY IDOCK:    3.78 KCAL/MOL
REMARK 924 INTRA-LIGAND FREE ENERGY PREDICTED BY IDOCK:    5.02 KCAL/MOL
REMARK 927      BINDING AFFINITY PREDICTED BY RF-SCORE:    0.00 PKD
ROOT
HETATM    1  C   UNL     1      -6.630   4.257  70.270  1.00  0.00    -0.032 C  
HETATM    2  C   UNL     1      -6.895   4.112  71.758  1.00  0.00    -0.030 C  
ENDROOT
BRANCH   2   3
HETATM    3  O   UNL     1      -7.792   3.010  71.936  1.00  0.00    -0.052 OA 
BRANCH   3   4
HETATM    4  C   UNL     1      -8.039   2.286  70.801  1.00  0.00    -0.049 C  
HETATM    5  O   UNL     1      -7.182   1.809  70.069  1.00  0.00    -0.033 OA 
BRANCH   4   6
HETATM    6  C   UNL     1      -9.557   2.149  70.626  1.00  0.00    -0.074 C  
HETATM    7  N   UNL     1     -10.223   2.480  71.908  1.00  0.00    -0.091 NA 
HETATM    8  H2  UNL     1      -9.954   3.399  72.259  1.00  0.00     0.000 HD 
HETATM    9  H1  UNL     1     -11.232   2.389  71.791  1.00  0.00     0.000 HD 
BRANCH   6  10
HETATM   10  C   UNL     1     -10.058   3.043  69.470  1.00  0.00     0.864 C  
BRANCH  10  11
HETATM   11  C   UNL     1      -9.754   4.533  69.570  1.00  0.00    -0.282 A  
HETATM   12  C   UNL     1      -9.932   5.429  68.511  1.00  0.00    -0.223 A  
HETATM   13  C   UNL     1      -9.608   6.801  68.657  1.00  0.00    -0.131 A  
HETATM   14  C   UNL     1      -9.087   7.335  69.856  1.00  0.00    -0.141 A  
HETATM   15  C   UNL     1      -8.995   6.426  70.926  1.00  0.00    -0.144 A  
HETATM   16  C   UNL     1      -9.311   5.063  70.785  1.00  0.00    -0.209 A  
BRANCH  14  17
HETATM   17  C   UNL     1      -8.568   8.745  69.950  1.00  0.00    -0.133 A  
HETATM   18  N   UNL     1      -7.947   9.090  71.102  1.00  0.00    -0.238 NA 
HETATM   19  C   UNL     1      -7.636  10.380  71.289  1.00  0.00     2.457 A  
HETATM   20  N   UNL     1      -7.947  11.388  70.466  1.00  0.00     2.283 NA 
HETATM   21  N   UNL     1      -7.014  10.718  72.474  1.00  0.00     3.624 NA 
HETATM   22  H1  UNL     1      -6.778  11.699  72.616  1.00  0.00     0.000 HD 
HETATM   23  C   UNL     1      -8.542  11.026  69.326  1.00  0.00     0.087 A  
HETATM   24  H2  UNL     1      -6.800  10.013  73.180  1.00  0.00     0.000 HD 
HETATM   25  C   UNL     1      -8.829   9.715  68.996  1.00  0.00    -0.147 A  
BRANCH  23  26
HETATM   26  O   UNL     1      -9.044  11.989  68.470  1.00  0.00    -0.178 OA 
BRANCH  26  27
HETATM   27  C   UNL     1      -8.211  12.402  67.358  1.00  0.00    -0.180 C  
HETATM   28  C   UNL     1      -6.846  13.039  67.721  1.00  0.00    -0.144 C  
HETATM   29  F   UNL     1      -6.702  13.338  69.031  1.00  0.00    -0.091 F  
HETATM   30  F   UNL     1      -6.705  14.212  67.035  1.00  0.00    -0.055 F  
HETATM   31  F   UNL     1      -5.782  12.282  67.359  1.00  0.00    -0.085 F  
BRANCH  27  32
HETATM   32  C   UNL     1      -8.076  11.252  66.312  1.00  0.00    -0.108 A  
HETATM   33  C   UNL     1      -7.078  10.282  66.571  1.00  0.00    -0.108 A  
HETATM   34  C   UNL     1      -6.756   9.289  65.642  1.00  0.00    -0.073 A  
HETATM   35  C   UNL     1      -7.412   9.251  64.421  1.00  0.00    -0.106 A  
HETATM   36  C   UNL     1      -8.468  10.125  64.163  1.00  0.00    -0.182 A  
HETATM   37 CL   UNL     1      -6.928   8.116  63.221  1.00  0.00    -0.084 Cl 
HETATM   38  C   UNL     1      -8.848  11.086  65.123  1.00  0.00    -0.106 A  
BRANCH  38  39
HETATM   39  N   UNL     1     -10.029  11.845  64.875  1.00  0.00    -0.254 NA 
HETATM   40  C   UNL     1     -11.016  11.657  63.923  1.00  0.00    -0.407 A  
HETATM   41  C   UNL     1     -11.817  12.777  63.964  1.00  0.00    -0.506 A  
HETATM   42  C   UNL     1     -11.296  13.538  65.019  1.00  0.00    -0.320 A  
HETATM   43  N   UNL     1     -10.339  12.886  65.661  1.00  0.00    -0.279 NA 
HETATM   44  C   UNL     1     -11.638  14.911  65.468  1.00  0.00    -0.263 C  
ENDBRANCH  38  39
ENDBRANCH  27  32
ENDBRANCH  26  27
ENDBRANCH  23  26
ENDBRANCH  14  17
ENDBRANCH  10  11
ENDBRANCH   6  10
ENDBRANCH   4   6
ENDBRANCH   3   4
ENDBRANCH   2   3
TORSDOF 10
ENDMDL
MODEL      269
REMARK 921   NORMALIZED FREE ENERGY PREDICTED BY IDOCK:    7.48 KCAL/MOL
REMARK 922        TOTAL FREE ENERGY PREDICTED BY IDOCK:    9.51 KCAL/MOL
REMARK 923 INTER-LIGAND FREE ENERGY PREDICTED BY IDOCK:    2.44 KCAL/MOL
REMARK 924 INTRA-LIGAND FREE ENERGY PREDICTED BY IDOCK:    7.07 KCAL/MOL
REMARK 927      BINDING AFFINITY PREDICTED BY RF-SCORE:    0.00 PKD
ROOT
HETATM    1  C   UNL     1      -6.521  19.948  64.193  1.00  0.00     0.076 C  
HETATM    2  C   UNL     1      -7.166  18.620  64.547  1.00  0.00     2.658 C  
ENDROOT
BRANCH   2   3
HETATM    3  O   UNL     1      -8.414  18.899  65.192  1.00  0.00     0.767 OA 
BRANCH   3   4
HETATM    4  C   UNL     1      -8.927  17.857  65.917  1.00  0.00     0.177 C  
HETATM    5  O   UNL     1      -8.264  17.044  66.547  1.00  0.00    -0.227 OA 
BRANCH   4   6
HETATM    6  C   UNL     1     -10.458  17.905  65.832  1.00  0.00    -0.253 C  
HETATM    7  N   UNL     1     -10.870  17.711  64.422  1.00  0.00     0.368 NA 
HETATM    8  H2  UNL     1     -10.485  16.856  64.019  1.00  0.00     0.000 HD 
HETATM    9  H1  UNL     1     -11.887  17.743  64.367  1.00  0.00     0.000 HD 
BRANCH   6  10
HETATM   10  C   UNL     1     -11.091  16.851  66.766  1.00  0.00     0.280 C  
BRANCH  10  11
HETATM   11  C   UNL     1     -10.250  15.622  67.089  1.00  0.00    -0.270 A  
HETATM   12  C   UNL     1      -9.621  14.840  66.116  1.00  0.00    -0.338 A  
HETATM   13  C   UNL     1      -8.872  13.693  66.477  1.00  0.00     0.000 A  
HETATM   14  C   UNL     1      -8.725  13.272  67.817  1.00  0.00    -0.194 A  
HETATM   15  C   UNL     1      -9.301  14.122  68.777  1.00  0.00    -0.092 A  
HETATM   16  C   UNL     1     -10.050  15.260  68.424  1.00  0.00    -0.220 A  
BRANCH  14  17
HETATM   17  C   UNL     1      -8.092  11.956  68.182  1.00  0.00    -0.155 A  
HETATM   18  N   UNL     1      -6.933  11.642  67.556  1.00  0.00    -0.095 NA 
HETATM   19  C   UNL     1      -6.441  10.407  67.723  1.00  0.00    -0.061 A  
HETATM   20  N   UNL     1      -7.029   9.415  68.402  1.00  0.00    -0.066 NA 
HETATM   21  N   UNL     1      -5.267  10.098  67.068  1.00  0.00    -0.040 NA 
HETATM   22  H1  UNL     1      -4.892   9.158  67.195  1.00  0.00     0.000 HD 
HETATM   23  C   UNL     1      -8.160   9.749  69.029  1.00  0.00    -0.101 A  
HETATM   24  H2  UNL     1      -4.791  10.783  66.480  1.00  0.00     0.000 HD 
HETATM   25  C   UNL     1      -8.708  11.016  68.994  1.00  0.00    -0.072 A  
BRANCH  23  26
HETATM   26  O   UNL     1      -8.931   8.773  69.634  1.00  0.00    -0.140 OA 
BRANCH  26  27
HETATM   27  C   UNL     1     -10.033   9.208  70.469  1.00  0.00    -0.235 C  
HETATM   28  C   UNL     1     -10.834  10.435  69.966  1.00  0.00    -0.289 C  
HETATM   29  F   UNL     1     -10.264  11.085  68.928  1.00  0.00    -0.178 F  
HETATM   30  F   UNL     1     -10.944  11.342  70.982  1.00  0.00     0.602 F  
HETATM   31  F   UNL     1     -12.108  10.141  69.609  1.00  0.00    -0.226 F  
BRANCH  27  32
HETATM   32  C   UNL     1     -10.953   8.004  70.843  1.00  0.00    -0.260 A  
HETATM   33  C   UNL     1     -11.915   8.240  71.854  1.00  0.00    -0.383 A  
HETATM   34  C   UNL     1     -12.696   7.209  72.383  1.00  0.00     0.135 A  
HETATM   35  C   UNL     1     -12.523   5.911  71.927  1.00  0.00     0.417 A  
HETATM   36  C   UNL     1     -11.657   5.650  70.865  1.00  0.00     0.337 A  
HETATM   37 CL   UNL     1     -13.385   4.619  72.668  1.00  0.00     1.641 Cl 
HETATM   38  C   UNL     1     -10.915   6.695  70.277  1.00  0.00    -0.303 A  
BRANCH  38  39
HETATM   39  N   UNL     1     -10.169   6.399  69.098  1.00  0.00    -0.171 NA 
HETATM   40  C   UNL     1     -10.530   6.525  67.769  1.00  0.00    -0.227 A  
HETATM   41  C   UNL     1      -9.540   5.909  67.035  1.00  0.00    -0.144 A  
HETATM   42  C   UNL     1      -8.590   5.523  67.989  1.00  0.00    -0.100 A  
HETATM   43  N   UNL     1      -8.899   5.976  69.193  1.00  0.00    -0.119 NA 
HETATM   44  C   UNL     1      -7.366   4.695  67.839  1.00  0.00    -0.066 C  
ENDBRANCH  38  39
ENDBRANCH  27  32
ENDBRANCH  26  27
ENDBRANCH  23  26
ENDBRANCH  14  17
ENDBRANCH  10  11
ENDBRANCH   6  10
ENDBRANCH   4   6
ENDBRANCH   3   4
ENDBRANCH   2   3
TORSDOF 10
ENDMDL
MODEL      270
REMARK 921   NORMALIZED FREE ENERGY PREDICTED BY IDOCK:    8.09 KCAL/MOL
REMARK 922        TOTAL FREE ENERGY PREDICTED BY IDOCK:   10.49 KCAL/MOL
REMARK 923 INTER-LIGAND FREE ENERGY PREDICTED BY IDOCK:    1.01 KCAL/MOL
REMARK 924 INTRA-LIGAND FREE ENERGY PREDICTED BY IDOCK:    9.48 KCAL/MOL
REMARK 927      BINDING AFFINITY PREDICTED BY RF-SCORE:    0.00 PKD
ROOT
HETATM    1  C   UNL     1      -9.845  15.708  70.978  1.00  0.00     1.485 C  
HETATM    2  C   UNL     1      -9.033  15.725  69.696  1.00  0.00    -0.084 C  
ENDROOT
BRANCH   2   3
HETATM    3  O   UNL     1      -9.713  16.570  68.760  1.00  0.00    -0.231 OA 
BRANCH   3   4
HETATM    4  C   UNL     1      -9.105  16.674  67.538  1.00  0.00    -0.202 C  
HETATM    5  O   UNL     1      -8.413  17.616  67.174  1.00  0.00    -0.217 OA 
BRANCH   4   6
HETATM    6  C   UNL     1      -9.408  15.407  66.728  1.00  0.00    -0.246 C  
HETATM    7  N   UNL     1      -8.130  14.748  66.368  1.00  0.00    -0.149 NA 
HETATM    8  H2  UNL     1      -7.548  14.557  67.184  1.00  0.00     0.000 HD 
HETATM    9  H1  UNL     1      -8.331  13.906  65.830  1.00  0.00     0.000 HD 
BRANCH   6  10
HETATM   10  C   UNL     1     -10.340  14.462  67.517  1.00  0.00    -0.251 C  
BRANCH  10  11
HETATM   11  C   UNL     1      -9.773  13.103  67.909  1.00  0.00    -0.221 A  
HETATM   12  C   UNL     1      -9.575  12.058  67.002  1.00  0.00    -0.200 A  
HETATM   13  C   UNL     1      -9.067  10.808  67.432  1.00  0.00    -0.148 A  
HETATM   14  C   UNL     1      -8.743  10.542  68.781  1.00  0.00    -0.154 A  
HETATM   15  C   UNL     1      -8.878  11.637  69.655  1.00  0.00     1.319 A  
HETATM   16  C   UNL     1      -9.386  12.879  69.234  1.00  0.00     0.891 A  
BRANCH  14  17
HETATM   17  C   UNL     1      -8.385   9.163  69.266  1.00  0.00    -0.123 A  
HETATM   18  N   UNL     1      -7.113   8.753  69.050  1.00  0.00    -0.064 NA 
HETATM   19  C   UNL     1      -6.813   7.472  69.306  1.00  0.00    -0.056 A  
HETATM   20  N   UNL     1      -7.677   6.527  69.693  1.00  0.00    -0.101 NA 
HETATM   21  N   UNL     1      -5.516   7.065  69.069  1.00  0.00    -0.017 NA 
HETATM   22  H1  UNL     1      -5.287   6.091  69.263  1.00  0.00     0.000 HD 
HETATM   23  C   UNL     1      -8.922   6.955  69.920  1.00  0.00    -0.142 A  
HETATM   24  H2  UNL     1      -4.813   7.714  68.713  1.00  0.00     0.000 HD 
HETATM   25  C   UNL     1      -9.317   8.270  69.771  1.00  0.00    -0.158 A  
BRANCH  23  26
HETATM   26  O   UNL     1      -9.932   6.045  70.177  1.00  0.00    -0.167 OA 
BRANCH  26  27
HETATM   27  C   UNL     1     -10.616   6.142  71.450  1.00  0.00    -0.243 C  
HETATM   28  C   UNL     1      -9.858   5.588  72.683  1.00  0.00    -0.162 C  
HETATM   29  F   UNL     1      -8.749   4.877  72.380  1.00  0.00    -0.118 F  
HETATM   30  F   UNL     1     -10.683   4.747  73.373  1.00  0.00    -0.203 F  
HETATM   31  F   UNL     1      -9.496   6.545  73.571  1.00  0.00    -0.135 F  
BRANCH  27  32
HETATM   32  C   UNL     1     -11.156   7.588  71.679  1.00  0.00    -0.270 A  
HETATM   33  C   UNL     1     -12.509   7.815  71.327  1.00  0.00    -0.301 A  
HETATM   34  C   UNL     1     -13.069   9.095  71.344  1.00  0.00    -0.363 A  
HETATM   35  C   UNL     1     -12.287  10.184  71.694  1.00  0.00    -0.377 A  
HETATM   36  C   UNL     1     -10.979   9.995  72.142  1.00  0.00     1.888 A  
HETATM   37 CL   UNL     1     -12.933  11.776  71.587  1.00  0.00    -0.521 Cl 
HETATM   38  C   UNL     1     -10.425   8.699  72.196  1.00  0.00    -0.340 A  
BRANCH  38  39
HETATM   39  N   UNL     1      -9.146   8.547  72.807  1.00  0.00    -0.322 NA 
HETATM   40  C   UNL     1      -8.631   9.150  73.940  1.00  0.00     1.897 A  
HETATM   41  C   UNL     1      -7.291   8.830  73.978  1.00  0.00     0.048 A  
HETATM   42  C   UNL     1      -7.109   7.968  72.889  1.00  0.00    -0.095 A  
HETATM   43  N   UNL     1      -8.260   7.673  72.306  1.00  0.00    -0.102 NA 
HETATM   44  C   UNL     1      -5.862   7.396  72.320  1.00  0.00    -0.037 C  
ENDBRANCH  38  39
ENDBRANCH  27  32
ENDBRANCH  26  27
ENDBRANCH  23  26
ENDBRANCH  14  17
ENDBRANCH  10  11
ENDBRANCH   6  10
ENDBRANCH   4   6
ENDBRANCH   3   4
ENDBRANCH   2   3
TORSDOF 10
ENDMDL
MODEL      271
REMARK 921   NORMALIZED FREE ENERGY PREDICTED BY IDOCK:    8.81 KCAL/MOL
REMARK 922        TOTAL FREE ENERGY PREDICTED BY IDOCK:   11.62 KCAL/MOL
REMARK 923 INTER-LIGAND FREE ENERGY PREDICTED BY IDOCK:    9.10 KCAL/MOL
REMARK 924 INTRA-LIGAND FREE ENERGY PREDICTED BY IDOCK:    2.52 KCAL/MOL
REMARK 927      BINDING AFFINITY PREDICTED BY RF-SCORE:    0.00 PKD
ROOT
HETATM    1  C   UNL     1     -10.436  19.243  65.636  1.00  0.00    -0.303 C  
HETATM    2  C   UNL     1      -8.971  18.852  65.704  1.00  0.00     0.694 C  
ENDROOT
BRANCH   2   3
HETATM    3  O   UNL     1      -8.881  17.616  66.422  1.00  0.00    -0.296 OA 
BRANCH   3   4
HETATM    4  C   UNL     1      -9.855  16.706  66.114  1.00  0.00    -0.318 C  
HETATM    5  O   UNL     1     -11.039  16.969  65.950  1.00  0.00     0.056 OA 
BRANCH   4   6
HETATM    6  C   UNL     1      -9.209  15.320  65.978  1.00  0.00    -0.273 C  
HETATM    7  N   UNL     1      -9.306  14.613  67.277  1.00  0.00    -0.201 NA 
HETATM    8  H2  UNL     1     -10.265  14.563  67.622  1.00  0.00     0.000 HD 
HETATM    9  H1  UNL     1      -8.876  13.693  67.186  1.00  0.00     0.000 HD 
BRANCH   6  10
HETATM   10  C   UNL     1      -9.871  14.518  64.837  1.00  0.00     0.069 C  
BRANCH  10  11
HETATM   11  C   UNL     1      -9.956  13.007  65.014  1.00  0.00    -0.158 A  
HETATM   12  C   UNL     1     -11.066  12.355  65.557  1.00  0.00    -0.338 A  
HETATM   13  C   UNL     1     -11.076  10.947  65.720  1.00  0.00     0.052 A  
HETATM   14  C   UNL     1      -9.980  10.133  65.358  1.00  0.00    -0.377 A  
HETATM   15  C   UNL     1      -8.911  10.808  64.741  1.00  0.00    -0.194 A  
HETATM   16  C   UNL     1      -8.895  12.206  64.581  1.00  0.00     1.045 A  
BRANCH  14  17
HETATM   17  C   UNL     1      -9.916   8.670  65.703  1.00  0.00     0.461 A  
HETATM   18  N   UNL     1     -10.242   7.797  64.721  1.00  0.00     4.002 NA 
HETATM   19  C   UNL     1     -10.370   6.503  65.044  1.00  0.00     3.402 A  
HETATM   20  N   UNL     1     -10.274   5.990  66.276  1.00  0.00    -0.054 NA 
HETATM   21  N   UNL     1     -10.715   5.628  64.035  1.00  0.00     2.800 NA 
HETATM   22  H1  UNL     1     -10.812   4.643  64.281  1.00  0.00     0.000 HD 
HETATM   23  C   UNL     1      -9.932   6.863  67.228  1.00  0.00    -0.172 A  
HETATM   24  H2  UNL     1     -10.868   5.953  63.080  1.00  0.00     0.000 HD 
HETATM   25  C   UNL     1      -9.692   8.202  66.988  1.00  0.00    -0.275 A  
BRANCH  23  26
HETATM   26  O   UNL     1      -9.950   6.480  68.558  1.00  0.00    -0.135 OA 
BRANCH  26  27
HETATM   27  C   UNL     1     -10.307   7.483  69.541  1.00  0.00    -0.216 C  
HETATM   28  C   UNL     1     -11.533   7.166  70.434  1.00  0.00    -0.278 C  
HETATM   29  F   UNL     1     -12.254   6.097  70.030  1.00  0.00    -0.260 F  
HETATM   30  F   UNL     1     -12.382   8.236  70.421  1.00  0.00    -0.018 F  
HETATM   31  F   UNL     1     -11.218   6.974  71.738  1.00  0.00    -0.246 F  
BRANCH  27  32
HETATM   32  C   UNL     1      -9.057   7.913  70.370  1.00  0.00    -0.154 A  
HETATM   33  C   UNL     1      -9.269   8.912  71.351  1.00  0.00    -0.328 A  
HETATM   34  C   UNL     1      -8.209   9.489  72.056  1.00  0.00     1.381 A  
HETATM   35  C   UNL     1      -6.907   9.095  71.786  1.00  0.00     0.103 A  
HETATM   36  C   UNL     1      -6.661   8.047  70.899  1.00  0.00    -0.037 A  
HETATM   37 CL   UNL     1      -5.590   9.896  72.552  1.00  0.00     0.163 Cl 
HETATM   38  C   UNL     1      -7.729   7.410  70.234  1.00  0.00    -0.093 A  
BRANCH  38  39
HETATM   39  N   UNL     1      -7.435   6.247  69.464  1.00  0.00    -0.090 NA 
HETATM   40  C   UNL     1      -7.052   4.984  69.881  1.00  0.00    -0.054 A  
HETATM   41  C   UNL     1      -6.685   4.292  68.747  1.00  0.00    -0.046 A  
HETATM   42  C   UNL     1      -6.959   5.178  67.696  1.00  0.00    -0.065 A  
HETATM   43  N   UNL     1      -7.567   6.271  68.129  1.00  0.00    -0.100 NA 
HETATM   44  C   UNL     1      -6.650   5.068  66.248  1.00  0.00    -0.049 C  
ENDBRANCH  38  39
ENDBRANCH  27  32
ENDBRANCH  26  27
ENDBRANCH  23  26
ENDBRANCH  14  17
ENDBRANCH  10  11
ENDBRANCH   6  10
ENDBRANCH   4   6
ENDBRANCH   3   4
ENDBRANCH   2   3
TORSDOF 10
ENDMDL
MODEL      272
REMARK 921   NORMALIZED FREE ENERGY PREDICTED BY IDOCK:    8.81 KCAL/MOL
REMARK 922        TOTAL FREE ENERGY PREDICTED BY IDOCK:   11.62 KCAL/MOL
REMARK 923 INTER-LIGAND FREE ENERGY PREDICTED BY IDOCK:    1.52 KCAL/MOL
REMARK 924 INTRA-LIGAND FREE ENERGY PREDICTED BY IDOCK:   10.10 KCAL/MOL
REMARK 927      BINDING AFFINITY PREDICTED BY RF-SCORE:    0.00 PKD
ROOT
HETATM    1  C   UNL     1     -10.486  15.567  65.340  1.00  0.00    -0.429 C  
HETATM    2  C   UNL     1     -10.147  15.028  66.718  1.00  0.00    -0.254 C  
ENDROOT
BRANCH   2   3
HETATM    3  O   UNL     1      -9.444  13.792  66.542  1.00  0.00    -0.276 OA 
BRANCH   3   4
HETATM    4  C   UNL     1     -10.060  12.899  65.708  1.00  0.00    -0.287 C  
HETATM    5  O   UNL     1     -10.098  12.986  64.488  1.00  0.00    -0.317 OA 
BRANCH   4   6
HETATM    6  C   UNL     1     -10.657  11.766  66.554  1.00  0.00    -0.253 C  
HETATM    7  N   UNL     1     -11.987  12.186  67.052  1.00  0.00    -0.598 NA 
HETATM    8  H2  UNL     1     -12.611  12.479  66.299  1.00  0.00     0.000 HD 
HETATM    9  H1  UNL     1     -12.384  11.433  67.614  1.00  0.00     0.000 HD 
BRANCH   6  10
HETATM   10  C   UNL     1     -10.736  10.458  65.737  1.00  0.00    -0.010 C  
BRANCH  10  11
HETATM   11  C   UNL     1      -9.851   9.305  66.194  1.00  0.00    -0.363 A  
HETATM   12  C   UNL     1     -10.232   8.379  67.170  1.00  0.00    -0.362 A  
HETATM   13  C   UNL     1      -9.354   7.341  67.571  1.00  0.00    -0.144 A  
HETATM   14  C   UNL     1      -8.060   7.187  67.025  1.00  0.00    -0.117 A  
HETATM   15  C   UNL     1      -7.737   8.084  65.991  1.00  0.00    -0.088 A  
HETATM   16  C   UNL     1      -8.603   9.118  65.592  1.00  0.00    -0.178 A  
BRANCH  14  17
HETATM   17  C   UNL     1      -7.063   6.207  67.582  1.00  0.00    -0.074 A  
HETATM   18  N   UNL     1      -6.697   5.185  66.774  1.00  0.00    -0.059 NA 
HETATM   19  C   UNL     1      -5.954   4.201  67.300  1.00  0.00    -0.024 A  
HETATM   20  N   UNL     1      -5.593   4.093  68.584  1.00  0.00    -0.013 NA 
HETATM   21  N   UNL     1      -5.600   3.160  66.467  1.00  0.00    -0.020 NA 
HETATM   22  H1  UNL     1      -5.035   2.411  66.867  1.00  0.00     0.000 HD 
HETATM   23  C   UNL     1      -5.946   5.120  69.361  1.00  0.00    -0.021 A  
HETATM   24  H2  UNL     1      -5.891   3.139  65.489  1.00  0.00     0.000 HD 
HETATM   25  C   UNL     1      -6.637   6.225  68.901  1.00  0.00    -0.048 A  
BRANCH  23  26
HETATM   26  O   UNL     1      -5.760   5.050  70.730  1.00  0.00    -0.014 OA 
BRANCH  26  27
HETATM   27  C   UNL     1      -6.936   4.886  71.561  1.00  0.00    -0.048 C  
HETATM   28  C   UNL     1      -7.198   5.996  72.610  1.00  0.00    -0.086 C  
HETATM   29  F   UNL     1      -6.172   6.861  72.773  1.00  0.00    -0.051 F  
HETATM   30  F   UNL     1      -7.416   5.417  73.827  1.00  0.00    -0.086 F  
HETATM   31  F   UNL     1      -8.310   6.729  72.357  1.00  0.00    -0.108 F  
BRANCH  27  32
HETATM   32  C   UNL     1      -8.192   4.580  70.687  1.00  0.00    -0.076 A  
HETATM   33  C   UNL     1      -8.388   3.226  70.323  1.00  0.00    -0.085 A  
HETATM   34  C   UNL     1      -9.386   2.842  69.424  1.00  0.00    -0.189 A  
HETATM   35  C   UNL     1     -10.203   3.803  68.850  1.00  0.00     0.806 A  
HETATM   36  C   UNL     1     -10.110   5.135  69.253  1.00  0.00    -0.283 A  
HETATM   37 CL   UNL     1     -11.344   3.353  67.642  1.00  0.00     6.938 Cl 
HETATM   38  C   UNL     1      -9.152   5.524  70.213  1.00  0.00    -0.138 A  
BRANCH  38  39
HETATM   39  N   UNL     1      -9.205   6.862  70.703  1.00  0.00    -0.158 NA 
HETATM   40  C   UNL     1      -9.673   7.341  71.913  1.00  0.00    -0.155 A  
HETATM   41  C   UNL     1      -9.700   8.715  71.805  1.00  0.00    -0.361 A  
HETATM   42  C   UNL     1      -9.154   8.974  70.541  1.00  0.00    -0.221 A  
HETATM   43  N   UNL     1      -8.705   7.868  69.970  1.00  0.00    -0.139 NA 
HETATM   44  C   UNL     1      -9.044  10.251  69.791  1.00  0.00    -0.089 C  
ENDBRANCH  38  39
ENDBRANCH  27  32
ENDBRANCH  26  27
ENDBRANCH  23  26
ENDBRANCH  14  17
ENDBRANCH  10  11
ENDBRANCH   6  10
ENDBRANCH   4   6
ENDBRANCH   3   4
ENDBRANCH   2   3
TORSDOF 10
ENDMDL
MODEL      273
REMARK 921   NORMALIZED FREE ENERGY PREDICTED BY IDOCK:    9.74 KCAL/MOL
REMARK 922        TOTAL FREE ENERGY PREDICTED BY IDOCK:   13.09 KCAL/MOL
REMARK 923 INTER-LIGAND FREE ENERGY PREDICTED BY IDOCK:   -3.27 KCAL/MOL
REMARK 924 INTRA-LIGAND FREE ENERGY PREDICTED BY IDOCK:   16.35 KCAL/MOL
REMARK 927      BINDING AFFINITY PREDICTED BY RF-SCORE:    0.00 PKD
ROOT
HETATM    1  C   UNL     1     -13.144  14.774  68.469  1.00  0.00     2.167 C  
HETATM    2  C   UNL     1     -12.737  13.345  68.159  1.00  0.00     1.100 C  
ENDROOT
BRANCH   2   3
HETATM    3  O   UNL     1     -11.632  13.393  67.249  1.00  0.00    -0.321 OA 
BRANCH   3   4
HETATM    4  C   UNL     1     -10.450  13.799  67.808  1.00  0.00    -0.240 C  
HETATM    5  O   UNL     1      -9.339  13.429  67.452  1.00  0.00    -0.205 OA 
BRANCH   4   6
HETATM    6  C   UNL     1     -10.753  14.812  68.919  1.00  0.00    -0.252 C  
HETATM    7  N   UNL     1     -11.451  15.980  68.331  1.00  0.00    -0.362 NA 
HETATM    8  H2  UNL     1     -12.287  15.711  67.811  1.00  0.00     0.000 HD 
HETATM    9  H1  UNL     1     -11.652  16.653  69.070  1.00  0.00     0.000 HD 
BRANCH   6  10
HETATM   10  C   UNL     1     -11.580  14.157  70.047  1.00  0.00    -0.315 C  
BRANCH  10  11
HETATM   11  C   UNL     1     -11.594  12.634  70.096  1.00  0.00    -0.141 A  
HETATM   12  C   UNL     1     -12.251  11.900  71.089  1.00  0.00    -0.170 A  
HETATM   13  C   UNL     1     -12.207  10.484  71.095  1.00  0.00    -0.496 A  
HETATM   14  C   UNL     1     -11.503   9.741  70.123  1.00  0.00    -0.272 A  
HETATM   15  C   UNL     1     -10.920  10.503  69.094  1.00  0.00    -0.286 A  
HETATM   16  C   UNL     1     -10.957  11.909  69.085  1.00  0.00    -0.251 A  
BRANCH  14  17
HETATM   17  C   UNL     1     -11.300   8.254  70.237  1.00  0.00    -0.129 A  
HETATM   18  N   UNL     1     -11.379   7.722  71.480  1.00  0.00    -0.250 NA 
HETATM   19  C   UNL     1     -11.027   6.439  71.639  1.00  0.00    -0.257 A  
HETATM   20  N   UNL     1     -10.530   5.639  70.689  1.00  0.00    -0.253 NA 
HETATM   21  N   UNL     1     -11.100   5.915  72.913  1.00  0.00    -0.290 NA 
HETATM   22  H1  UNL     1     -10.833   4.939  73.035  1.00  0.00     0.000 HD 
HETATM   23  C   UNL     1     -10.478   6.175  69.466  1.00  0.00    -0.254 A  
HETATM   24  H2  UNL     1     -11.411   6.481  73.704  1.00  0.00     0.000 HD 
HETATM   25  C   UNL     1     -10.897   7.459  69.176  1.00  0.00    -0.129 A  
BRANCH  23  26
HETATM   26  O   UNL     1      -9.846   5.498  68.439  1.00  0.00    -0.127 OA 
BRANCH  26  27
HETATM   27  C   UNL     1      -9.968   6.041  67.101  1.00  0.00    -0.156 C  
HETATM   28  C   UNL     1      -9.503   7.506  66.907  1.00  0.00    -0.171 C  
HETATM   29  F   UNL     1      -9.254   8.168  68.059  1.00  0.00    -0.133 F  
HETATM   30  F   UNL     1     -10.484   8.203  66.261  1.00  0.00    -0.312 F  
HETATM   31  F   UNL     1      -8.403   7.626  66.125  1.00  0.00    -0.108 F  
BRANCH  27  32
HETATM   32  C   UNL     1      -9.343   5.070  66.051  1.00  0.00    -0.161 A  
HETATM   33  C   UNL     1     -10.063   4.903  64.844  1.00  0.00     0.245 A  
HETATM   34  C   UNL     1      -9.690   3.954  63.889  1.00  0.00    -0.164 A  
HETATM   35  C   UNL     1      -8.598   3.133  64.124  1.00  0.00    -0.089 A  
HETATM   36  C   UNL     1      -7.803   3.329  65.253  1.00  0.00    -0.082 A  
HETATM   37 CL   UNL     1      -8.215   1.874  63.015  1.00  0.00    -0.064 Cl 
HETATM   38  C   UNL     1      -8.130   4.332  66.190  1.00  0.00    -0.102 A  
BRANCH  38  39
HETATM   39  N   UNL     1      -7.199   4.592  67.238  1.00  0.00    -0.072 NA 
HETATM   40  C   UNL     1      -6.657   3.729  68.173  1.00  0.00    -0.042 A  
HETATM   41  C   UNL     1      -5.987   4.513  69.087  1.00  0.00    -0.022 A  
HETATM   42  C   UNL     1      -6.102   5.814  68.579  1.00  0.00    -0.025 A  
HETATM   43  N   UNL     1      -6.679   5.819  67.387  1.00  0.00    -0.057 NA 
HETATM   44  C   UNL     1      -5.709   7.113  69.179  1.00  0.00    -0.019 C  
ENDBRANCH  38  39
ENDBRANCH  27  32
ENDBRANCH  26  27
ENDBRANCH  23  26
ENDBRANCH  14  17
ENDBRANCH  10  11
ENDBRANCH   6  10
ENDBRANCH   4   6
ENDBRANCH   3   4
ENDBRANCH   2   3
TORSDOF 10
ENDMDL
MODEL      274
REMARK 921   NORMALIZED FREE ENERGY PREDICTED BY IDOCK:   13.56 KCAL/MOL
REMARK 922        TOTAL FREE ENERGY PREDICTED BY IDOCK:   19.15 KCAL/MOL
REMARK 923 INTER-LIGAND FREE ENERGY PREDICTED BY IDOCK:   17.53 KCAL/MOL
REMARK 924 INTRA-LIGAND FREE ENERGY PREDICTED BY IDOCK:    1.62 KCAL/MOL
REMARK 927      BINDING AFFINITY PREDICTED BY RF-SCORE:    0.00 PKD
ROOT
HETATM    1  C   UNL     1     -12.133  19.784  71.724  1.00  0.00    14.864 C  
HETATM    2  C   UNL     1     -11.483  18.542  72.307  1.00  0.00     4.569 C  
ENDROOT
BRANCH   2   3
HETATM    3  O   UNL     1     -10.311  18.259  71.534  1.00  0.00     2.701 OA 
BRANCH   3   4
HETATM    4  C   UNL     1     -10.554  17.669  70.324  1.00  0.00     1.159 C  
HETATM    5  O   UNL     1     -10.513  18.238  69.241  1.00  0.00    -0.101 OA 
BRANCH   4   6
HETATM    6  C   UNL     1     -10.848  16.180  70.552  1.00  0.00    -0.185 C  
HETATM    7  N   UNL     1     -11.448  16.008  71.897  1.00  0.00    -0.380 NA 
HETATM    8  H2  UNL     1     -12.273  16.593  72.032  1.00  0.00     0.000 HD 
HETATM    9  H1  UNL     1     -11.643  15.019  72.048  1.00  0.00     0.000 HD 
BRANCH   6  10
HETATM   10  C   UNL     1     -11.765  15.627  69.439  1.00  0.00    -0.395 C  
BRANCH  10  11
HETATM   11  C   UNL     1     -11.158  14.597  68.494  1.00  0.00    -0.273 A  
HETATM   12  C   UNL     1     -11.053  14.785  67.113  1.00  0.00    -0.333 A  
HETATM   13  C   UNL     1     -10.501  13.779  66.282  1.00  0.00    -0.291 A  
HETATM   14  C   UNL     1     -10.038  12.545  66.788  1.00  0.00    -0.233 A  
HETATM   15  C   UNL     1     -10.082  12.418  68.188  1.00  0.00    -0.224 A  
HETATM   16  C   UNL     1     -10.634  13.412  69.017  1.00  0.00    -0.106 A  
BRANCH  14  17
HETATM   17  C   UNL     1      -9.629  11.409  65.889  1.00  0.00    -0.227 A  
HETATM   18  N   UNL     1      -9.855  11.569  64.564  1.00  0.00    -0.245 NA 
HETATM   19  C   UNL     1      -9.669  10.512  63.761  1.00  0.00    -0.326 A  
HETATM   20  N   UNL     1      -9.346   9.275  64.156  1.00  0.00     0.113 NA 
HETATM   21  N   UNL     1      -9.916  10.687  62.415  1.00  0.00    -0.738 NA 
HETATM   22  H1  UNL     1      -9.775   9.883  61.804  1.00  0.00     0.000 HD 
HETATM   23  C   UNL     1      -9.108   9.142  65.464  1.00  0.00    -0.219 A  
HETATM   24  H2  UNL     1     -10.227  11.586  62.044  1.00  0.00     0.000 HD 
HETATM   25  C   UNL     1      -9.185  10.186  66.365  1.00  0.00    -0.190 A  
BRANCH  23  26
HETATM   26  O   UNL     1      -8.914   7.885  66.009  1.00  0.00    -0.169 OA 
BRANCH  26  27
HETATM   27  C   UNL     1      -8.551   6.810  65.107  1.00  0.00     0.049 C  
HETATM   28  C   UNL     1      -7.389   7.100  64.124  1.00  0.00    -0.083 C  
HETATM   29  F   UNL     1      -7.012   8.396  64.075  1.00  0.00    -0.072 F  
HETATM   30  F   UNL     1      -7.780   6.760  62.860  1.00  0.00    -0.076 F  
HETATM   31  F   UNL     1      -6.278   6.362  64.366  1.00  0.00    -0.028 F  
BRANCH  27  32
HETATM   32  C   UNL     1      -8.354   5.475  65.890  1.00  0.00    -0.125 A  
HETATM   33  C   UNL     1      -8.893   4.311  65.290  1.00  0.00    -0.131 A  
HETATM   34  C   UNL     1      -8.915   3.082  65.955  1.00  0.00    -0.147 A  
HETATM   35  C   UNL     1      -8.416   2.988  67.245  1.00  0.00    -0.094 A  
HETATM   36  C   UNL     1      -7.788   4.085  67.836  1.00  0.00    -0.078 A  
HETATM   37 CL   UNL     1      -8.562   1.512  68.118  1.00  0.00    -0.083 Cl 
HETATM   38  C   UNL     1      -7.698   5.312  67.147  1.00  0.00    -0.096 A  
BRANCH  38  39
HETATM   39  N   UNL     1      -6.911   6.348  67.730  1.00  0.00    -0.073 NA 
HETATM   40  C   UNL     1      -6.673   6.632  69.063  1.00  0.00    -0.052 A  
HETATM   41  C   UNL     1      -6.031   7.850  69.095  1.00  0.00    -0.034 A  
HETATM   42  C   UNL     1      -5.847   8.181  67.746  1.00  0.00    -0.042 A  
HETATM   43  N   UNL     1      -6.223   7.193  66.949  1.00  0.00    -0.044 NA 
HETATM   44  C   UNL     1      -5.341   9.432  67.128  1.00  0.00    -0.036 C  
ENDBRANCH  38  39
ENDBRANCH  27  32
ENDBRANCH  26  27
ENDBRANCH  23  26
ENDBRANCH  14  17
ENDBRANCH  10  11
ENDBRANCH   6  10
ENDBRANCH   4   6
ENDBRANCH   3   4
ENDBRANCH   2   3
TORSDOF 10
ENDMDL
MODEL      275
REMARK 921   NORMALIZED FREE ENERGY PREDICTED BY IDOCK:   13.60 KCAL/MOL
REMARK 922        TOTAL FREE ENERGY PREDICTED BY IDOCK:   19.20 KCAL/MOL
REMARK 923 INTER-LIGAND FREE ENERGY PREDICTED BY IDOCK:   21.69 KCAL/MOL
REMARK 924 INTRA-LIGAND FREE ENERGY PREDICTED BY IDOCK:   -2.49 KCAL/MOL
REMARK 927      BINDING AFFINITY PREDICTED BY RF-SCORE:    0.00 PKD
ROOT
HETATM    1  C   UNL     1      -7.052  18.804  69.771  1.00  0.00     0.194 C  
HETATM    2  C   UNL     1      -7.575  19.918  70.660  1.00  0.00     1.112 C  
ENDROOT
BRANCH   2   3
HETATM    3  O   UNL     1      -8.987  20.021  70.445  1.00  0.00     0.884 OA 
BRANCH   3   4
HETATM    4  C   UNL     1      -9.748  19.226  71.257  1.00  0.00     3.137 C  
HETATM    5  O   UNL     1      -9.482  18.945  72.418  1.00  0.00     5.670 OA 
BRANCH   4   6
HETATM    6  C   UNL     1     -10.996  18.781  70.482  1.00  0.00     3.230 C  
HETATM    7  N   UNL     1     -12.049  19.812  70.631  1.00  0.00     9.138 NA 
HETATM    8  H2  UNL     1     -11.728  20.739  70.351  1.00  0.00     0.000 HD 
HETATM    9  H1  UNL     1     -12.878  19.516  70.116  1.00  0.00     0.000 HD 
BRANCH   6  10
HETATM   10  C   UNL     1     -10.654  18.518  68.999  1.00  0.00     0.318 C  
BRANCH  10  11
HETATM   11  C   UNL     1     -10.174  17.118  68.639  1.00  0.00    -0.336 A  
HETATM   12  C   UNL     1     -10.351  16.005  69.467  1.00  0.00    -0.278 A  
HETATM   13  C   UNL     1      -9.860  14.731  69.087  1.00  0.00    -0.167 A  
HETATM   14  C   UNL     1      -9.168  14.513  67.876  1.00  0.00    -0.196 A  
HETATM   15  C   UNL     1      -9.077  15.633  67.029  1.00  0.00    -0.239 A  
HETATM   16  C   UNL     1      -9.558  16.901  67.403  1.00  0.00    -0.241 A  
BRANCH  14  17
HETATM   17  C   UNL     1      -8.486  13.209  67.562  1.00  0.00    -0.198 A  
HETATM   18  N   UNL     1      -7.161  13.264  67.293  1.00  0.00    -0.088 NA 
HETATM   19  C   UNL     1      -6.564  12.154  66.836  1.00  0.00    -0.001 A  
HETATM   20  N   UNL     1      -7.174  10.999  66.547  1.00  0.00    -0.144 NA 
HETATM   21  N   UNL     1      -5.215  12.229  66.554  1.00  0.00    -0.400 NA 
HETATM   22  H1  UNL     1      -4.761  11.385  66.206  1.00  0.00     0.000 HD 
HETATM   23  C   UNL     1      -8.477  10.958  66.837  1.00  0.00    -0.135 A  
HETATM   24  H2  UNL     1      -4.692  13.095  66.689  1.00  0.00     0.000 HD 
HETATM   25  C   UNL     1      -9.171  12.016  67.392  1.00  0.00    -0.180 A  
BRANCH  23  26
HETATM   26  O   UNL     1      -9.241   9.873  66.445  1.00  0.00    -0.149 OA 
BRANCH  26  27
HETATM   27  C   UNL     1      -9.634   8.922  67.465  1.00  0.00    -0.145 C  
HETATM   28  C   UNL     1     -11.131   8.526  67.496  1.00  0.00     0.415 C  
HETATM   29  F   UNL     1     -11.926   9.289  66.713  1.00  0.00     2.016 F  
HETATM   30  F   UNL     1     -11.601   8.656  68.772  1.00  0.00     0.362 F  
HETATM   31  F   UNL     1     -11.356   7.231  67.162  1.00  0.00    -0.352 F  
BRANCH  27  32
HETATM   32  C   UNL     1      -8.686   7.683  67.461  1.00  0.00    -0.125 A  
HETATM   33  C   UNL     1      -8.302   7.192  66.189  1.00  0.00    -0.133 A  
HETATM   34  C   UNL     1      -7.580   6.004  66.046  1.00  0.00    -0.087 A  
HETATM   35  C   UNL     1      -7.239   5.266  67.168  1.00  0.00    -0.078 A  
HETATM   36  C   UNL     1      -7.511   5.761  68.443  1.00  0.00    -0.081 A  
HETATM   37 CL   UNL     1      -6.469   3.737  66.990  1.00  0.00    -0.040 Cl 
HETATM   38  C   UNL     1      -8.177   6.994  68.602  1.00  0.00    -0.122 A  
BRANCH  38  39
HETATM   39  N   UNL     1      -8.288   7.526  69.920  1.00  0.00    -0.131 NA 
HETATM   40  C   UNL     1      -7.463   8.414  70.587  1.00  0.00    -0.065 A  
HETATM   41  C   UNL     1      -7.891   8.437  71.896  1.00  0.00    -0.165 A  
HETATM   42  C   UNL     1      -9.021   7.609  71.907  1.00  0.00    -0.120 A  
HETATM   43  N   UNL     1      -9.344   7.213  70.686  1.00  0.00    -0.158 NA 
HETATM   44  C   UNL     1      -9.839   7.123  73.047  1.00  0.00    -0.233 C  
ENDBRANCH  38  39
ENDBRANCH  27  32
ENDBRANCH  26  27
ENDBRANCH  23  26
ENDBRANCH  14  17
ENDBRANCH  10  11
ENDBRANCH   6  10
ENDBRANCH   4   6
ENDBRANCH   3   4
ENDBRANCH   2   3
TORSDOF 10
ENDMDL
MODEL      276
REMARK 921   NORMALIZED FREE ENERGY PREDICTED BY IDOCK:   15.34 KCAL/MOL
REMARK 922        TOTAL FREE ENERGY PREDICTED BY IDOCK:   21.97 KCAL/MOL
REMARK 923 INTER-LIGAND FREE ENERGY PREDICTED BY IDOCK:    0.80 KCAL/MOL
REMARK 924 INTRA-LIGAND FREE ENERGY PREDICTED BY IDOCK:   21.17 KCAL/MOL
REMARK 927      BINDING AFFINITY PREDICTED BY RF-SCORE:    0.00 PKD
ROOT
HETATM    1  C   UNL     1      -9.400  14.486  70.609  1.00  0.00     2.265 C  
HETATM    2  C   UNL     1      -8.629  15.458  69.734  1.00  0.00    -0.006 C  
ENDROOT
BRANCH   2   3
HETATM    3  O   UNL     1      -9.373  15.640  68.523  1.00  0.00    -0.187 OA 
BRANCH   3   4
HETATM    4  C   UNL     1     -10.210  16.723  68.524  1.00  0.00    -0.298 C  
HETATM    5  O   UNL     1     -10.796  17.159  69.506  1.00  0.00    -0.202 OA 
BRANCH   4   6
HETATM    6  C   UNL     1     -10.258  17.310  67.108  1.00  0.00    -0.319 C  
HETATM    7  N   UNL     1      -8.949  17.933  66.799  1.00  0.00    -0.254 NA 
HETATM    8  H2  UNL     1      -8.171  17.286  66.925  1.00  0.00     0.000 HD 
HETATM    9  H1  UNL     1      -8.982  18.323  65.857  1.00  0.00     0.000 HD 
BRANCH   6  10
HETATM   10  C   UNL     1     -10.633  16.222  66.077  1.00  0.00    -0.288 C  
BRANCH  10  11
HETATM   11  C   UNL     1     -10.250  14.788  66.418  1.00  0.00    -0.299 A  
HETATM   12  C   UNL     1      -9.833  13.853  65.465  1.00  0.00    -0.213 A  
HETATM   13  C   UNL     1      -9.513  12.525  65.840  1.00  0.00    -0.111 A  
HETATM   14  C   UNL     1      -9.602  12.069  67.174  1.00  0.00    -0.195 A  
HETATM   15  C   UNL     1      -9.947  13.052  68.120  1.00  0.00    -0.231 A  
HETATM   16  C   UNL     1     -10.270  14.371  67.752  1.00  0.00    -0.230 A  
BRANCH  14  17
HETATM   17  C   UNL     1      -9.446  10.618  67.541  1.00  0.00    -0.153 A  
HETATM   18  N   UNL     1      -8.226  10.229  67.980  1.00  0.00    -0.112 NA 
HETATM   19  C   UNL     1      -8.004   8.918  68.143  1.00  0.00    -0.102 A  
HETATM   20  N   UNL     1      -8.860   7.935  67.841  1.00  0.00    -0.124 NA 
HETATM   21  N   UNL     1      -6.752   8.536  68.579  1.00  0.00    -0.059 NA 
HETATM   22  H1  UNL     1      -6.582   7.538  68.703  1.00  0.00     0.000 HD 
HETATM   23  C   UNL     1     -10.064   8.338  67.428  1.00  0.00    -0.233 A  
HETATM   24  H2  UNL     1      -6.023   9.224  68.771  1.00  0.00     0.000 HD 
HETATM   25  C   UNL     1     -10.426   9.666  67.309  1.00  0.00    -0.323 A  
BRANCH  23  26
HETATM   26  O   UNL     1     -10.977   7.417  66.946  1.00  0.00    -0.324 OA 
BRANCH  26  27
HETATM   27  C   UNL     1     -11.286   6.276  67.783  1.00  0.00     0.120 C  
HETATM   28  C   UNL     1     -10.351   5.048  67.647  1.00  0.00    -0.068 C  
HETATM   29  F   UNL     1      -9.500   5.111  66.599  1.00  0.00    -0.125 F  
HETATM   30  F   UNL     1     -11.110   3.927  67.466  1.00  0.00     1.555 F  
HETATM   31  F   UNL     1      -9.611   4.805  68.756  1.00  0.00    -0.163 F  
BRANCH  27  32
HETATM   32  C   UNL     1     -11.484   6.717  69.267  1.00  0.00    -0.253 A  
HETATM   33  C   UNL     1     -12.529   7.639  69.513  1.00  0.00     2.069 A  
HETATM   34  C   UNL     1     -12.715   8.224  70.769  1.00  0.00     0.243 A  
HETATM   35  C   UNL     1     -11.849   7.916  71.807  1.00  0.00    -0.293 A  
HETATM   36  C   UNL     1     -10.868   6.940  71.636  1.00  0.00    -0.252 A  
HETATM   37 CL   UNL     1     -11.991   8.734  73.315  1.00  0.00     1.047 Cl 
HETATM   38  C   UNL     1     -10.716   6.292  70.392  1.00  0.00    -0.271 A  
BRANCH  38  39
HETATM   39  N   UNL     1      -9.806   5.196  70.319  1.00  0.00    -0.205 NA 
HETATM   40  C   UNL     1      -8.863   4.894  69.353  1.00  0.00    -0.091 A  
HETATM   41  C   UNL     1      -8.402   3.628  69.640  1.00  0.00    -0.078 A  
HETATM   42  C   UNL     1      -9.051   3.284  70.833  1.00  0.00    -0.112 A  
HETATM   43  N   UNL     1      -9.751   4.299  71.314  1.00  0.00    -0.175 NA 
HETATM   44  C   UNL     1      -9.077   1.996  71.571  1.00  0.00    -0.152 C  
ENDBRANCH  38  39
ENDBRANCH  27  32
ENDBRANCH  26  27
ENDBRANCH  23  26
ENDBRANCH  14  17
ENDBRANCH  10  11
ENDBRANCH   6  10
ENDBRANCH   4   6
ENDBRANCH   3   4
ENDBRANCH   2   3
TORSDOF 10
ENDMDL
MODEL      277
REMARK 921   NORMALIZED FREE ENERGY PREDICTED BY IDOCK:   18.17 KCAL/MOL
REMARK 922        TOTAL FREE ENERGY PREDICTED BY IDOCK:   26.46 KCAL/MOL
REMARK 923 INTER-LIGAND FREE ENERGY PREDICTED BY IDOCK:   15.70 KCAL/MOL
REMARK 924 INTRA-LIGAND FREE ENERGY PREDICTED BY IDOCK:   10.75 KCAL/MOL
REMARK 927      BINDING AFFINITY PREDICTED BY RF-SCORE:    0.00 PKD
ROOT
HETATM    1  C   UNL     1      -7.502  13.262  72.109  1.00  0.00     8.507 C  
HETATM    2  C   UNL     1      -8.367  14.237  71.329  1.00  0.00     4.994 C  
ENDROOT
BRANCH   2   3
HETATM    3  O   UNL     1      -9.582  13.561  70.982  1.00  0.00     5.644 OA 
BRANCH   3   4
HETATM    4  C   UNL     1     -10.610  14.388  70.618  1.00  0.00     0.857 C  
HETATM    5  O   UNL     1     -10.728  15.557  70.959  1.00  0.00    -0.267 OA 
BRANCH   4   6
HETATM    6  C   UNL     1     -11.559  13.615  69.693  1.00  0.00    -0.278 C  
HETATM    7  N   UNL     1     -12.799  14.404  69.505  1.00  0.00    -0.412 NA 
HETATM    8  H2  UNL     1     -12.611  15.349  69.168  1.00  0.00     0.000 HD 
HETATM    9  H1  UNL     1     -13.429  13.890  68.890  1.00  0.00     0.000 HD 
BRANCH   6  10
HETATM   10  C   UNL     1     -10.871  13.296  68.347  1.00  0.00    -0.279 C  
BRANCH  10  11
HETATM   11  C   UNL     1     -10.079  11.997  68.268  1.00  0.00    -0.201 A  
HETATM   12  C   UNL     1      -8.712  11.909  68.549  1.00  0.00    -0.108 A  
HETATM   13  C   UNL     1      -8.024  10.676  68.433  1.00  0.00    -0.120 A  
HETATM   14  C   UNL     1      -8.663   9.484  68.027  1.00  0.00    -0.120 A  
HETATM   15  C   UNL     1     -10.052   9.587  67.830  1.00  0.00    -0.234 A  
HETATM   16  C   UNL     1     -10.739  10.810  67.939  1.00  0.00    -0.282 A  
BRANCH  14  17
HETATM   17  C   UNL     1      -7.898   8.224  67.724  1.00  0.00    -0.114 A  
HETATM   18  N   UNL     1      -7.898   7.806  66.437  1.00  0.00    -0.092 NA 
HETATM   19  C   UNL     1      -7.382   6.599  66.166  1.00  0.00    -0.076 A  
HETATM   20  N   UNL     1      -6.924   5.723  67.067  1.00  0.00    -0.064 NA 
HETATM   21  N   UNL     1      -7.401   6.181  64.851  1.00  0.00    -0.070 NA 
HETATM   22  H1  UNL     1      -7.008   5.263  64.645  1.00  0.00     0.000 HD 
HETATM   23  C   UNL     1      -6.913   6.160  68.329  1.00  0.00    -0.080 A  
HETATM   24  H2  UNL     1      -7.792   6.768  64.113  1.00  0.00     0.000 HD 
HETATM   25  C   UNL     1      -7.341   7.419  68.706  1.00  0.00    -0.095 A  
BRANCH  23  26
HETATM   26  O   UNL     1      -6.605   5.292  69.361  1.00  0.00    -0.043 OA 
BRANCH  26  27
HETATM   27  C   UNL     1      -7.580   4.275  69.699  1.00  0.00    -0.054 C  
HETATM   28  C   UNL     1      -8.306   4.443  71.058  1.00  0.00    -0.088 C  
HETATM   29  F   UNL     1      -7.775   5.392  71.860  1.00  0.00    -0.093 F  
HETATM   30  F   UNL     1      -8.238   3.267  71.748  1.00  0.00    -0.056 F  
HETATM   31  F   UNL     1      -9.629   4.710  70.935  1.00  0.00    -0.186 F  
BRANCH  27  32
HETATM   32  C   UNL     1      -8.570   4.043  68.515  1.00  0.00    -0.115 A  
HETATM   33  C   UNL     1      -8.111   3.206  67.470  1.00  0.00    -0.080 A  
HETATM   34  C   UNL     1      -8.838   3.038  66.288  1.00  0.00    -0.144 A  
HETATM   35  C   UNL     1     -10.034   3.717  66.113  1.00  0.00     0.025 A  
HETATM   36  C   UNL     1     -10.570   4.474  67.155  1.00  0.00     0.358 A  
HETATM   37 CL   UNL     1     -10.865   3.620  64.609  1.00  0.00    -0.024 Cl 
HETATM   38  C   UNL     1      -9.879   4.594  68.378  1.00  0.00    -0.102 A  
BRANCH  38  39
HETATM   39  N   UNL     1     -10.544   5.246  69.458  1.00  0.00    -0.247 NA 
HETATM   40  C   UNL     1     -11.048   6.532  69.538  1.00  0.00    -0.365 A  
HETATM   41  C   UNL     1     -11.395   6.735  70.855  1.00  0.00    -0.363 A  
HETATM   42  C   UNL     1     -11.150   5.501  71.473  1.00  0.00    -0.094 A  
HETATM   43  N   UNL     1     -10.807   4.577  70.590  1.00  0.00     0.628 NA 
HETATM   44  C   UNL     1     -11.195   5.124  72.908  1.00  0.00    -0.362 C  
ENDBRANCH  38  39
ENDBRANCH  27  32
ENDBRANCH  26  27
ENDBRANCH  23  26
ENDBRANCH  14  17
ENDBRANCH  10  11
ENDBRANCH   6  10
ENDBRANCH   4   6
ENDBRANCH   3   4
ENDBRANCH   2   3
TORSDOF 10
ENDMDL
MODEL      278
REMARK 921   NORMALIZED FREE ENERGY PREDICTED BY IDOCK:   18.30 KCAL/MOL
REMARK 922        TOTAL FREE ENERGY PREDICTED BY IDOCK:   26.66 KCAL/MOL
REMARK 923 INTER-LIGAND FREE ENERGY PREDICTED BY IDOCK:   13.26 KCAL/MOL
REMARK 924 INTRA-LIGAND FREE ENERGY PREDICTED BY IDOCK:   13.40 KCAL/MOL
REMARK 927      BINDING AFFINITY PREDICTED BY RF-SCORE:    0.00 PKD
ROOT
HETATM    1  C   UNL     1      -9.622  16.007  71.795  1.00  0.00     4.984 C  
HETATM    2  C   UNL     1      -8.258  16.410  71.263  1.00  0.00     6.351 C  
ENDROOT
BRANCH   2   3
HETATM    3  O   UNL     1      -8.346  17.769  70.821  1.00  0.00     4.484 OA 
BRANCH   3   4
HETATM    4  C   UNL     1      -7.403  18.132  69.898  1.00  0.00     0.854 C  
HETATM    5  O   UNL     1      -6.400  18.790  70.138  1.00  0.00    -0.135 OA 
BRANCH   4   6
HETATM    6  C   UNL     1      -7.797  17.548  68.535  1.00  0.00    -0.274 C  
HETATM    7  N   UNL     1      -6.639  16.816  67.971  1.00  0.00    -0.136 NA 
HETATM    8  H2  UNL     1      -6.279  16.106  68.608  1.00  0.00     0.000 HD 
HETATM    9  H1  UNL     1      -6.901  16.428  67.065  1.00  0.00     0.000 HD 
BRANCH   6  10
HETATM   10  C   UNL     1      -9.040  16.641  68.667  1.00  0.00    -0.245 C  
BRANCH  10  11
HETATM   11  C   UNL     1      -8.956  15.258  68.032  1.00  0.00    -0.171 A  
HETATM   12  C   UNL     1      -9.315  14.995  66.707  1.00  0.00    -0.271 A  
HETATM   13  C   UNL     1      -9.238  13.682  66.180  1.00  0.00    -0.009 A  
HETATM   14  C   UNL     1      -8.811  12.578  66.949  1.00  0.00    -0.203 A  
HETATM   15  C   UNL     1      -8.381  12.888  68.252  1.00  0.00    -0.157 A  
HETATM   16  C   UNL     1      -8.460  14.188  68.782  1.00  0.00    -0.069 A  
BRANCH  14  17
HETATM   17  C   UNL     1      -8.909  11.162  66.449  1.00  0.00    -0.178 A  
HETATM   18  N   UNL     1      -8.484  10.932  65.184  1.00  0.00    -0.099 NA 
HETATM   19  C   UNL     1      -8.723   9.727  64.649  1.00  0.00    -0.194 A  
HETATM   20  N   UNL     1      -9.415   8.737  65.225  1.00  0.00     0.034 NA 
HETATM   21  N   UNL     1      -8.296   9.511  63.355  1.00  0.00    -0.165 NA 
HETATM   22  H1  UNL     1      -8.478   8.595  62.947  1.00  0.00     0.000 HD 
HETATM   23  C   UNL     1      -9.808   8.975  66.479  1.00  0.00    -0.268 A  
HETATM   24  H2  UNL     1      -7.816  10.241  62.826  1.00  0.00     0.000 HD 
HETATM   25  C   UNL     1      -9.539  10.149  67.155  1.00  0.00    -0.202 A  
BRANCH  23  26
HETATM   26  O   UNL     1     -10.656   8.089  67.120  1.00  0.00    -0.320 OA 
BRANCH  26  27
HETATM   27  C   UNL     1     -10.109   6.811  67.528  1.00  0.00    -0.170 C  
HETATM   28  C   UNL     1     -10.002   5.725  66.427  1.00  0.00    -0.131 C  
HETATM   29  F   UNL     1     -10.643   6.033  65.278  1.00  0.00     0.785 F  
HETATM   30  F   UNL     1     -10.561   4.567  66.887  1.00  0.00    -0.209 F  
HETATM   31  F   UNL     1      -8.725   5.405  66.105  1.00  0.00    -0.117 F  
BRANCH  27  32
HETATM   32  C   UNL     1      -8.773   7.005  68.310  1.00  0.00    -0.127 A  
HETATM   33  C   UNL     1      -8.875   7.064  69.720  1.00  0.00    -0.142 A  
HETATM   34  C   UNL     1      -7.778   7.382  70.526  1.00  0.00    -0.096 A  
HETATM   35  C   UNL     1      -6.555   7.668  69.940  1.00  0.00    -0.041 A  
HETATM   36  C   UNL     1      -6.385   7.527  68.563  1.00  0.00    -0.044 A  
HETATM   37 CL   UNL     1      -5.237   8.191  70.916  1.00  0.00    -0.026 Cl 
HETATM   38  C   UNL     1      -7.468   7.138  67.748  1.00  0.00    -0.098 A  
BRANCH  38  39
HETATM   39  N   UNL     1      -7.201   6.856  66.376  1.00  0.00    -0.074 NA 
HETATM   40  C   UNL     1      -5.993   6.648  65.735  1.00  0.00    -0.030 A  
HETATM   41  C   UNL     1      -6.264   6.630  64.385  1.00  0.00    -0.035 A  
HETATM   42  C   UNL     1      -7.659   6.746  64.309  1.00  0.00    -0.105 A  
HETATM   43  N   UNL     1      -8.214   6.705  65.510  1.00  0.00    -0.134 NA 
HETATM   44  C   UNL     1      -8.541   6.926  63.128  1.00  0.00     0.446 C  
ENDBRANCH  38  39
ENDBRANCH  27  32
ENDBRANCH  26  27
ENDBRANCH  23  26
ENDBRANCH  14  17
ENDBRANCH  10  11
ENDBRANCH   6  10
ENDBRANCH   4   6
ENDBRANCH   3   4
ENDBRANCH   2   3
TORSDOF 10
ENDMDL
MODEL      279
REMARK 921   NORMALIZED FREE ENERGY PREDICTED BY IDOCK:   18.73 KCAL/MOL
REMARK 922        TOTAL FREE ENERGY PREDICTED BY IDOCK:   27.34 KCAL/MOL
REMARK 923 INTER-LIGAND FREE ENERGY PREDICTED BY IDOCK:   26.92 KCAL/MOL
REMARK 924 INTRA-LIGAND FREE ENERGY PREDICTED BY IDOCK:    0.42 KCAL/MOL
REMARK 927      BINDING AFFINITY PREDICTED BY RF-SCORE:    0.00 PKD
ROOT
HETATM    1  C   UNL     1      -9.992  17.800  69.267  1.00  0.00    -0.097 C  
HETATM    2  C   UNL     1      -8.655  18.367  69.706  1.00  0.00     1.181 C  
ENDROOT
BRANCH   2   3
HETATM    3  O   UNL     1      -7.691  18.046  68.696  1.00  0.00    -0.292 OA 
BRANCH   3   4
HETATM    4  C   UNL     1      -6.442  17.751  69.172  1.00  0.00    -0.240 C  
HETATM    5  O   UNL     1      -5.696  16.897  68.711  1.00  0.00    -0.136 OA 
BRANCH   4   6
HETATM    6  C   UNL     1      -6.129  18.687  70.347  1.00  0.00     0.032 C  
HETATM    7  N   UNL     1      -7.141  19.769  70.385  1.00  0.00     0.185 NA 
HETATM    8  H2  UNL     1      -8.095  19.408  70.419  1.00  0.00     0.000 HD 
HETATM    9  H1  UNL     1      -6.933  20.391  71.165  1.00  0.00     0.000 HD 
BRANCH   6  10
HETATM   10  C   UNL     1      -6.078  17.901  71.675  1.00  0.00     1.836 C  
BRANCH  10  11
HETATM   11  C   UNL     1      -6.287  16.394  71.593  1.00  0.00     2.624 A  
HETATM   12  C   UNL     1      -5.242  15.477  71.442  1.00  0.00    -0.057 A  
HETATM   13  C   UNL     1      -5.502  14.087  71.347  1.00  0.00    -0.218 A  
HETATM   14  C   UNL     1      -6.809  13.554  71.390  1.00  0.00     2.590 A  
HETATM   15  C   UNL     1      -7.831  14.492  71.623  1.00  0.00     4.240 A  
HETATM   16  C   UNL     1      -7.579  15.873  71.713  1.00  0.00     6.079 A  
BRANCH  14  17
HETATM   17  C   UNL     1      -7.097  12.105  71.101  1.00  0.00     4.580 A  
HETATM   18  N   UNL     1      -6.029  11.308  70.861  1.00  0.00    -0.363 NA 
HETATM   19  C   UNL     1      -6.259  10.061  70.426  1.00  0.00    -0.103 A  
HETATM   20  N   UNL     1      -7.457   9.542  70.134  1.00  0.00    -0.116 NA 
HETATM   21  N   UNL     1      -5.161   9.265  70.172  1.00  0.00    -0.028 NA 
HETATM   22  H1  UNL     1      -5.336   8.317  69.841  1.00  0.00     0.000 HD 
HETATM   23  C   UNL     1      -8.499  10.336  70.396  1.00  0.00     0.679 A  
HETATM   24  H2  UNL     1      -4.211   9.612  70.311  1.00  0.00     0.000 HD 
HETATM   25  C   UNL     1      -8.378  11.606  70.927  1.00  0.00     6.994 A  
BRANCH  23  26
HETATM   26  O   UNL     1      -9.771   9.966  69.996  1.00  0.00    -0.236 OA 
BRANCH  26  27
HETATM   27  C   UNL     1     -10.430  10.791  69.004  1.00  0.00    -0.215 C  
HETATM   28  C   UNL     1     -11.307  10.049  67.965  1.00  0.00     0.004 C  
HETATM   29  F   UNL     1     -11.164   8.705  67.974  1.00  0.00    -0.048 F  
HETATM   30  F   UNL     1     -10.963  10.468  66.711  1.00  0.00    -0.301 F  
HETATM   31  F   UNL     1     -12.630  10.318  68.082  1.00  0.00     1.013 F  
BRANCH  27  32
HETATM   32  C   UNL     1     -11.181  11.978  69.684  1.00  0.00    -0.168 A  
HETATM   33  C   UNL     1     -12.013  11.648  70.780  1.00  0.00    -0.274 A  
HETATM   34  C   UNL     1     -12.852  12.592  71.379  1.00  0.00    -0.359 A  
HETATM   35  C   UNL     1     -12.895  13.887  70.885  1.00  0.00    -0.300 A  
HETATM   36  C   UNL     1     -12.022  14.280  69.872  1.00  0.00    -0.397 A  
HETATM   37 CL   UNL     1     -14.022  15.016  71.531  1.00  0.00    -0.535 Cl 
HETATM   38  C   UNL     1     -11.121  13.353  69.307  1.00  0.00    -0.164 A  
BRANCH  38  39
HETATM   39  N   UNL     1     -10.147  13.845  68.389  1.00  0.00    -0.234 NA 
HETATM   40  C   UNL     1      -9.034  14.633  68.620  1.00  0.00    -0.184 A  
HETATM   41  C   UNL     1      -8.553  15.003  67.383  1.00  0.00    -0.208 A  
HETATM   42  C   UNL     1      -9.377  14.327  66.474  1.00  0.00    -0.271 A  
HETATM   43  N   UNL     1     -10.211  13.506  67.093  1.00  0.00    -0.245 NA 
HETATM   44  C   UNL     1      -9.452  14.426  64.994  1.00  0.00     0.671 C  
ENDBRANCH  38  39
ENDBRANCH  27  32
ENDBRANCH  26  27
ENDBRANCH  23  26
ENDBRANCH  14  17
ENDBRANCH  10  11
ENDBRANCH   6  10
ENDBRANCH   4   6
ENDBRANCH   3   4
ENDBRANCH   2   3
TORSDOF 10
ENDMDL
MODEL      280
REMARK 921   NORMALIZED FREE ENERGY PREDICTED BY IDOCK:   19.39 KCAL/MOL
REMARK 922        TOTAL FREE ENERGY PREDICTED BY IDOCK:   28.39 KCAL/MOL
REMARK 923 INTER-LIGAND FREE ENERGY PREDICTED BY IDOCK:   27.26 KCAL/MOL
REMARK 924 INTRA-LIGAND FREE ENERGY PREDICTED BY IDOCK:    1.13 KCAL/MOL
REMARK 927      BINDING AFFINITY PREDICTED BY RF-SCORE:    0.00 PKD
ROOT
HETATM    1  C   UNL     1      -9.992  17.800  69.267  1.00  0.00    -0.097 C  
HETATM    2  C   UNL     1      -8.655  18.367  69.706  1.00  0.00     1.181 C  
ENDROOT
BRANCH   2   3
HETATM    3  O   UNL     1      -7.691  18.046  68.696  1.00  0.00    -0.292 OA 
BRANCH   3   4
HETATM    4  C   UNL     1      -6.442  17.751  69.172  1.00  0.00    -0.240 C  
HETATM    5  O   UNL     1      -5.696  16.897  68.711  1.00  0.00    -0.136 OA 
BRANCH   4   6
HETATM    6  C   UNL     1      -6.129  18.687  70.347  1.00  0.00     0.032 C  
HETATM    7  N   UNL     1      -7.141  19.769  70.385  1.00  0.00     0.185 NA 
HETATM    8  H2  UNL     1      -8.095  19.408  70.419  1.00  0.00     0.000 HD 
HETATM    9  H1  UNL     1      -6.933  20.391  71.165  1.00  0.00     0.000 HD 
BRANCH   6  10
HETATM   10  C   UNL     1      -6.078  17.901  71.675  1.00  0.00     1.836 C  
BRANCH  10  11
HETATM   11  C   UNL     1      -6.287  16.394  71.593  1.00  0.00     2.624 A  
HETATM   12  C   UNL     1      -5.242  15.477  71.442  1.00  0.00    -0.057 A  
HETATM   13  C   UNL     1      -5.502  14.087  71.347  1.00  0.00    -0.218 A  
HETATM   14  C   UNL     1      -6.809  13.554  71.390  1.00  0.00     2.590 A  
HETATM   15  C   UNL     1      -7.831  14.492  71.623  1.00  0.00     4.240 A  
HETATM   16  C   UNL     1      -7.579  15.873  71.713  1.00  0.00     6.079 A  
BRANCH  14  17
HETATM   17  C   UNL     1      -7.097  12.105  71.101  1.00  0.00     4.580 A  
HETATM   18  N   UNL     1      -6.029  11.308  70.861  1.00  0.00    -0.363 NA 
HETATM   19  C   UNL     1      -6.259  10.061  70.426  1.00  0.00    -0.103 A  
HETATM   20  N   UNL     1      -7.457   9.542  70.134  1.00  0.00    -0.116 NA 
HETATM   21  N   UNL     1      -5.161   9.265  70.172  1.00  0.00    -0.028 NA 
HETATM   22  H1  UNL     1      -5.336   8.317  69.841  1.00  0.00     0.000 HD 
HETATM   23  C   UNL     1      -8.499  10.336  70.396  1.00  0.00     0.679 A  
HETATM   24  H2  UNL     1      -4.211   9.612  70.311  1.00  0.00     0.000 HD 
HETATM   25  C   UNL     1      -8.378  11.606  70.927  1.00  0.00     6.994 A  
BRANCH  23  26
HETATM   26  O   UNL     1      -9.771   9.966  69.996  1.00  0.00    -0.236 OA 
BRANCH  26  27
HETATM   27  C   UNL     1     -10.145   8.575  70.148  1.00  0.00    -0.190 C  
HETATM   28  C   UNL     1     -11.614   8.298  70.558  1.00  0.00    -0.131 C  
HETATM   29  F   UNL     1     -12.300   9.396  70.945  1.00  0.00    -0.317 F  
HETATM   30  F   UNL     1     -11.626   7.437  71.618  1.00  0.00    -0.259 F  
HETATM   31  F   UNL     1     -12.340   7.686  69.591  1.00  0.00     0.602 F  
BRANCH  27  32
HETATM   32  C   UNL     1      -9.705   7.745  68.901  1.00  0.00    -0.160 A  
HETATM   33  C   UNL     1     -10.047   8.283  67.637  1.00  0.00    -0.268 A  
HETATM   34  C   UNL     1      -9.843   7.570  66.453  1.00  0.00    -0.152 A  
HETATM   35  C   UNL     1      -9.309   6.291  66.503  1.00  0.00    -0.151 A  
HETATM   36  C   UNL     1      -8.867   5.762  67.716  1.00  0.00    -0.105 A  
HETATM   37 CL   UNL     1      -9.180   5.357  65.064  1.00  0.00     0.007 Cl 
HETATM   38  C   UNL     1      -9.004   6.502  68.909  1.00  0.00    -0.128 A  
BRANCH  38  39
HETATM   39  N   UNL     1      -8.396   5.982  70.089  1.00  0.00    -0.118 NA 
HETATM   40  C   UNL     1      -7.057   5.883  70.423  1.00  0.00    -0.070 A  
HETATM   41  C   UNL     1      -6.995   5.118  71.567  1.00  0.00    -0.057 A  
HETATM   42  C   UNL     1      -8.336   4.876  71.896  1.00  0.00    -0.119 A  
HETATM   43  N   UNL     1      -9.158   5.544  71.102  1.00  0.00    -0.141 NA 
HETATM   44  C   UNL     1      -8.921   3.999  72.941  1.00  0.00    -0.116 C  
ENDBRANCH  38  39
ENDBRANCH  27  32
ENDBRANCH  26  27
ENDBRANCH  23  26
ENDBRANCH  14  17
ENDBRANCH  10  11
ENDBRANCH   6  10
ENDBRANCH   4   6
ENDBRANCH   3   4
ENDBRANCH   2   3
TORSDOF 10
ENDMDL
MODEL      281
REMARK 921   NORMALIZED FREE ENERGY PREDICTED BY IDOCK:   19.58 KCAL/MOL
REMARK 922        TOTAL FREE ENERGY PREDICTED BY IDOCK:   28.68 KCAL/MOL
REMARK 923 INTER-LIGAND FREE ENERGY PREDICTED BY IDOCK:   27.87 KCAL/MOL
REMARK 924 INTRA-LIGAND FREE ENERGY PREDICTED BY IDOCK:    0.81 KCAL/MOL
REMARK 927      BINDING AFFINITY PREDICTED BY RF-SCORE:    0.00 PKD
ROOT
HETATM    1  C   UNL     1      -9.992  17.800  69.267  1.00  0.00    -0.097 C  
HETATM    2  C   UNL     1      -8.651  18.362  69.703  1.00  0.00     0.894 C  
ENDROOT
BRANCH   2   3
HETATM    3  O   UNL     1      -7.692  18.037  68.690  1.00  0.00    -0.292 OA 
BRANCH   3   4
HETATM    4  C   UNL     1      -6.443  17.737  69.162  1.00  0.00    -0.240 C  
HETATM    5  O   UNL     1      -5.702  16.881  68.699  1.00  0.00    -0.132 OA 
BRANCH   4   6
HETATM    6  C   UNL     1      -6.123  18.672  70.336  1.00  0.00     0.032 C  
HETATM    7  N   UNL     1      -7.131  19.757  70.377  1.00  0.00     0.185 NA 
HETATM    8  H2  UNL     1      -8.086  19.400  70.414  1.00  0.00     0.000 HD 
HETATM    9  H1  UNL     1      -6.917  20.379  71.157  1.00  0.00     0.000 HD 
BRANCH   6  10
HETATM   10  C   UNL     1      -6.071  17.885  71.664  1.00  0.00     1.836 C  
BRANCH  10  11
HETATM   11  C   UNL     1      -6.286  16.379  71.583  1.00  0.00     2.624 A  
HETATM   12  C   UNL     1      -5.246  15.458  71.429  1.00  0.00    -0.067 A  
HETATM   13  C   UNL     1      -5.511  14.070  71.334  1.00  0.00    -0.218 A  
HETATM   14  C   UNL     1      -6.820  13.541  71.381  1.00  0.00     2.590 A  
HETATM   15  C   UNL     1      -7.837  14.484  71.617  1.00  0.00     4.240 A  
HETATM   16  C   UNL     1      -7.580  15.863  71.706  1.00  0.00     6.079 A  
BRANCH  14  17
HETATM   17  C   UNL     1      -7.114  12.094  71.093  1.00  0.00     4.580 A  
HETATM   18  N   UNL     1      -6.050  11.293  70.849  1.00  0.00    -0.345 NA 
HETATM   19  C   UNL     1      -6.286  10.047  70.415  1.00  0.00    -0.115 A  
HETATM   20  N   UNL     1      -7.487   9.532  70.126  1.00  0.00    -0.116 NA 
HETATM   21  N   UNL     1      -5.192   9.247  70.158  1.00  0.00    -0.028 NA 
HETATM   22  H1  UNL     1      -5.371   8.299  69.827  1.00  0.00     0.000 HD 
HETATM   23  C   UNL     1      -8.525  10.330  70.391  1.00  0.00     0.679 A  
HETATM   24  H2  UNL     1      -4.240   9.589  70.294  1.00  0.00     0.000 HD 
HETATM   25  C   UNL     1      -8.397  11.599  70.922  1.00  0.00     6.994 A  
BRANCH  23  26
HETATM   26  O   UNL     1      -9.799   9.965  69.995  1.00  0.00    -0.241 OA 
BRANCH  26  27
HETATM   27  C   UNL     1      -9.923   8.866  69.059  1.00  0.00    -0.190 C  
HETATM   28  C   UNL     1     -11.134   7.921  69.265  1.00  0.00     0.131 C  
HETATM   29  F   UNL     1     -11.794   8.107  70.429  1.00  0.00    -0.220 F  
HETATM   30  F   UNL     1     -10.694   6.628  69.269  1.00  0.00    -0.210 F  
HETATM   31  F   UNL     1     -12.047   7.985  68.265  1.00  0.00     1.787 F  
BRANCH  27  32
HETATM   32  C   UNL     1      -9.804   9.375  67.589  1.00  0.00    -0.217 A  
HETATM   33  C   UNL     1     -10.599  10.495  67.247  1.00  0.00    -0.317 A  
HETATM   34  C   UNL     1     -10.697  10.955  65.930  1.00  0.00    -0.193 A  
HETATM   35  C   UNL     1     -10.015  10.296  64.919  1.00  0.00    -0.323 A  
HETATM   36  C   UNL     1      -9.144   9.250  65.225  1.00  0.00    -0.271 A  
HETATM   37 CL   UNL     1     -10.237  10.774  63.280  1.00  0.00    -0.333 Cl 
HETATM   38  C   UNL     1      -8.984   8.823  66.559  1.00  0.00    -0.148 A  
BRANCH  38  39
HETATM   39  N   UNL     1      -7.968   7.861  66.833  1.00  0.00    -0.106 NA 
HETATM   40  C   UNL     1      -6.592   8.002  66.820  1.00  0.00    -0.056 A  
HETATM   41  C   UNL     1      -6.068   6.733  66.943  1.00  0.00    -0.036 A  
HETATM   42  C   UNL     1      -7.189   5.910  67.111  1.00  0.00    -0.075 A  
HETATM   43  N   UNL     1      -8.301   6.620  67.216  1.00  0.00    -0.120 NA 
HETATM   44  C   UNL     1      -7.289   4.429  67.156  1.00  0.00    -0.073 C  
ENDBRANCH  38  39
ENDBRANCH  27  32
ENDBRANCH  26  27
ENDBRANCH  23  26
ENDBRANCH  14  17
ENDBRANCH  10  11
ENDBRANCH   6  10
ENDBRANCH   4   6
ENDBRANCH   3   4
ENDBRANCH   2   3
TORSDOF 10
ENDMDL
MODEL      282
REMARK 921   NORMALIZED FREE ENERGY PREDICTED BY IDOCK:   21.07 KCAL/MOL
REMARK 922        TOTAL FREE ENERGY PREDICTED BY IDOCK:   31.05 KCAL/MOL
REMARK 923 INTER-LIGAND FREE ENERGY PREDICTED BY IDOCK:    2.07 KCAL/MOL
REMARK 924 INTRA-LIGAND FREE ENERGY PREDICTED BY IDOCK:   28.98 KCAL/MOL
REMARK 927      BINDING AFFINITY PREDICTED BY RF-SCORE:    0.00 PKD
ROOT
HETATM    1  C   UNL     1      -9.471  14.507  70.626  1.00  0.00     2.138 C  
HETATM    2  C   UNL     1      -8.980  15.742  69.892  1.00  0.00     0.231 C  
ENDROOT
BRANCH   2   3
HETATM    3  O   UNL     1      -9.986  16.113  68.942  1.00  0.00    -0.212 OA 
BRANCH   3   4
HETATM    4  C   UNL     1     -10.929  16.982  69.420  1.00  0.00     0.033 C  
HETATM    5  O   UNL     1     -11.358  16.996  70.566  1.00  0.00     0.248 OA 
BRANCH   4   6
HETATM    6  C   UNL     1     -11.326  17.946  68.294  1.00  0.00     0.790 C  
HETATM    7  N   UNL     1     -10.243  18.940  68.106  1.00  0.00    -0.383 NA 
HETATM    8  H2  UNL     1      -9.337  18.501  67.940  1.00  0.00     0.000 HD 
HETATM    9  H1  UNL     1     -10.508  19.581  67.358  1.00  0.00     0.000 HD 
BRANCH   6  10
HETATM   10  C   UNL     1     -11.629  17.172  66.992  1.00  0.00     1.190 C  
BRANCH  10  11
HETATM   11  C   UNL     1     -10.858  15.878  66.764  1.00  0.00    -0.228 A  
HETATM   12  C   UNL     1     -10.468  15.425  65.500  1.00  0.00    -0.402 A  
HETATM   13  C   UNL     1      -9.774  14.199  65.349  1.00  0.00    -0.126 A  
HETATM   14  C   UNL     1      -9.445  13.372  66.445  1.00  0.00    -0.230 A  
HETATM   15  C   UNL     1      -9.779  13.893  67.709  1.00  0.00    -0.225 A  
HETATM   16  C   UNL     1     -10.472  15.106  67.864  1.00  0.00    -0.245 A  
BRANCH  14  17
HETATM   17  C   UNL     1      -8.879  11.989  66.268  1.00  0.00    -0.075 A  
HETATM   18  N   UNL     1      -7.539  11.857  66.405  1.00  0.00     0.130 NA 
HETATM   19  C   UNL     1      -6.984  10.682  66.078  1.00  0.00    -0.128 A  
HETATM   20  N   UNL     1      -7.627   9.631  65.555  1.00  0.00    -0.105 NA 
HETATM   21  N   UNL     1      -5.615  10.567  66.210  1.00  0.00    -0.065 NA 
HETATM   22  H1  UNL     1      -5.193   9.673  65.961  1.00  0.00     0.000 HD 
HETATM   23  C   UNL     1      -8.950   9.772  65.447  1.00  0.00    -0.190 A  
HETATM   24  H2  UNL     1      -5.047  11.347  66.543  1.00  0.00     0.000 HD 
HETATM   25  C   UNL     1      -9.632  10.909  65.835  1.00  0.00    -0.257 A  
BRANCH  23  26
HETATM   26  O   UNL     1      -9.698   8.816  64.783  1.00  0.00     0.592 OA 
BRANCH  26  27
HETATM   27  C   UNL     1      -9.531   7.434  65.186  1.00  0.00     1.201 C  
HETATM   28  C   UNL     1      -8.361   6.661  64.526  1.00  0.00     0.063 C  
HETATM   29  F   UNL     1      -7.784   7.306  63.488  1.00  0.00    -0.097 F  
HETATM   30  F   UNL     1      -8.829   5.476  64.035  1.00  0.00    -0.093 F  
HETATM   31  F   UNL     1      -7.375   6.326  65.393  1.00  0.00    -0.067 F  
BRANCH  27  32
HETATM   32  C   UNL     1      -9.530   7.307  66.741  1.00  0.00    -0.218 A  
HETATM   33  C   UNL     1     -10.686   7.778  67.409  1.00  0.00    -0.300 A  
HETATM   34  C   UNL     1     -10.750   7.858  68.802  1.00  0.00    -0.082 A  
HETATM   35  C   UNL     1      -9.653   7.487  69.565  1.00  0.00    -0.156 A  
HETATM   36  C   UNL     1      -8.532   6.927  68.954  1.00  0.00    -0.125 A  
HETATM   37 CL   UNL     1      -9.678   7.710  71.271  1.00  0.00    -0.170 Cl 
HETATM   38  C   UNL     1      -8.483   6.776  67.553  1.00  0.00    -0.121 A  
BRANCH  38  39
HETATM   39  N   UNL     1      -7.385   6.056  66.998  1.00  0.00    -0.075 NA 
HETATM   40  C   UNL     1      -6.499   5.188  67.609  1.00  0.00    -0.045 A  
HETATM   41  C   UNL     1      -5.505   4.932  66.690  1.00  0.00    -0.013 A  
HETATM   42  C   UNL     1      -5.917   5.611  65.535  1.00  0.00    -0.025 A  
HETATM   43  N   UNL     1      -7.124   6.132  65.684  1.00  0.00    -0.071 NA 
HETATM   44  C   UNL     1      -5.205   5.833  64.252  1.00  0.00    -0.016 C  
ENDBRANCH  38  39
ENDBRANCH  27  32
ENDBRANCH  26  27
ENDBRANCH  23  26
ENDBRANCH  14  17
ENDBRANCH  10  11
ENDBRANCH   6  10
ENDBRANCH   4   6
ENDBRANCH   3   4
ENDBRANCH   2   3
TORSDOF 10
ENDMDL
MODEL      283
REMARK 921   NORMALIZED FREE ENERGY PREDICTED BY IDOCK:   21.83 KCAL/MOL
REMARK 922        TOTAL FREE ENERGY PREDICTED BY IDOCK:   32.26 KCAL/MOL
REMARK 923 INTER-LIGAND FREE ENERGY PREDICTED BY IDOCK:   25.18 KCAL/MOL
REMARK 924 INTRA-LIGAND FREE ENERGY PREDICTED BY IDOCK:    7.08 KCAL/MOL
REMARK 927      BINDING AFFINITY PREDICTED BY RF-SCORE:    0.00 PKD
ROOT
HETATM    1  C   UNL     1     -11.685  14.481  72.764  1.00  0.00     0.253 C  
HETATM    2  C   UNL     1     -11.472  15.579  71.738  1.00  0.00    -0.426 C  
ENDROOT
BRANCH   2   3
HETATM    3  O   UNL     1     -11.658  15.006  70.439  1.00  0.00    -0.255 OA 
BRANCH   3   4
HETATM    4  C   UNL     1     -10.558  15.063  69.627  1.00  0.00    -0.238 C  
HETATM    5  O   UNL     1     -10.561  15.436  68.462  1.00  0.00    -0.231 OA 
BRANCH   4   6
HETATM    6  C   UNL     1      -9.329  14.616  70.430  1.00  0.00     1.434 C  
HETATM    7  N   UNL     1      -9.044  15.626  71.476  1.00  0.00     3.313 NA 
HETATM    8  H2  UNL     1      -9.852  15.809  72.072  1.00  0.00     0.000 HD 
HETATM    9  H1  UNL     1      -8.227  15.329  72.010  1.00  0.00     0.000 HD 
BRANCH   6  10
HETATM   10  C   UNL     1      -9.551  13.212  71.033  1.00  0.00     8.864 C  
BRANCH  10  11
HETATM   11  C   UNL     1      -9.028  12.026  70.231  1.00  0.00     4.461 A  
HETATM   12  C   UNL     1      -9.094  10.703  70.677  1.00  0.00     2.221 A  
HETATM   13  C   UNL     1      -8.568   9.645  69.896  1.00  0.00    -0.218 A  
HETATM   14  C   UNL     1      -7.948   9.859  68.645  1.00  0.00    -0.087 A  
HETATM   15  C   UNL     1      -7.968  11.189  68.188  1.00  0.00    -0.125 A  
HETATM   16  C   UNL     1      -8.485  12.244  68.961  1.00  0.00     0.387 A  
BRANCH  14  17
HETATM   17  C   UNL     1      -7.225   8.764  67.907  1.00  0.00    -0.084 A  
HETATM   18  N   UNL     1      -6.785   9.057  66.661  1.00  0.00    -0.074 NA 
HETATM   19  C   UNL     1      -6.300   8.057  65.913  1.00  0.00    -0.045 A  
HETATM   20  N   UNL     1      -6.273   6.764  66.256  1.00  0.00    -0.043 NA 
HETATM   21  N   UNL     1      -5.868   8.368  64.640  1.00  0.00    -0.058 NA 
HETATM   22  H1  UNL     1      -5.500   7.607  64.070  1.00  0.00     0.000 HD 
HETATM   23  C   UNL     1      -6.692   6.497  67.496  1.00  0.00    -0.067 A  
HETATM   24  H2  UNL     1      -5.916   9.323  64.282  1.00  0.00     0.000 HD 
HETATM   25  C   UNL     1      -7.130   7.465  68.380  1.00  0.00    -0.085 A  
BRANCH  23  26
HETATM   26  O   UNL     1      -6.851   5.186  67.908  1.00  0.00    -0.057 OA 
BRANCH  26  27
HETATM   27  C   UNL     1      -7.422   4.957  69.219  1.00  0.00    -0.057 C  
HETATM   28  C   UNL     1      -7.143   3.574  69.860  1.00  0.00    -0.041 C  
HETATM   29  F   UNL     1      -6.593   2.671  69.018  1.00  0.00    -0.031 F  
HETATM   30  F   UNL     1      -8.322   3.037  70.292  1.00  0.00    -0.055 F  
HETATM   31  F   UNL     1      -6.353   3.636  70.960  1.00  0.00    -0.017 F  
BRANCH  27  32
HETATM   32  C   UNL     1      -7.090   6.141  70.181  1.00  0.00    -0.074 A  
HETATM   33  C   UNL     1      -5.724   6.497  70.287  1.00  0.00    -0.019 A  
HETATM   34  C   UNL     1      -5.279   7.437  71.221  1.00  0.00    -0.027 A  
HETATM   35  C   UNL     1      -6.185   8.031  72.086  1.00  0.00    -0.046 A  
HETATM   36  C   UNL     1      -7.551   7.782  71.951  1.00  0.00    -0.092 A  
HETATM   37 CL   UNL     1      -5.626   9.086  73.326  1.00  0.00    -0.104 Cl 
HETATM   38  C   UNL     1      -8.019   6.888  70.965  1.00  0.00    -0.102 A  
BRANCH  38  39
HETATM   39  N   UNL     1      -9.427   6.792  70.767  1.00  0.00    -0.165 NA 
HETATM   40  C   UNL     1     -10.444   7.597  71.249  1.00  0.00    -0.206 A  
HETATM   41  C   UNL     1     -11.626   6.956  70.950  1.00  0.00    -0.384 A  
HETATM   42  C   UNL     1     -11.233   5.828  70.218  1.00  0.00    -0.151 A  
HETATM   43  N   UNL     1      -9.932   5.839  69.971  1.00  0.00    -0.178 NA 
HETATM   44  C   UNL     1     -12.034   4.674  69.735  1.00  0.00     8.087 C  
ENDBRANCH  38  39
ENDBRANCH  27  32
ENDBRANCH  26  27
ENDBRANCH  23  26
ENDBRANCH  14  17
ENDBRANCH  10  11
ENDBRANCH   6  10
ENDBRANCH   4   6
ENDBRANCH   3   4
ENDBRANCH   2   3
TORSDOF 10
ENDMDL
MODEL      284
REMARK 921   NORMALIZED FREE ENERGY PREDICTED BY IDOCK:   24.09 KCAL/MOL
REMARK 922        TOTAL FREE ENERGY PREDICTED BY IDOCK:   35.82 KCAL/MOL
REMARK 923 INTER-LIGAND FREE ENERGY PREDICTED BY IDOCK:   30.07 KCAL/MOL
REMARK 924 INTRA-LIGAND FREE ENERGY PREDICTED BY IDOCK:    5.76 KCAL/MOL
REMARK 927      BINDING AFFINITY PREDICTED BY RF-SCORE:    0.00 PKD
ROOT
HETATM    1  C   UNL     1      -9.637  16.031  71.980  1.00  0.00     5.899 C  
HETATM    2  C   UNL     1      -8.192  16.389  71.683  1.00  0.00     8.574 C  
ENDROOT
BRANCH   2   3
HETATM    3  O   UNL     1      -8.163  17.746  71.227  1.00  0.00     7.085 OA 
BRANCH   3   4
HETATM    4  C   UNL     1      -7.109  18.051  70.410  1.00  0.00     1.819 C  
HETATM    5  O   UNL     1      -6.161  18.760  70.719  1.00  0.00     0.014 OA 
BRANCH   4   6
HETATM    6  C   UNL     1      -7.301  17.331  69.069  1.00  0.00    -0.209 C  
HETATM    7  N   UNL     1      -6.107  16.498  68.793  1.00  0.00    -0.131 NA 
HETATM    8  H2  UNL     1      -5.899  15.852  69.555  1.00  0.00     0.000 HD 
HETATM    9  H1  UNL     1      -6.235  16.020  67.902  1.00  0.00     0.000 HD 
BRANCH   6  10
HETATM   10  C   UNL     1      -8.597  16.492  69.079  1.00  0.00    -0.208 C  
BRANCH  10  11
HETATM   11  C   UNL     1      -8.459  15.004  68.779  1.00  0.00    -0.180 A  
HETATM   12  C   UNL     1      -8.481  14.472  67.487  1.00  0.00    -0.201 A  
HETATM   13  C   UNL     1      -8.373  13.076  67.273  1.00  0.00    -0.186 A  
HETATM   14  C   UNL     1      -8.245  12.152  68.334  1.00  0.00    -0.145 A  
HETATM   15  C   UNL     1      -8.144  12.724  69.615  1.00  0.00     1.534 A  
HETATM   16  C   UNL     1      -8.256  14.109  69.833  1.00  0.00     1.047 A  
BRANCH  14  17
HETATM   17  C   UNL     1      -8.319  10.665  68.119  1.00  0.00    -0.121 A  
HETATM   18  N   UNL     1      -7.598  10.161  67.090  1.00  0.00    -0.092 NA 
HETATM   19  C   UNL     1      -7.782   8.875  66.762  1.00  0.00    -0.097 A  
HETATM   20  N   UNL     1      -8.675   8.045  67.314  1.00  0.00    -0.130 NA 
HETATM   21  N   UNL     1      -7.050   8.379  65.702  1.00  0.00    -0.074 NA 
HETATM   22  H1  UNL     1      -7.191   7.401  65.452  1.00  0.00     0.000 HD 
HETATM   23  C   UNL     1      -9.362   8.554  68.341  1.00  0.00    -0.134 A  
HETATM   24  H2  UNL     1      -6.394   8.969  65.189  1.00  0.00     0.000 HD 
HETATM   25  C   UNL     1      -9.187   9.839  68.816  1.00  0.00    -0.143 A  
BRANCH  23  26
HETATM   26  O   UNL     1     -10.413   7.843  68.891  1.00  0.00    -0.214 OA 
BRANCH  26  27
HETATM   27  C   UNL     1     -10.099   6.621  69.605  1.00  0.00    -0.181 C  
HETATM   28  C   UNL     1      -9.777   5.380  68.735  1.00  0.00    -0.142 C  
HETATM   29  F   UNL     1     -10.054   5.534  67.421  1.00  0.00    -0.134 F  
HETATM   30  F   UNL     1     -10.528   4.325  69.170  1.00  0.00    -0.050 F  
HETATM   31  F   UNL     1      -8.490   4.969  68.833  1.00  0.00    -0.086 F  
BRANCH  27  32
HETATM   32  C   UNL     1      -9.017   6.883  70.699  1.00  0.00    -0.151 A  
HETATM   33  C   UNL     1      -8.216   8.037  70.524  1.00  0.00    -0.118 A  
HETATM   34  C   UNL     1      -7.119   8.303  71.348  1.00  0.00    -0.067 A  
HETATM   35  C   UNL     1      -6.783   7.413  72.356  1.00  0.00    -0.055 A  
HETATM   36  C   UNL     1      -7.601   6.316  72.626  1.00  0.00    -0.100 A  
HETATM   37 CL   UNL     1      -5.357   7.666  73.286  1.00  0.00    -0.044 Cl 
HETATM   38  C   UNL     1      -8.751   6.076  71.845  1.00  0.00    -0.137 A  
BRANCH  38  39
HETATM   39  N   UNL     1      -9.634   5.036  72.261  1.00  0.00    -0.145 NA 
HETATM   40  C   UNL     1      -9.701   4.365  73.469  1.00  0.00    -0.120 A  
HETATM   41  C   UNL     1     -10.576   3.317  73.286  1.00  0.00    -0.275 A  
HETATM   42  C   UNL     1     -11.050   3.485  71.978  1.00  0.00     1.097 A  
HETATM   43  N   UNL     1     -10.609   4.613  71.443  1.00  0.00    -0.004 NA 
HETATM   44  C   UNL     1     -11.910   2.601  71.152  1.00  0.00     7.076 C  
ENDBRANCH  38  39
ENDBRANCH  27  32
ENDBRANCH  26  27
ENDBRANCH  23  26
ENDBRANCH  14  17
ENDBRANCH  10  11
ENDBRANCH   6  10
ENDBRANCH   4   6
ENDBRANCH   3   4
ENDBRANCH   2   3
TORSDOF 10
ENDMDL
MODEL      285
REMARK 921   NORMALIZED FREE ENERGY PREDICTED BY IDOCK:   25.08 KCAL/MOL
REMARK 922        TOTAL FREE ENERGY PREDICTED BY IDOCK:   37.40 KCAL/MOL
REMARK 923 INTER-LIGAND FREE ENERGY PREDICTED BY IDOCK:   35.84 KCAL/MOL
REMARK 924 INTRA-LIGAND FREE ENERGY PREDICTED BY IDOCK:    1.57 KCAL/MOL
REMARK 927      BINDING AFFINITY PREDICTED BY RF-SCORE:    0.00 PKD
ROOT
HETATM    1  C   UNL     1     -12.084   3.303  70.555  1.00  0.00    12.835 C  
HETATM    2  C   UNL     1     -13.106   4.356  70.168  1.00  0.00    17.993 C  
ENDROOT
BRANCH   2   3
HETATM    3  O   UNL     1     -12.410   5.417  69.504  1.00  0.00     4.184 OA 
BRANCH   3   4
HETATM    4  C   UNL     1     -11.531   6.105  70.295  1.00  0.00    -0.287 C  
HETATM    5  O   UNL     1     -11.845   6.876  71.192  1.00  0.00    -0.311 OA 
BRANCH   4   6
HETATM    6  C   UNL     1     -10.101   5.721  69.892  1.00  0.00    -0.209 C  
HETATM    7  N   UNL     1      -9.969   4.245  69.933  1.00  0.00    -0.192 NA 
HETATM    8  H2  UNL     1     -10.673   3.776  69.363  1.00  0.00     0.000 HD 
HETATM    9  H1  UNL     1      -9.018   3.990  69.665  1.00  0.00     0.000 HD 
BRANCH   6  10
HETATM   10  C   UNL     1      -9.753   6.290  68.500  1.00  0.00    -0.137 C  
BRANCH  10  11
HETATM   11  C   UNL     1     -10.193   7.720  68.209  1.00  0.00    -0.236 A  
HETATM   12  C   UNL     1     -11.058   8.064  67.166  1.00  0.00     0.333 A  
HETATM   13  C   UNL     1     -11.412   9.416  66.930  1.00  0.00     1.697 A  
HETATM   14  C   UNL     1     -10.915  10.479  67.715  1.00  0.00    -0.372 A  
HETATM   15  C   UNL     1     -10.112  10.094  68.804  1.00  0.00    -0.198 A  
HETATM   16  C   UNL     1      -9.754   8.755  69.040  1.00  0.00    -0.172 A  
BRANCH  14  17
HETATM   17  C   UNL     1     -11.139  11.922  67.350  1.00  0.00    -0.279 A  
HETATM   18  N   UNL     1     -11.905  12.163  66.261  1.00  0.00    -0.594 NA 
HETATM   19  C   UNL     1     -11.976  13.422  65.806  1.00  0.00    -0.407 A  
HETATM   20  N   UNL     1     -11.295  14.468  66.288  1.00  0.00    -0.347 NA 
HETATM   21  N   UNL     1     -12.751  13.649  64.687  1.00  0.00    -0.663 NA 
HETATM   22  H1  UNL     1     -12.804  14.607  64.340  1.00  0.00     0.000 HD 
HETATM   23  C   UNL     1     -10.561  14.215  67.374  1.00  0.00    -0.279 A  
HETATM   24  H2  UNL     1     -13.251  12.889  64.224  1.00  0.00     0.000 HD 
HETATM   25  C   UNL     1     -10.487  12.973  67.975  1.00  0.00    -0.234 A  
BRANCH  23  26
HETATM   26  O   UNL     1      -9.700  15.179  67.869  1.00  0.00    -0.207 OA 
BRANCH  26  27
HETATM   27  C   UNL     1      -8.277  14.959  67.702  1.00  0.00    -0.172 C  
HETATM   28  C   UNL     1      -7.532  15.953  66.776  1.00  0.00    -0.149 C  
HETATM   29  F   UNL     1      -8.343  16.762  66.059  1.00  0.00    -0.317 F  
HETATM   30  F   UNL     1      -6.788  15.248  65.873  1.00  0.00     2.183 F  
HETATM   31  F   UNL     1      -6.646  16.743  67.431  1.00  0.00    -0.131 F  
BRANCH  27  32
HETATM   32  C   UNL     1      -7.578  14.791  69.087  1.00  0.00    -0.151 A  
HETATM   33  C   UNL     1      -7.682  15.886  69.979  1.00  0.00     0.552 A  
HETATM   34  C   UNL     1      -6.980  15.922  71.186  1.00  0.00     2.427 A  
HETATM   35  C   UNL     1      -6.139  14.873  71.525  1.00  0.00     0.408 A  
HETATM   36  C   UNL     1      -6.082  13.732  70.724  1.00  0.00    -0.088 A  
HETATM   37 CL   UNL     1      -5.170  14.972  72.944  1.00  0.00    -0.068 Cl 
HETATM   38  C   UNL     1      -6.842  13.655  69.538  1.00  0.00     0.027 A  
BRANCH  38  39
HETATM   39  N   UNL     1      -6.867  12.411  68.843  1.00  0.00    -0.096 NA 
HETATM   40  C   UNL     1      -6.017  11.324  68.945  1.00  0.00    -0.044 A  
HETATM   41  C   UNL     1      -6.346  10.472  67.914  1.00  0.00    -0.059 A  
HETATM   42  C   UNL     1      -7.451  11.078  67.302  1.00  0.00    -0.107 A  
HETATM   43  N   UNL     1      -7.855  12.144  67.975  1.00  0.00    -0.134 NA 
HETATM   44  C   UNL     1      -8.170  10.718  66.054  1.00  0.00    -0.164 C  
ENDBRANCH  38  39
ENDBRANCH  27  32
ENDBRANCH  26  27
ENDBRANCH  23  26
ENDBRANCH  14  17
ENDBRANCH  10  11
ENDBRANCH   6  10
ENDBRANCH   4   6
ENDBRANCH   3   4
ENDBRANCH   2   3
TORSDOF 10
ENDMDL
MODEL      286
REMARK 921   NORMALIZED FREE ENERGY PREDICTED BY IDOCK:   28.00 KCAL/MOL
REMARK 922        TOTAL FREE ENERGY PREDICTED BY IDOCK:   42.02 KCAL/MOL
REMARK 923 INTER-LIGAND FREE ENERGY PREDICTED BY IDOCK:   36.53 KCAL/MOL
REMARK 924 INTRA-LIGAND FREE ENERGY PREDICTED BY IDOCK:    5.50 KCAL/MOL
REMARK 927      BINDING AFFINITY PREDICTED BY RF-SCORE:    0.00 PKD
ROOT
HETATM    1  C   UNL     1     -10.235  19.421  65.191  1.00  0.00     1.016 C  
HETATM    2  C   UNL     1      -8.801  19.479  64.697  1.00  0.00     3.953 C  
ENDROOT
BRANCH   2   3
HETATM    3  O   UNL     1      -8.153  18.264  65.094  1.00  0.00     0.654 OA 
BRANCH   3   4
HETATM    4  C   UNL     1      -8.977  17.173  65.160  1.00  0.00     2.304 C  
HETATM    5  O   UNL     1     -10.163  17.203  65.460  1.00  0.00    -0.592 OA 
BRANCH   4   6
HETATM    6  C   UNL     1      -8.175  15.927  64.764  1.00  0.00     6.804 C  
HETATM    7  N   UNL     1      -7.611  15.308  65.986  1.00  0.00     0.883 NA 
HETATM    8  H2  UNL     1      -8.326  15.104  66.685  1.00  0.00     0.000 HD 
HETATM    9  H1  UNL     1      -7.078  14.479  65.722  1.00  0.00     0.000 HD 
BRANCH   6  10
HETATM   10  C   UNL     1      -9.058  14.936  63.974  1.00  0.00     7.781 C  
BRANCH  10  11
HETATM   11  C   UNL     1      -9.417  13.627  64.666  1.00  0.00     1.008 A  
HETATM   12  C   UNL     1     -10.665  13.375  65.241  1.00  0.00    -0.321 A  
HETATM   13  C   UNL     1     -10.931  12.146  65.894  1.00  0.00    -0.332 A  
HETATM   14  C   UNL     1      -9.965  11.122  66.008  1.00  0.00    -0.280 A  
HETATM   15  C   UNL     1      -8.747  11.373  65.350  1.00  0.00     0.085 A  
HETATM   16  C   UNL     1      -8.477  12.593  64.705  1.00  0.00     2.811 A  
BRANCH  14  17
HETATM   17  C   UNL     1     -10.184   9.900  66.859  1.00  0.00    -0.240 A  
HETATM   18  N   UNL     1     -10.484   8.751  66.210  1.00  0.00     0.009 NA 
HETATM   19  C   UNL     1     -10.859   7.693  66.942  1.00  0.00    -0.057 A  
HETATM   20  N   UNL     1     -11.038   7.682  68.268  1.00  0.00     0.174 NA 
HETATM   21  N   UNL     1     -11.174   6.533  66.265  1.00  0.00    -0.201 NA 
HETATM   22  H1  UNL     1     -11.460   5.728  66.822  1.00  0.00     0.000 HD 
HETATM   23  C   UNL     1     -10.719   8.818  68.893  1.00  0.00    -0.087 A  
HETATM   24  H2  UNL     1     -11.123   6.481  65.247  1.00  0.00     0.000 HD 
HETATM   25  C   UNL     1     -10.239   9.940  68.243  1.00  0.00    -0.204 A  
BRANCH  23  26
HETATM   26  O   UNL     1     -11.004   8.974  70.238  1.00  0.00    -0.237 OA 
BRANCH  26  27
HETATM   27  C   UNL     1     -12.359   9.338  70.600  1.00  0.00     0.006 C  
HETATM   28  C   UNL     1     -13.175   8.270  71.371  1.00  0.00    -0.217 C  
HETATM   29  F   UNL     1     -12.598   7.049  71.409  1.00  0.00    -0.358 F  
HETATM   30  F   UNL     1     -14.387   8.110  70.761  1.00  0.00    -0.212 F  
HETATM   31  F   UNL     1     -13.460   8.624  72.648  1.00  0.00    -0.375 F  
BRANCH  27  32
HETATM   32  C   UNL     1     -12.389  10.734  71.297  1.00  0.00    -0.470 A  
HETATM   33  C   UNL     1     -13.544  11.028  72.061  1.00  0.00    -0.147 A  
HETATM   34  C   UNL     1     -13.760  12.294  72.611  1.00  0.00     0.377 A  
HETATM   35  C   UNL     1     -12.836  13.305  72.396  1.00  0.00    -0.105 A  
HETATM   36  C   UNL     1     -11.640  13.033  71.733  1.00  0.00     2.588 A  
HETATM   37 CL   UNL     1     -13.162  14.900  72.956  1.00  0.00    -0.569 Cl 
HETATM   38  C   UNL     1     -11.379  11.740  71.234  1.00  0.00     2.332 A  
BRANCH  38  39
HETATM   39  N   UNL     1     -10.080  11.478  70.708  1.00  0.00     3.468 NA 
HETATM   40  C   UNL     1      -9.408  12.095  69.668  1.00  0.00     1.764 A  
HETATM   41  C   UNL     1      -8.286  11.334  69.422  1.00  0.00     0.305 A  
HETATM   42  C   UNL     1      -8.318  10.340  70.408  1.00  0.00     0.642 A  
HETATM   43  N   UNL     1      -9.300  10.544  71.272  1.00  0.00     2.693 NA 
HETATM   44  C   UNL     1      -7.460   9.141  70.586  1.00  0.00    -0.129 C  
ENDBRANCH  38  39
ENDBRANCH  27  32
ENDBRANCH  26  27
ENDBRANCH  23  26
ENDBRANCH  14  17
ENDBRANCH  10  11
ENDBRANCH   6  10
ENDBRANCH   4   6
ENDBRANCH   3   4
ENDBRANCH   2   3
TORSDOF 10
ENDMDL
MODEL      287
REMARK 921   NORMALIZED FREE ENERGY PREDICTED BY IDOCK:   40.12 KCAL/MOL
REMARK 922        TOTAL FREE ENERGY PREDICTED BY IDOCK:   61.23 KCAL/MOL
REMARK 923 INTER-LIGAND FREE ENERGY PREDICTED BY IDOCK:   -0.92 KCAL/MOL
REMARK 924 INTRA-LIGAND FREE ENERGY PREDICTED BY IDOCK:   62.14 KCAL/MOL
REMARK 927      BINDING AFFINITY PREDICTED BY RF-SCORE:    0.00 PKD
ROOT
HETATM    1  C   UNL     1     -12.471  14.669  67.276  1.00  0.00     0.304 C  
HETATM    2  C   UNL     1     -11.720  13.377  67.008  1.00  0.00    -0.381 C  
ENDROOT
BRANCH   2   3
HETATM    3  O   UNL     1     -10.945  13.561  65.817  1.00  0.00    -0.278 OA 
BRANCH   3   4
HETATM    4  C   UNL     1     -10.452  14.827  65.648  1.00  0.00    -0.349 C  
HETATM    5  O   UNL     1      -9.312  15.097  65.294  1.00  0.00    -0.006 OA 
BRANCH   4   6
HETATM    6  C   UNL     1     -11.571  15.835  65.940  1.00  0.00     0.390 C  
HETATM    7  N   UNL     1     -12.424  15.971  64.735  1.00  0.00     0.558 NA 
HETATM    8  H2  UNL     1     -12.784  15.074  64.410  1.00  0.00     0.000 HD 
HETATM    9  H1  UNL     1     -13.168  16.641  64.930  1.00  0.00     0.000 HD 
BRANCH   6  10
HETATM   10  C   UNL     1     -12.389  15.402  67.176  1.00  0.00     0.965 C  
BRANCH  10  11
HETATM   11  C   UNL     1     -12.038  14.056  67.799  1.00  0.00    -0.325 A  
HETATM   12  C   UNL     1     -12.458  13.662  69.073  1.00  0.00     0.143 A  
HETATM   13  C   UNL     1     -12.078  12.406  69.608  1.00  0.00    -0.271 A  
HETATM   14  C   UNL     1     -11.262  11.495  68.903  1.00  0.00    -0.308 A  
HETATM   15  C   UNL     1     -10.923  11.885  67.594  1.00  0.00    -0.286 A  
HETATM   16  C   UNL     1     -11.293  13.132  67.060  1.00  0.00    -0.349 A  
BRANCH  14  17
HETATM   17  C   UNL     1     -10.707  10.251  69.541  1.00  0.00    -0.249 A  
HETATM   18  N   UNL     1     -10.502  10.292  70.878  1.00  0.00     0.215 NA 
HETATM   19  C   UNL     1      -9.844   9.271  71.447  1.00  0.00    -0.226 A  
HETATM   20  N   UNL     1      -9.300   8.233  70.801  1.00  0.00    -0.157 NA 
HETATM   21  N   UNL     1      -9.631   9.334  72.809  1.00  0.00     0.862 NA 
HETATM   22  H1  UNL     1      -9.131   8.557  73.241  1.00  0.00     0.000 HD 
HETATM   23  C   UNL     1      -9.530   8.200  69.486  1.00  0.00    -0.156 A  
HETATM   24  H2  UNL     1      -9.962  10.125  73.362  1.00  0.00     0.000 HD 
HETATM   25  C   UNL     1     -10.269   9.155  68.814  1.00  0.00    -0.228 A  
BRANCH  23  26
HETATM   26  O   UNL     1      -8.894   7.260  68.694  1.00  0.00    -0.130 OA 
BRANCH  26  27
HETATM   27  C   UNL     1      -9.359   7.104  67.331  1.00  0.00    -0.127 C  
HETATM   28  C   UNL     1      -9.810   8.396  66.605  1.00  0.00    -0.273 C  
HETATM   29  F   UNL     1      -9.928   9.475  67.411  1.00  0.00    -0.184 F  
HETATM   30  F   UNL     1     -11.040   8.189  66.049  1.00  0.00     0.892 F  
HETATM   31  F   UNL     1      -9.004   8.747  65.573  1.00  0.00    -0.191 F  
BRANCH  27  32
HETATM   32  C   UNL     1      -8.341   6.269  66.492  1.00  0.00    -0.114 A  
HETATM   33  C   UNL     1      -8.895   5.329  65.590  1.00  0.00    -0.152 A  
HETATM   34  C   UNL     1      -8.095   4.420  64.892  1.00  0.00    -0.099 A  
HETATM   35  C   UNL     1      -6.723   4.414  65.091  1.00  0.00    -0.049 A  
HETATM   36  C   UNL     1      -6.127   5.387  65.894  1.00  0.00    -0.033 A  
HETATM   37 CL   UNL     1      -5.750   3.211  64.338  1.00  0.00    -0.010 Cl 
HETATM   38  C   UNL     1      -6.918   6.354  66.549  1.00  0.00    -0.067 A  
BRANCH  38  39
HETATM   39  N   UNL     1      -6.248   7.414  67.227  1.00  0.00    -0.049 NA 
HETATM   40  C   UNL     1      -5.919   7.539  68.565  1.00  0.00    -0.027 A  
HETATM   41  C   UNL     1      -5.478   8.833  68.740  1.00  0.00    -0.040 A  
HETATM   42  C   UNL     1      -5.492   9.382  67.451  1.00  0.00    -0.037 A  
HETATM   43  N   UNL     1      -5.789   8.469  66.538  1.00  0.00    -0.050 NA 
HETATM   44  C   UNL     1      -5.258  10.778  67.003  1.00  0.00    -0.046 C  
ENDBRANCH  38  39
ENDBRANCH  27  32
ENDBRANCH  26  27
ENDBRANCH  23  26
ENDBRANCH  14  17
ENDBRANCH  10  11
ENDBRANCH   6  10
ENDBRANCH   4   6
ENDBRANCH   3   4
ENDBRANCH   2   3
TORSDOF 10
ENDMDL
MODEL      288
REMARK 921   NORMALIZED FREE ENERGY PREDICTED BY IDOCK:   55.56 KCAL/MOL
REMARK 922        TOTAL FREE ENERGY PREDICTED BY IDOCK:   85.69 KCAL/MOL
REMARK 923 INTER-LIGAND FREE ENERGY PREDICTED BY IDOCK:   76.51 KCAL/MOL
REMARK 924 INTRA-LIGAND FREE ENERGY PREDICTED BY IDOCK:    9.19 KCAL/MOL
REMARK 927      BINDING AFFINITY PREDICTED BY RF-SCORE:    0.00 PKD
ROOT
HETATM    1  C   UNL     1      -9.645  16.029  71.980  1.00  0.00     5.899 C  
HETATM    2  C   UNL     1      -8.182  16.314  71.692  1.00  0.00     8.084 C  
ENDROOT
BRANCH   2   3
HETATM    3  O   UNL     1      -8.072  17.692  71.315  1.00  0.00     6.867 OA 
BRANCH   3   4
HETATM    4  C   UNL     1      -7.017  17.975  70.489  1.00  0.00     1.909 C  
HETATM    5  O   UNL     1      -5.981  18.526  70.834  1.00  0.00     0.034 OA 
BRANCH   4   6
HETATM    6  C   UNL     1      -7.341  17.457  69.082  1.00  0.00    -0.144 C  
HETATM    7  N   UNL     1      -6.314  16.466  68.684  1.00  0.00    -0.129 NA 
HETATM    8  H2  UNL     1      -6.218  15.711  69.363  1.00  0.00     0.000 HD 
HETATM    9  H1  UNL     1      -6.529  16.122  67.748  1.00  0.00     0.000 HD 
BRANCH   6  10
HETATM   10  C   UNL     1      -8.765  16.860  69.032  1.00  0.00    -0.150 C  
BRANCH  10  11
HETATM   11  C   UNL     1      -8.897  15.433  68.515  1.00  0.00    -0.183 A  
HETATM   12  C   UNL     1      -8.996  15.109  67.158  1.00  0.00    -0.231 A  
HETATM   13  C   UNL     1      -9.142  13.764  66.740  1.00  0.00    -0.235 A  
HETATM   14  C   UNL     1      -9.203  12.687  67.651  1.00  0.00    -0.191 A  
HETATM   15  C   UNL     1      -9.020  13.035  69.002  1.00  0.00     0.492 A  
HETATM   16  C   UNL     1      -8.879  14.370  69.423  1.00  0.00     0.304 A  
BRANCH  14  17
HETATM   17  C   UNL     1      -9.545  11.286  67.220  1.00  0.00    -0.173 A  
HETATM   18  N   UNL     1      -9.040  10.873  66.034  1.00  0.00    -0.184 NA 
HETATM   19  C   UNL     1      -9.471   9.704  65.539  1.00  0.00    -0.266 A  
HETATM   20  N   UNL     1     -10.418   8.927  66.076  1.00  0.00     0.276 NA 
HETATM   21  N   UNL     1      -8.957   9.303  64.323  1.00  0.00    -0.395 NA 
HETATM   22  H1  UNL     1      -9.284   8.414  63.946  1.00  0.00     0.000 HD 
HETATM   23  C   UNL     1     -10.889   9.341  67.255  1.00  0.00    -0.069 A  
HETATM   24  H2  UNL     1      -8.276   9.873  63.820  1.00  0.00     0.000 HD 
HETATM   25  C   UNL     1     -10.452  10.484  67.895  1.00  0.00    -0.247 A  
BRANCH  23  26
HETATM   26  O   UNL     1     -11.974   8.702  67.831  1.00  0.00     2.441 OA 
BRANCH  26  27
HETATM   27  C   UNL     1     -11.793   7.333  68.269  1.00  0.00     1.669 C  
HETATM   28  C   UNL     1     -12.639   6.260  67.539  1.00  0.00     7.421 C  
HETATM   29  F   UNL     1     -13.607   6.762  66.741  1.00  0.00     9.236 F  
HETATM   30  F   UNL     1     -13.266   5.479  68.467  1.00  0.00     8.381 F  
HETATM   31  F   UNL     1     -11.900   5.404  66.790  1.00  0.00     0.937 F  
BRANCH  27  32
HETATM   32  C   UNL     1     -10.277   6.966  68.324  1.00  0.00    -0.201 A  
HETATM   33  C   UNL     1      -9.408   7.772  67.550  1.00  0.00    -0.161 A  
HETATM   34  C   UNL     1      -8.055   7.459  67.396  1.00  0.00    -0.113 A  
HETATM   35  C   UNL     1      -7.539   6.321  67.996  1.00  0.00    -0.102 A  
HETATM   36  C   UNL     1      -8.335   5.553  68.846  1.00  0.00    -0.102 A  
HETATM   37 CL   UNL     1      -5.908   5.858  67.700  1.00  0.00    -0.016 Cl 
HETATM   38  C   UNL     1      -9.685   5.900  69.065  1.00  0.00    -0.136 A  
BRANCH  38  39
HETATM   39  N   UNL     1     -10.405   5.177  70.060  1.00  0.00    -0.289 NA 
HETATM   40  C   UNL     1      -9.936   4.339  71.056  1.00  0.00    -0.153 A  
HETATM   41  C   UNL     1     -11.042   3.729  71.607  1.00  0.00     1.450 A  
HETATM   42  C   UNL     1     -12.128   4.318  70.947  1.00  0.00     7.506 A  
HETATM   43  N   UNL     1     -11.737   5.302  70.152  1.00  0.00     1.931 NA 
HETATM   44  C   UNL     1     -13.574   3.985  70.999  1.00  0.00    15.538 C  
ENDBRANCH  38  39
ENDBRANCH  27  32
ENDBRANCH  26  27
ENDBRANCH  23  26
ENDBRANCH  14  17
ENDBRANCH  10  11
ENDBRANCH   6  10
ENDBRANCH   4   6
ENDBRANCH   3   4
ENDBRANCH   2   3
TORSDOF 10
ENDMDL
