MODEL        1
REMARK 921   NORMALIZED FREE ENERGY PREDICTED BY IDOCK:   -7.95 KCAL/MOL
REMARK 922        TOTAL FREE ENERGY PREDICTED BY IDOCK:   -8.71 KCAL/MOL
REMARK 923 INTER-LIGAND FREE ENERGY PREDICTED BY IDOCK:   -8.42 KCAL/MOL
REMARK 924 INTRA-LIGAND FREE ENERGY PREDICTED BY IDOCK:   -0.29 KCAL/MOL
REMARK 927      BINDING AFFINITY PREDICTED BY RF-SCORE:    0.00 PKD
ROOT
HETATM    1  C   UNL     1     -12.472  13.981  65.628  1.00  0.00    -0.504 C  
HETATM    2  N   UNL     1     -11.688  13.978  66.854  1.00  0.00    -0.388 N  
HETATM    3  C   UNL     1     -11.136  15.197  67.353  1.00  0.00    -0.325 A  
HETATM    4  C   UNL     1     -10.924  15.446  68.726  1.00  0.00    -0.264 A  
HETATM    5  C   UNL     1     -10.317  16.644  69.149  1.00  0.00    -0.326 A  
HETATM    6  C   UNL     1     -11.381  14.500  69.792  1.00  0.00    -0.260 C  
HETATM    7  N   UNL     1     -11.167  13.227  69.765  1.00  0.00    -0.483 NA 
HETATM    8  C   UNL     1      -9.981  17.623  68.221  1.00  0.00    -0.339 A  
HETATM    9  O   UNL     1     -11.940  11.687  66.958  1.00  0.00    -0.593 OA 
HETATM   10  H   UNL     1      -9.589  10.959  68.110  1.00  0.00     0.000 HD 
HETATM   11  H   UNL     1     -11.485  12.630  70.528  1.00  0.00     0.000 HD 
HETATM   12  C   UNL     1     -10.216  17.416  66.870  1.00  0.00    -0.322 A  
HETATM   13 CL   UNL     1      -9.295  19.108  68.753  1.00  0.00    -0.422 Cl 
HETATM   14  C   UNL     1     -10.464  12.665  68.624  1.00  0.00    -0.205 C  
HETATM   15  C   UNL     1     -10.780  16.210  66.440  1.00  0.00    -0.211 A  
HETATM   16  O   UNL     1     -10.049  11.326  68.856  1.00  0.00    -0.204 OA 
HETATM   17  C   UNL     1     -11.440  12.721  67.419  1.00  0.00    -0.340 C  
ENDROOT
BRANCH   6  18
HETATM   18  C   UNL     1     -12.116  15.042  70.988  1.00  0.00    -0.381 A  
HETATM   19  C   UNL     1     -11.445  15.579  72.093  1.00  0.00    -0.512 A  
HETATM   20  C   UNL     1     -13.561  15.959  73.205  1.00  0.00    -0.580 A  
HETATM   21  C   UNL     1     -12.168  16.024  73.204  1.00  0.00    -0.636 A  
HETATM   22  C   UNL     1     -14.237  15.463  72.091  1.00  0.00    -0.660 A  
HETATM   23  C   UNL     1     -13.518  15.009  70.985  1.00  0.00    -0.461 A  
ENDBRANCH   6  18
TORSDOF 1
ENDMDL
MODEL        2
REMARK 921   NORMALIZED FREE ENERGY PREDICTED BY IDOCK:   -7.93 KCAL/MOL
REMARK 922        TOTAL FREE ENERGY PREDICTED BY IDOCK:   -8.68 KCAL/MOL
REMARK 923 INTER-LIGAND FREE ENERGY PREDICTED BY IDOCK:   -8.20 KCAL/MOL
REMARK 924 INTRA-LIGAND FREE ENERGY PREDICTED BY IDOCK:   -0.47 KCAL/MOL
REMARK 927      BINDING AFFINITY PREDICTED BY RF-SCORE:    0.00 PKD
ROOT
HETATM    1  C   UNL     1      -8.496  12.481  67.692  1.00  0.00    -0.171 C  
HETATM    2  N   UNL     1      -9.917  12.677  67.938  1.00  0.00    -0.221 N  
HETATM    3  C   UNL     1     -10.582  11.906  68.940  1.00  0.00    -0.173 A  
HETATM    4  C   UNL     1     -11.691  12.381  69.673  1.00  0.00    -0.377 A  
HETATM    5  C   UNL     1     -12.342  11.547  70.602  1.00  0.00    -0.457 A  
HETATM    6  C   UNL     1     -12.186  13.788  69.555  1.00  0.00    -0.293 C  
HETATM    7  N   UNL     1     -12.397  14.386  68.430  1.00  0.00    -0.599 NA 
HETATM    8  C   UNL     1     -11.857  10.269  70.855  1.00  0.00    -0.377 A  
HETATM    9  O   UNL     1      -9.957  14.220  66.223  1.00  0.00    -0.284 OA 
HETATM   10  H   UNL     1     -12.469  13.852  65.254  1.00  0.00     0.000 HD 
HETATM   11  H   UNL     1     -12.753  15.341  68.407  1.00  0.00     0.000 HD 
HETATM   12  C   UNL     1     -10.745   9.796  70.174  1.00  0.00    -0.339 A  
HETATM   13 CL   UNL     1     -12.624   9.281  72.035  1.00  0.00    -0.453 Cl 
HETATM   14  C   UNL     1     -12.114  13.666  67.198  1.00  0.00    -0.362 C  
HETATM   15  C   UNL     1     -10.121  10.605  69.218  1.00  0.00    -0.227 A  
HETATM   16  O   UNL     1     -12.653  14.322  66.059  1.00  0.00    -0.447 OA 
HETATM   17  C   UNL     1     -10.570  13.567  67.077  1.00  0.00    -0.269 C  
ENDROOT
BRANCH   6  18
HETATM   18  C   UNL     1     -12.487  14.568  70.806  1.00  0.00    -0.420 A  
HETATM   19  C   UNL     1     -11.473  15.099  71.614  1.00  0.00    -0.445 A  
HETATM   20  C   UNL     1     -13.134  15.943  73.159  1.00  0.00    -0.673 A  
HETATM   21  C   UNL     1     -11.799  15.774  72.794  1.00  0.00    -0.584 A  
HETATM   22  C   UNL     1     -14.149  15.452  72.339  1.00  0.00    -0.645 A  
HETATM   23  C   UNL     1     -13.827  14.771  71.164  1.00  0.00    -0.388 A  
ENDBRANCH   6  18
TORSDOF 1
ENDMDL
MODEL        3
REMARK 921   NORMALIZED FREE ENERGY PREDICTED BY IDOCK:   -7.92 KCAL/MOL
REMARK 922        TOTAL FREE ENERGY PREDICTED BY IDOCK:   -8.67 KCAL/MOL
REMARK 923 INTER-LIGAND FREE ENERGY PREDICTED BY IDOCK:   -8.37 KCAL/MOL
REMARK 924 INTRA-LIGAND FREE ENERGY PREDICTED BY IDOCK:   -0.30 KCAL/MOL
REMARK 927      BINDING AFFINITY PREDICTED BY RF-SCORE:    0.00 PKD
ROOT
HETATM    1  C   UNL     1     -12.490  13.880  65.573  1.00  0.00    -0.511 C  
HETATM    2  N   UNL     1     -11.713  13.895  66.803  1.00  0.00    -0.376 N  
HETATM    3  C   UNL     1     -11.207  15.129  67.314  1.00  0.00    -0.324 A  
HETATM    4  C   UNL     1     -11.011  15.375  68.690  1.00  0.00    -0.273 A  
HETATM    5  C   UNL     1     -10.449  16.590  69.124  1.00  0.00    -0.317 A  
HETATM    6  C   UNL     1     -11.441  14.406  69.746  1.00  0.00    -0.276 C  
HETATM    7  N   UNL     1     -11.183  13.142  69.712  1.00  0.00    -0.488 NA 
HETATM    8  C   UNL     1     -10.143  17.587  68.206  1.00  0.00    -0.346 A  
HETATM    9  O   UNL     1     -11.886  11.595  66.890  1.00  0.00    -0.577 OA 
HETATM   10  H   UNL     1      -9.517  10.942  68.050  1.00  0.00     0.000 HD 
HETATM   11  H   UNL     1     -11.484  12.528  70.469  1.00  0.00     0.000 HD 
HETATM   12  C   UNL     1     -10.363  17.381  66.851  1.00  0.00    -0.317 A  
HETATM   13 CL   UNL     1      -9.512  19.091  68.752  1.00  0.00    -0.429 Cl 
HETATM   14  C   UNL     1     -10.454  12.612  68.570  1.00  0.00    -0.234 C  
HETATM   15  C   UNL     1     -10.882  16.160  66.410  1.00  0.00    -0.131 A  
HETATM   16  O   UNL     1      -9.994  11.287  68.796  1.00  0.00    -0.205 OA 
HETATM   17  C   UNL     1     -11.425  12.643  67.360  1.00  0.00    -0.337 C  
ENDROOT
BRANCH   6  18
HETATM   18  C   UNL     1     -12.201  14.913  70.942  1.00  0.00    -0.389 A  
HETATM   19  C   UNL     1     -13.601  14.925  70.984  1.00  0.00    -0.402 A  
HETATM   20  C   UNL     1     -13.535  15.944  73.178  1.00  0.00    -0.650 A  
HETATM   21  C   UNL     1     -14.264  15.452  72.096  1.00  0.00    -0.660 A  
HETATM   22  C   UNL     1     -12.143  15.897  73.160  1.00  0.00    -0.611 A  
HETATM   23  C   UNL     1     -11.477  15.380  72.048  1.00  0.00    -0.521 A  
ENDBRANCH   6  18
TORSDOF 1
ENDMDL
MODEL        4
REMARK 921   NORMALIZED FREE ENERGY PREDICTED BY IDOCK:   -7.61 KCAL/MOL
REMARK 922        TOTAL FREE ENERGY PREDICTED BY IDOCK:   -8.34 KCAL/MOL
REMARK 923 INTER-LIGAND FREE ENERGY PREDICTED BY IDOCK:   -7.86 KCAL/MOL
REMARK 924 INTRA-LIGAND FREE ENERGY PREDICTED BY IDOCK:   -0.48 KCAL/MOL
REMARK 927      BINDING AFFINITY PREDICTED BY RF-SCORE:    0.00 PKD
ROOT
HETATM    1  C   UNL     1      -9.911  11.367  66.061  1.00  0.00    -0.231 C  
HETATM    2  N   UNL     1     -10.647  12.614  65.920  1.00  0.00    -0.268 N  
HETATM    3  C   UNL     1     -11.019  13.359  67.081  1.00  0.00    -0.280 A  
HETATM    4  C   UNL     1     -11.149  14.765  67.089  1.00  0.00    -0.333 A  
HETATM    5  C   UNL     1     -11.581  15.434  68.249  1.00  0.00    -0.361 A  
HETATM    6  C   UNL     1     -10.782  15.611  65.910  1.00  0.00    -0.329 C  
HETATM    7  N   UNL     1     -11.159  15.364  64.701  1.00  0.00    -0.646 NA 
HETATM    8  C   UNL     1     -11.819  14.724  69.420  1.00  0.00    -0.323 A  
HETATM    9  O   UNL     1     -10.690  12.282  63.637  1.00  0.00    -0.403 OA 
HETATM   10  H   UNL     1     -13.074  13.415  62.994  1.00  0.00     0.000 HD 
HETATM   11  H   UNL     1     -10.896  15.985  63.936  1.00  0.00     0.000 HD 
HETATM   12  C   UNL     1     -11.659  13.345  69.445  1.00  0.00    -0.365 A  
HETATM   13 CL   UNL     1     -12.288  15.558  70.849  1.00  0.00    -0.431 Cl 
HETATM   14  C   UNL     1     -11.969  14.181  64.454  1.00  0.00    -0.457 C  
HETATM   15  C   UNL     1     -11.271  12.670  68.283  1.00  0.00    -0.312 A  
HETATM   16  O   UNL     1     -12.545  14.188  63.155  1.00  0.00    -0.686 OA 
HETATM   17  C   UNL     1     -11.036  12.952  64.619  1.00  0.00    -0.332 C  
ENDROOT
BRANCH   6  18
HETATM   18  C   UNL     1      -9.942  16.841  66.123  1.00  0.00    -0.345 A  
HETATM   19  C   UNL     1     -10.491  18.130  66.103  1.00  0.00    -0.377 A  
HETATM   20  C   UNL     1      -8.293  19.081  66.453  1.00  0.00    -0.315 A  
HETATM   21  C   UNL     1      -9.664  19.246  66.255  1.00  0.00    -0.430 A  
HETATM   22  C   UNL     1      -7.747  17.801  66.514  1.00  0.00    -0.298 A  
HETATM   23  C   UNL     1      -8.568  16.684  66.354  1.00  0.00    -0.345 A  
ENDBRANCH   6  18
TORSDOF 1
ENDMDL
MODEL        5
REMARK 921   NORMALIZED FREE ENERGY PREDICTED BY IDOCK:   -7.30 KCAL/MOL
REMARK 922        TOTAL FREE ENERGY PREDICTED BY IDOCK:   -8.02 KCAL/MOL
REMARK 923 INTER-LIGAND FREE ENERGY PREDICTED BY IDOCK:   -7.53 KCAL/MOL
REMARK 924 INTRA-LIGAND FREE ENERGY PREDICTED BY IDOCK:   -0.49 KCAL/MOL
REMARK 927      BINDING AFFINITY PREDICTED BY RF-SCORE:    0.00 PKD
ROOT
HETATM    1  C   UNL     1     -10.944  11.018  68.301  1.00  0.00    -0.235 C  
HETATM    2  N   UNL     1     -11.484  12.343  68.037  1.00  0.00    -0.299 N  
HETATM    3  C   UNL     1     -11.840  13.199  69.124  1.00  0.00    -0.314 A  
HETATM    4  C   UNL     1     -11.773  14.607  69.054  1.00  0.00    -0.339 A  
HETATM    5  C   UNL     1     -12.198  15.397  70.139  1.00  0.00    -0.407 A  
HETATM    6  C   UNL     1     -11.198  15.325  67.873  1.00  0.00    -0.331 C  
HETATM    7  N   UNL     1     -11.508  15.060  66.648  1.00  0.00    -0.302 NA 
HETATM    8  C   UNL     1     -12.626  14.795  71.317  1.00  0.00    -0.334 A  
HETATM    9  O   UNL     1     -11.390  11.885  65.778  1.00  0.00    -0.332 OA 
HETATM   10  H   UNL     1     -13.534  13.290  64.875  1.00  0.00     0.000 HD 
HETATM   11  H   UNL     1     -11.100  15.593  65.880  1.00  0.00     0.000 HD 
HETATM   12  C   UNL     1     -12.663  13.412  71.421  1.00  0.00    -0.411 A  
HETATM   13 CL   UNL     1     -13.087  15.768  72.658  1.00  0.00    -0.543 Cl 
HETATM   14  C   UNL     1     -12.453  13.985  66.388  1.00  0.00    -0.355 C  
HETATM   15  C   UNL     1     -12.282  12.623  70.331  1.00  0.00    -0.368 A  
HETATM   16  O   UNL     1     -12.917  13.992  65.045  1.00  0.00    -0.728 OA 
HETATM   17  C   UNL     1     -11.717  12.653  66.692  1.00  0.00    -0.398 C  
ENDROOT
BRANCH   6  18
HETATM   18  C   UNL     1     -10.214  16.440  68.099  1.00  0.00    -0.262 A  
HETATM   19  C   UNL     1     -10.563  17.786  67.929  1.00  0.00    -0.389 A  
HETATM   20  C   UNL     1      -8.299  18.451  68.468  1.00  0.00    -0.344 A  
HETATM   21  C   UNL     1      -9.602  18.787  68.101  1.00  0.00    -0.373 A  
HETATM   22  C   UNL     1      -7.956  17.117  68.679  1.00  0.00    -0.265 A  
HETATM   23  C   UNL     1      -8.911  16.115  68.499  1.00  0.00    -0.200 A  
ENDBRANCH   6  18
TORSDOF 1
ENDMDL
MODEL        6
REMARK 921   NORMALIZED FREE ENERGY PREDICTED BY IDOCK:   -7.28 KCAL/MOL
REMARK 922        TOTAL FREE ENERGY PREDICTED BY IDOCK:   -8.00 KCAL/MOL
REMARK 923 INTER-LIGAND FREE ENERGY PREDICTED BY IDOCK:   -7.51 KCAL/MOL
REMARK 924 INTRA-LIGAND FREE ENERGY PREDICTED BY IDOCK:   -0.49 KCAL/MOL
REMARK 927      BINDING AFFINITY PREDICTED BY RF-SCORE:    0.00 PKD
ROOT
HETATM    1  C   UNL     1     -10.928  11.046  68.191  1.00  0.00    -0.247 C  
HETATM    2  N   UNL     1     -11.445  12.377  67.912  1.00  0.00    -0.305 N  
HETATM    3  C   UNL     1     -11.779  13.254  68.989  1.00  0.00    -0.322 A  
HETATM    4  C   UNL     1     -11.686  14.660  68.898  1.00  0.00    -0.343 A  
HETATM    5  C   UNL     1     -12.090  15.472  69.975  1.00  0.00    -0.391 A  
HETATM    6  C   UNL     1     -11.105  15.350  67.704  1.00  0.00    -0.316 C  
HETATM    7  N   UNL     1     -11.427  15.074  66.485  1.00  0.00    -0.293 NA 
HETATM    8  C   UNL     1     -12.522  14.895  71.163  1.00  0.00    -0.327 A  
HETATM    9  O   UNL     1     -11.373  11.886  65.658  1.00  0.00    -0.324 OA 
HETATM   10  H   UNL     1     -13.496  13.318  64.749  1.00  0.00     0.000 HD 
HETATM   11  H   UNL     1     -11.014  15.589  65.708  1.00  0.00     0.000 HD 
HETATM   12  C   UNL     1     -12.584  13.514  71.287  1.00  0.00    -0.427 A  
HETATM   13 CL   UNL     1     -12.956  15.894  72.493  1.00  0.00    -0.530 Cl 
HETATM   14  C   UNL     1     -12.393  14.013  66.245  1.00  0.00    -0.448 C  
HETATM   15  C   UNL     1     -12.224  12.703  70.206  1.00  0.00    -0.347 A  
HETATM   16  O   UNL     1     -12.865  14.011  64.905  1.00  0.00    -0.692 OA 
HETATM   17  C   UNL     1     -11.680  12.673  66.564  1.00  0.00    -0.400 C  
ENDROOT
BRANCH   6  18
HETATM   18  C   UNL     1     -10.099  16.450  67.909  1.00  0.00    -0.250 A  
HETATM   19  C   UNL     1      -8.786  16.192  68.323  1.00  0.00    -0.188 A  
HETATM   20  C   UNL     1      -8.314  18.565  68.339  1.00  0.00    -0.355 A  
HETATM   21  C   UNL     1      -7.901  17.250  68.549  1.00  0.00    -0.266 A  
HETATM   22  C   UNL     1      -9.607  18.828  67.889  1.00  0.00    -0.345 A  
HETATM   23  C   UNL     1     -10.495  17.774  67.671  1.00  0.00    -0.393 A  
ENDBRANCH   6  18
TORSDOF 1
ENDMDL
MODEL        7
REMARK 921   NORMALIZED FREE ENERGY PREDICTED BY IDOCK:   -7.15 KCAL/MOL
REMARK 922        TOTAL FREE ENERGY PREDICTED BY IDOCK:   -7.86 KCAL/MOL
REMARK 923 INTER-LIGAND FREE ENERGY PREDICTED BY IDOCK:   -7.41 KCAL/MOL
REMARK 924 INTRA-LIGAND FREE ENERGY PREDICTED BY IDOCK:   -0.45 KCAL/MOL
REMARK 927      BINDING AFFINITY PREDICTED BY RF-SCORE:    0.00 PKD
ROOT
HETATM    1  C   UNL     1     -10.573  10.434  67.124  1.00  0.00    -0.261 C  
HETATM    2  N   UNL     1     -11.267  11.713  67.146  1.00  0.00    -0.297 N  
HETATM    3  C   UNL     1     -11.662  12.291  68.391  1.00  0.00    -0.337 A  
HETATM    4  C   UNL     1     -11.753  13.683  68.603  1.00  0.00    -0.389 A  
HETATM    5  C   UNL     1     -12.209  14.188  69.835  1.00  0.00    -0.416 A  
HETATM    6  C   UNL     1     -11.318  14.681  67.576  1.00  0.00    -0.348 C  
HETATM    7  N   UNL     1     -11.656  14.628  66.332  1.00  0.00    -0.359 NA 
HETATM    8  C   UNL     1     -12.511  13.321  70.879  1.00  0.00    -0.342 A  
HETATM    9  O   UNL     1     -11.233  11.722  64.838  1.00  0.00    -0.309 OA 
HETATM   10  H   UNL     1     -13.559  13.016  64.292  1.00  0.00     0.000 HD 
HETATM   11  H   UNL     1     -11.347  15.345  65.676  1.00  0.00     0.000 HD 
HETATM   12  C   UNL     1     -12.391  11.950  70.705  1.00  0.00    -0.405 A  
HETATM   13 CL   UNL     1     -13.010  13.950  72.399  1.00  0.00    -0.461 Cl 
HETATM   14  C   UNL     1     -12.489  13.521  65.885  1.00  0.00    -0.429 C  
HETATM   15  C   UNL     1     -11.979  11.441  69.469  1.00  0.00    -0.409 A  
HETATM   16  O   UNL     1     -13.015  13.738  64.584  1.00  0.00    -0.656 OA 
HETATM   17  C   UNL     1     -11.597  12.251  65.897  1.00  0.00    -0.393 C  
ENDROOT
BRANCH   6  18
HETATM   18  C   UNL     1     -10.453  15.838  67.997  1.00  0.00    -0.270 A  
HETATM   19  C   UNL     1     -10.979  17.115  68.228  1.00  0.00    -0.229 A  
HETATM   20  C   UNL     1      -8.759  17.953  68.704  1.00  0.00    -0.270 A  
HETATM   21  C   UNL     1     -10.129  18.172  68.569  1.00  0.00    -0.413 A  
HETATM   22  C   UNL     1      -8.234  16.676  68.514  1.00  0.00    -0.231 A  
HETATM   23  C   UNL     1      -9.078  15.621  68.166  1.00  0.00    -0.181 A  
ENDBRANCH   6  18
TORSDOF 1
ENDMDL
MODEL        8
REMARK 921   NORMALIZED FREE ENERGY PREDICTED BY IDOCK:   -7.10 KCAL/MOL
REMARK 922        TOTAL FREE ENERGY PREDICTED BY IDOCK:   -7.80 KCAL/MOL
REMARK 923 INTER-LIGAND FREE ENERGY PREDICTED BY IDOCK:   -7.34 KCAL/MOL
REMARK 924 INTRA-LIGAND FREE ENERGY PREDICTED BY IDOCK:   -0.47 KCAL/MOL
REMARK 927      BINDING AFFINITY PREDICTED BY RF-SCORE:    0.00 PKD
ROOT
HETATM    1  C   UNL     1     -10.423  12.272  66.236  1.00  0.00    -0.238 C  
HETATM    2  N   UNL     1     -10.756  13.687  66.284  1.00  0.00    -0.283 N  
HETATM    3  C   UNL     1     -11.148  14.287  67.520  1.00  0.00    -0.298 A  
HETATM    4  C   UNL     1     -10.900  15.640  67.837  1.00  0.00    -0.306 A  
HETATM    5  C   UNL     1     -11.368  16.187  69.046  1.00  0.00    -0.340 A  
HETATM    6  C   UNL     1     -10.086  16.533  66.954  1.00  0.00    -0.281 C  
HETATM    7  N   UNL     1     -10.258  16.636  65.679  1.00  0.00    -0.557 NA 
HETATM    8  C   UNL     1     -12.022  15.382  69.972  1.00  0.00    -0.356 A  
HETATM    9  O   UNL     1     -10.413  13.803  64.005  1.00  0.00    -0.164 OA 
HETATM   10  H   UNL     1     -12.226  15.702  63.305  1.00  0.00     0.000 HD 
HETATM   11  H   UNL     1      -9.687  17.275  65.126  1.00  0.00     0.000 HD 
HETATM   12  C   UNL     1     -12.243  14.040  69.697  1.00  0.00    -0.383 A  
HETATM   13 CL   UNL     1     -12.538  16.046  71.472  1.00  0.00    -0.436 Cl 
HETATM   14  C   UNL     1     -11.283  15.820  65.048  1.00  0.00    -0.308 C  
HETATM   15  C   UNL     1     -11.817  13.501  68.479  1.00  0.00    -0.398 A  
HETATM   16  O   UNL     1     -11.556  16.236  63.717  1.00  0.00    -0.952 OA 
HETATM   17  C   UNL     1     -10.764  14.357  65.055  1.00  0.00    -0.423 C  
ENDROOT
BRANCH   6  18
HETATM   18  C   UNL     1      -9.013  17.391  67.567  1.00  0.00    -0.231 A  
HETATM   19  C   UNL     1      -9.031  18.789  67.470  1.00  0.00    -0.291 A  
HETATM   20  C   UNL     1      -6.934  18.908  68.673  1.00  0.00    -0.313 A  
HETATM   21  C   UNL     1      -7.986  19.542  68.012  1.00  0.00    -0.342 A  
HETATM   22  C   UNL     1      -6.930  17.521  68.808  1.00  0.00    -0.237 A  
HETATM   23  C   UNL     1      -7.968  16.765  68.261  1.00  0.00    -0.200 A  
ENDBRANCH   6  18
TORSDOF 1
ENDMDL
MODEL        9
REMARK 921   NORMALIZED FREE ENERGY PREDICTED BY IDOCK:   -7.08 KCAL/MOL
REMARK 922        TOTAL FREE ENERGY PREDICTED BY IDOCK:   -7.78 KCAL/MOL
REMARK 923 INTER-LIGAND FREE ENERGY PREDICTED BY IDOCK:   -7.31 KCAL/MOL
REMARK 924 INTRA-LIGAND FREE ENERGY PREDICTED BY IDOCK:   -0.47 KCAL/MOL
REMARK 927      BINDING AFFINITY PREDICTED BY RF-SCORE:    0.00 PKD
ROOT
HETATM    1  C   UNL     1     -11.381  16.544  64.744  1.00  0.00    -0.075 C  
HETATM    2  N   UNL     1     -11.112  15.176  65.159  1.00  0.00    -0.383 N  
HETATM    3  C   UNL     1     -10.054  14.903  66.079  1.00  0.00    -0.311 A  
HETATM    4  C   UNL     1     -10.078  13.824  66.988  1.00  0.00    -0.256 A  
HETATM    5  C   UNL     1      -8.974  13.572  67.825  1.00  0.00    -0.201 A  
HETATM    6  C   UNL     1     -11.277  12.945  67.158  1.00  0.00    -0.289 C  
HETATM    7  N   UNL     1     -11.927  12.416  66.176  1.00  0.00    -0.608 NA 
HETATM    8  C   UNL     1      -7.876  14.424  67.811  1.00  0.00    -0.160 A  
HETATM    9  O   UNL     1     -12.785  14.461  63.740  1.00  0.00    -0.785 OA 
HETATM   10  H   UNL     1     -11.817  12.039  62.978  1.00  0.00     0.000 HD 
HETATM   11  H   UNL     1     -12.728  11.809  66.348  1.00  0.00     0.000 HD 
HETATM   12  C   UNL     1      -7.848  15.514  66.952  1.00  0.00    -0.229 A  
HETATM   13 CL   UNL     1      -6.559  14.142  68.880  1.00  0.00    -0.093 Cl 
HETATM   14  C   UNL     1     -11.492  12.707  64.818  1.00  0.00    -0.321 C  
HETATM   15  C   UNL     1      -8.924  15.744  66.088  1.00  0.00    -0.372 A  
HETATM   16  O   UNL     1     -12.102  11.849  63.865  1.00  0.00    -0.420 OA 
HETATM   17  C   UNL     1     -11.873  14.184  64.529  1.00  0.00    -0.436 C  
ENDROOT
BRANCH   6  18
HETATM   18  C   UNL     1     -11.761  12.623  68.545  1.00  0.00    -0.372 A  
HETATM   19  C   UNL     1     -12.100  13.622  69.466  1.00  0.00    -0.368 A  
HETATM   20  C   UNL     1     -12.582  11.935  71.133  1.00  0.00    -0.390 A  
HETATM   21  C   UNL     1     -12.497  13.276  70.761  1.00  0.00    -0.403 A  
HETATM   22  C   UNL     1     -12.285  10.935  70.210  1.00  0.00    -0.432 A  
HETATM   23  C   UNL     1     -11.880  11.277  68.919  1.00  0.00    -0.413 A  
ENDBRANCH   6  18
TORSDOF 1
ENDMDL
MODEL       10
REMARK 921   NORMALIZED FREE ENERGY PREDICTED BY IDOCK:   -6.99 KCAL/MOL
REMARK 922        TOTAL FREE ENERGY PREDICTED BY IDOCK:   -7.69 KCAL/MOL
REMARK 923 INTER-LIGAND FREE ENERGY PREDICTED BY IDOCK:   -7.20 KCAL/MOL
REMARK 924 INTRA-LIGAND FREE ENERGY PREDICTED BY IDOCK:   -0.49 KCAL/MOL
REMARK 927      BINDING AFFINITY PREDICTED BY RF-SCORE:    0.00 PKD
ROOT
HETATM    1  C   UNL     1     -11.152  16.635  64.929  1.00  0.00    -0.129 C  
HETATM    2  N   UNL     1     -10.947  15.244  65.301  1.00  0.00    -0.372 N  
HETATM    3  C   UNL     1      -9.900  14.893  66.208  1.00  0.00    -0.294 A  
HETATM    4  C   UNL     1      -9.973  13.788  67.083  1.00  0.00    -0.243 A  
HETATM    5  C   UNL     1      -8.880  13.458  67.907  1.00  0.00    -0.194 A  
HETATM    6  C   UNL     1     -11.211  12.961  67.228  1.00  0.00    -0.288 C  
HETATM    7  N   UNL     1     -11.887  12.494  66.232  1.00  0.00    -0.505 NA 
HETATM    8  C   UNL     1      -7.744  14.259  67.917  1.00  0.00    -0.152 A  
HETATM    9  O   UNL     1     -12.654  14.653  63.865  1.00  0.00    -0.834 OA 
HETATM   10  H   UNL     1     -11.801  12.214  63.024  1.00  0.00     0.000 HD 
HETATM   11  H   UNL     1     -12.714  11.919  66.388  1.00  0.00     0.000 HD 
HETATM   12  C   UNL     1      -7.667  15.373  67.093  1.00  0.00    -0.246 A  
HETATM   13 CL   UNL     1      -6.439  13.882  68.972  1.00  0.00    -0.097 Cl 
HETATM   14  C   UNL     1     -11.442  12.808  64.883  1.00  0.00    -0.320 C  
HETATM   15  C   UNL     1      -8.733  15.680  66.240  1.00  0.00    -0.325 A  
HETATM   16  O   UNL     1     -12.092  12.009  63.905  1.00  0.00    -0.440 OA 
HETATM   17  C   UNL     1     -11.753  14.309  64.642  1.00  0.00    -0.430 C  
ENDROOT
BRANCH   6  18
HETATM   18  C   UNL     1     -11.707  12.617  68.607  1.00  0.00    -0.364 A  
HETATM   19  C   UNL     1     -11.741  11.299  69.079  1.00  0.00    -0.410 A  
HETATM   20  C   UNL     1     -12.716  12.060  71.159  1.00  0.00    -0.365 A  
HETATM   21  C   UNL     1     -12.257  11.022  70.348  1.00  0.00    -0.461 A  
HETATM   22  C   UNL     1     -12.648  13.378  70.711  1.00  0.00    -0.369 A  
HETATM   23  C   UNL     1     -12.141  13.656  69.441  1.00  0.00    -0.364 A  
ENDBRANCH   6  18
TORSDOF 1
ENDMDL
MODEL       11
REMARK 921   NORMALIZED FREE ENERGY PREDICTED BY IDOCK:   -6.92 KCAL/MOL
REMARK 922        TOTAL FREE ENERGY PREDICTED BY IDOCK:   -7.61 KCAL/MOL
REMARK 923 INTER-LIGAND FREE ENERGY PREDICTED BY IDOCK:   -7.45 KCAL/MOL
REMARK 924 INTRA-LIGAND FREE ENERGY PREDICTED BY IDOCK:   -0.16 KCAL/MOL
REMARK 927      BINDING AFFINITY PREDICTED BY RF-SCORE:    0.00 PKD
ROOT
HETATM    1  C   UNL     1     -12.389  14.966  64.414  1.00  0.00    -0.323 C  
HETATM    2  N   UNL     1     -11.789  14.226  65.513  1.00  0.00    -0.353 N  
HETATM    3  C   UNL     1     -10.852  14.868  66.380  1.00  0.00    -0.325 A  
HETATM    4  C   UNL     1     -10.690  14.519  67.738  1.00  0.00    -0.256 A  
HETATM    5  C   UNL     1      -9.705  15.147  68.523  1.00  0.00    -0.214 A  
HETATM    6  C   UNL     1     -11.581  13.532  68.424  1.00  0.00    -0.343 C  
HETATM    7  N   UNL     1     -11.883  12.375  67.937  1.00  0.00    -0.411 NA 
HETATM    8  C   UNL     1      -8.925  16.165  67.984  1.00  0.00    -0.185 A  
HETATM    9  O   UNL     1     -12.931  12.346  64.814  1.00  0.00    -0.786 OA 
HETATM   10  H   UNL     1     -11.174  10.389  65.501  1.00  0.00     0.000 HD 
HETATM   11  H   UNL     1     -12.480  11.731  68.456  1.00  0.00     0.000 HD 
HETATM   12  C   UNL     1      -9.094  16.550  66.662  1.00  0.00    -0.283 A  
HETATM   13 CL   UNL     1      -7.765  16.967  68.968  1.00  0.00    -0.231 Cl 
HETATM   14  C   UNL     1     -11.353  12.010  66.633  1.00  0.00    -0.340 C  
HETATM   15  C   UNL     1     -10.043  15.900  65.866  1.00  0.00    -0.376 A  
HETATM   16  O   UNL     1     -11.521  10.628  66.353  1.00  0.00     0.042 OA 
HETATM   17  C   UNL     1     -12.110  12.865  65.582  1.00  0.00    -0.458 C  
ENDROOT
BRANCH   6  18
HETATM   18  C   UNL     1     -12.153  13.872  69.773  1.00  0.00    -0.404 A  
HETATM   19  C   UNL     1     -12.439  12.890  70.730  1.00  0.00    -0.370 A  
HETATM   20  C   UNL     1     -13.288  14.587  72.232  1.00  0.00    -0.495 A  
HETATM   21  C   UNL     1     -13.017  13.249  71.951  1.00  0.00    -0.409 A  
HETATM   22  C   UNL     1     -12.969  15.574  71.301  1.00  0.00    -0.565 A  
HETATM   23  C   UNL     1     -12.400  15.218  70.077  1.00  0.00    -0.366 A  
ENDBRANCH   6  18
TORSDOF 1
ENDMDL
MODEL       12
REMARK 921   NORMALIZED FREE ENERGY PREDICTED BY IDOCK:   -6.85 KCAL/MOL
REMARK 922        TOTAL FREE ENERGY PREDICTED BY IDOCK:   -7.54 KCAL/MOL
REMARK 923 INTER-LIGAND FREE ENERGY PREDICTED BY IDOCK:   -7.33 KCAL/MOL
REMARK 924 INTRA-LIGAND FREE ENERGY PREDICTED BY IDOCK:   -0.21 KCAL/MOL
REMARK 927      BINDING AFFINITY PREDICTED BY RF-SCORE:    0.00 PKD
ROOT
HETATM    1  C   UNL     1      -7.144  15.696  67.669  1.00  0.00    -0.168 C  
HETATM    2  N   UNL     1      -8.524  16.115  67.868  1.00  0.00    -0.162 N  
HETATM    3  C   UNL     1      -9.591  15.350  67.304  1.00  0.00    -0.211 A  
HETATM    4  C   UNL     1     -10.873  15.264  67.889  1.00  0.00    -0.288 A  
HETATM    5  C   UNL     1     -11.900  14.544  67.250  1.00  0.00    -0.419 A  
HETATM    6  C   UNL     1     -11.188  15.864  69.223  1.00  0.00    -0.335 C  
HETATM    7  N   UNL     1     -10.875  17.069  69.562  1.00  0.00    -0.369 NA 
HETATM    8  C   UNL     1     -11.644  13.856  66.070  1.00  0.00    -0.349 A  
HETATM    9  O   UNL     1      -7.752  17.964  69.012  1.00  0.00    -0.228 OA 
HETATM   10  H   UNL     1      -9.650  19.799  68.368  1.00  0.00     0.000 HD 
HETATM   11  H   UNL     1     -11.130  17.435  70.479  1.00  0.00     0.000 HD 
HETATM   12  C   UNL     1     -10.380  13.895  65.499  1.00  0.00    -0.347 A  
HETATM   13 CL   UNL     1     -12.890  12.931  65.329  1.00  0.00    -0.397 Cl 
HETATM   14  C   UNL     1     -10.149  17.893  68.608  1.00  0.00    -0.394 C  
HETATM   15  C   UNL     1      -9.366  14.643  66.107  1.00  0.00    -0.265 A  
HETATM   16  O   UNL     1     -10.124  19.261  68.992  1.00  0.00    -0.415 OA 
HETATM   17  C   UNL     1      -8.704  17.332  68.534  1.00  0.00    -0.273 C  
ENDROOT
BRANCH   6  18
HETATM   18  C   UNL     1     -11.934  15.043  70.239  1.00  0.00    -0.362 A  
HETATM   19  C   UNL     1     -11.837  13.647  70.285  1.00  0.00    -0.336 A  
HETATM   20  C   UNL     1     -13.417  13.588  72.118  1.00  0.00    -0.631 A  
HETATM   21  C   UNL     1     -12.588  12.922  71.215  1.00  0.00    -0.352 A  
HETATM   22  C   UNL     1     -13.487  14.980  72.104  1.00  0.00    -0.508 A  
HETATM   23  C   UNL     1     -12.746  15.705  71.171  1.00  0.00    -0.525 A  
ENDBRANCH   6  18
TORSDOF 1
ENDMDL
MODEL       13
REMARK 921   NORMALIZED FREE ENERGY PREDICTED BY IDOCK:   -6.85 KCAL/MOL
REMARK 922        TOTAL FREE ENERGY PREDICTED BY IDOCK:   -7.54 KCAL/MOL
REMARK 923 INTER-LIGAND FREE ENERGY PREDICTED BY IDOCK:   -7.07 KCAL/MOL
REMARK 924 INTRA-LIGAND FREE ENERGY PREDICTED BY IDOCK:   -0.47 KCAL/MOL
REMARK 927      BINDING AFFINITY PREDICTED BY RF-SCORE:    0.00 PKD
ROOT
HETATM    1  C   UNL     1     -10.892  18.698  67.598  1.00  0.00    -0.294 C  
HETATM    2  N   UNL     1     -10.190  17.433  67.452  1.00  0.00    -0.316 N  
HETATM    3  C   UNL     1     -10.686  16.261  68.101  1.00  0.00    -0.322 A  
HETATM    4  C   UNL     1     -10.509  14.958  67.587  1.00  0.00    -0.249 A  
HETATM    5  C   UNL     1     -10.967  13.839  68.308  1.00  0.00    -0.269 A  
HETATM    6  C   UNL     1      -9.896  14.702  66.246  1.00  0.00    -0.300 C  
HETATM    7  N   UNL     1      -8.799  15.247  65.839  1.00  0.00    -0.374 NA 
HETATM    8  C   UNL     1     -11.658  14.010  69.502  1.00  0.00    -0.295 A  
HETATM    9  O   UNL     1      -8.589  18.516  66.191  1.00  0.00    -0.456 OA 
HETATM   10  H   UNL     1      -6.366  17.100  66.850  1.00  0.00     0.000 HD 
HETATM   11  H   UNL     1      -8.415  15.023  64.921  1.00  0.00     0.000 HD 
HETATM   12  C   UNL     1     -11.877  15.284  70.005  1.00  0.00    -0.365 A  
HETATM   13 CL   UNL     1     -12.265  12.640  70.344  1.00  0.00    -0.412 Cl 
HETATM   14  C   UNL     1      -8.124  16.189  66.718  1.00  0.00    -0.270 C  
HETATM   15  C   UNL     1     -11.386  16.398  69.315  1.00  0.00    -0.225 A  
HETATM   16  O   UNL     1      -6.807  16.485  66.275  1.00  0.00    -0.133 OA 
HETATM   17  C   UNL     1      -8.984  17.480  66.743  1.00  0.00    -0.256 C  
ENDROOT
BRANCH   6  18
HETATM   18  C   UNL     1     -10.566  13.737  65.305  1.00  0.00    -0.363 A  
HETATM   19  C   UNL     1     -10.102  12.428  65.127  1.00  0.00    -0.276 A  
HETATM   20  C   UNL     1     -11.828  12.032  63.477  1.00  0.00    -0.587 A  
HETATM   21  C   UNL     1     -10.726  11.583  64.204  1.00  0.00    -0.428 A  
HETATM   22  C   UNL     1     -12.319  13.320  63.678  1.00  0.00    -0.456 A  
HETATM   23  C   UNL     1     -11.693  14.169  64.592  1.00  0.00    -0.427 A  
ENDBRANCH   6  18
TORSDOF 1
ENDMDL
MODEL       14
REMARK 921   NORMALIZED FREE ENERGY PREDICTED BY IDOCK:   -6.80 KCAL/MOL
REMARK 922        TOTAL FREE ENERGY PREDICTED BY IDOCK:   -7.49 KCAL/MOL
REMARK 923 INTER-LIGAND FREE ENERGY PREDICTED BY IDOCK:   -7.10 KCAL/MOL
REMARK 924 INTRA-LIGAND FREE ENERGY PREDICTED BY IDOCK:   -0.39 KCAL/MOL
REMARK 927      BINDING AFFINITY PREDICTED BY RF-SCORE:    0.00 PKD
ROOT
HETATM    1  C   UNL     1      -9.638  20.716  67.332  1.00  0.00    -0.404 C  
HETATM    2  N   UNL     1      -9.610  19.272  67.154  1.00  0.00    -0.316 N  
HETATM    3  C   UNL     1      -8.696  18.476  67.911  1.00  0.00    -0.284 A  
HETATM    4  C   UNL     1      -8.964  17.144  68.292  1.00  0.00    -0.248 A  
HETATM    5  C   UNL     1      -7.995  16.392  68.984  1.00  0.00    -0.227 A  
HETATM    6  C   UNL     1     -10.287  16.490  68.047  1.00  0.00    -0.294 C  
HETATM    7  N   UNL     1     -10.906  16.520  66.915  1.00  0.00    -0.161 NA 
HETATM    8  C   UNL     1      -6.791  16.977  69.357  1.00  0.00    -0.179 A  
HETATM    9  O   UNL     1     -11.220  19.486  65.515  1.00  0.00    -0.286 OA 
HETATM   10  H   UNL     1     -10.538  17.447  63.852  1.00  0.00     0.000 HD 
HETATM   11  H   UNL     1     -11.799  16.041  66.796  1.00  0.00     0.000 HD 
HETATM   12  C   UNL     1      -6.523  18.298  69.026  1.00  0.00    -0.251 A  
HETATM   13 CL   UNL     1      -5.639  16.069  70.254  1.00  0.00    -0.167 Cl 
HETATM   14  C   UNL     1     -10.303  17.254  65.812  1.00  0.00    -0.234 C  
HETATM   15  C   UNL     1      -7.464  19.036  68.302  1.00  0.00    -0.325 A  
HETATM   16  O   UNL     1     -10.933  16.969  64.572  1.00  0.00    -1.031 OA 
HETATM   17  C   UNL     1     -10.438  18.763  66.147  1.00  0.00    -0.446 C  
ENDROOT
BRANCH   6  18
HETATM   18  C   UNL     1     -10.946  15.725  69.162  1.00  0.00    -0.265 A  
HETATM   19  C   UNL     1     -11.442  14.427  68.983  1.00  0.00    -0.314 A  
HETATM   20  C   UNL     1     -12.227  14.401  71.273  1.00  0.00    -0.429 A  
HETATM   21  C   UNL     1     -12.092  13.774  70.034  1.00  0.00    -0.416 A  
HETATM   22  C   UNL     1     -11.700  15.677  71.469  1.00  0.00    -0.504 A  
HETATM   23  C   UNL     1     -11.059  16.335  70.419  1.00  0.00    -0.322 A  
ENDBRANCH   6  18
TORSDOF 1
ENDMDL
MODEL       15
REMARK 921   NORMALIZED FREE ENERGY PREDICTED BY IDOCK:   -6.76 KCAL/MOL
REMARK 922        TOTAL FREE ENERGY PREDICTED BY IDOCK:   -7.44 KCAL/MOL
REMARK 923 INTER-LIGAND FREE ENERGY PREDICTED BY IDOCK:   -7.42 KCAL/MOL
REMARK 924 INTRA-LIGAND FREE ENERGY PREDICTED BY IDOCK:   -0.02 KCAL/MOL
REMARK 927      BINDING AFFINITY PREDICTED BY RF-SCORE:    0.00 PKD
ROOT
HETATM    1  C   UNL     1      -9.676  10.485  65.077  1.00  0.00    -0.292 C  
HETATM    2  N   UNL     1     -10.516  11.657  65.267  1.00  0.00    -0.263 N  
HETATM    3  C   UNL     1     -10.930  12.035  66.581  1.00  0.00    -0.287 A  
HETATM    4  C   UNL     1     -11.178  13.372  66.960  1.00  0.00    -0.328 A  
HETATM    5  C   UNL     1     -11.646  13.671  68.253  1.00  0.00    -0.374 A  
HETATM    6  C   UNL     1     -10.902  14.527  66.050  1.00  0.00    -0.310 C  
HETATM    7  N   UNL     1     -11.278  14.578  64.816  1.00  0.00    -0.445 NA 
HETATM    8  C   UNL     1     -11.804  12.659  69.193  1.00  0.00    -0.297 A  
HETATM    9  O   UNL     1     -10.568  11.938  62.977  1.00  0.00    -0.309 OA 
HETATM   10  H   UNL     1     -13.049  12.993  62.641  1.00  0.00     0.000 HD 
HETATM   11  H   UNL     1     -11.080  15.398  64.244  1.00  0.00     0.000 HD 
HETATM   12  C   UNL     1     -11.529  11.342  68.853  1.00  0.00    -0.363 A  
HETATM   13 CL   UNL     1     -12.318  13.042  70.788  1.00  0.00    -0.441 Cl 
HETATM   14  C   UNL     1     -11.989  13.437  64.259  1.00  0.00    -0.430 C  
HETATM   15  C   UNL     1     -11.105  11.034  67.556  1.00  0.00    -0.366 A  
HETATM   16  O   UNL     1     -12.584  13.738  63.005  1.00  0.00    -0.721 OA 
HETATM   17  C   UNL     1     -10.953  12.293  64.099  1.00  0.00    -0.363 C  
ENDROOT
BRANCH   6  18
HETATM   18  C   UNL     1     -10.166  15.725  66.586  1.00  0.00    -0.290 A  
HETATM   19  C   UNL     1     -10.679  16.510  67.626  1.00  0.00    -0.311 A  
HETATM   20  C   UNL     1      -8.763  17.981  67.472  1.00  0.00    -0.248 A  
HETATM   21  C   UNL     1      -9.984  17.644  68.057  1.00  0.00    -0.326 A  
HETATM   22  C   UNL     1      -8.227  17.181  66.465  1.00  0.00    -0.308 A  
HETATM   23  C   UNL     1      -8.924  16.054  66.026  1.00  0.00    -0.345 A  
ENDBRANCH   6  18
TORSDOF 1
ENDMDL
MODEL       16
REMARK 921   NORMALIZED FREE ENERGY PREDICTED BY IDOCK:   -6.57 KCAL/MOL
REMARK 922        TOTAL FREE ENERGY PREDICTED BY IDOCK:   -7.25 KCAL/MOL
REMARK 923 INTER-LIGAND FREE ENERGY PREDICTED BY IDOCK:   -7.54 KCAL/MOL
REMARK 924 INTRA-LIGAND FREE ENERGY PREDICTED BY IDOCK:    0.29 KCAL/MOL
REMARK 927      BINDING AFFINITY PREDICTED BY RF-SCORE:    0.00 PKD
ROOT
HETATM    1  C   UNL     1     -11.792  13.583  64.785  1.00  0.00    -0.381 C  
HETATM    2  N   UNL     1     -11.142  13.570  66.087  1.00  0.00    -0.290 N  
HETATM    3  C   UNL     1     -10.890  14.798  66.772  1.00  0.00    -0.316 A  
HETATM    4  C   UNL     1     -10.862  14.907  68.179  1.00  0.00    -0.256 A  
HETATM    5  C   UNL     1     -10.545  16.134  68.793  1.00  0.00    -0.279 A  
HETATM    6  C   UNL     1     -11.225  13.768  69.079  1.00  0.00    -0.272 C  
HETATM    7  N   UNL     1     -10.764  12.570  68.945  1.00  0.00    -0.367 NA 
HETATM    8  C   UNL     1     -10.321  17.267  68.019  1.00  0.00    -0.353 A  
HETATM    9  O   UNL     1     -10.950  11.277  65.921  1.00  0.00    -0.247 OA 
HETATM   10  H   UNL     1      -8.622  10.855  67.258  1.00  0.00     0.000 HD 
HETATM   11  H   UNL     1     -11.030  11.833  69.598  1.00  0.00     0.000 HD 
HETATM   12  C   UNL     1     -10.381  17.190  66.635  1.00  0.00    -0.310 A  
HETATM   13 CL   UNL     1      -9.993  18.773  68.780  1.00  0.00    -0.436 Cl 
HETATM   14  C   UNL     1      -9.858  12.293  67.841  1.00  0.00    -0.201 C  
HETATM   15  C   UNL     1     -10.654  15.964  66.019  1.00  0.00    -0.331 A  
HETATM   16  O   UNL     1      -9.214  11.035  67.979  1.00  0.00    -0.150 OA 
HETATM   17  C   UNL     1     -10.708  12.320  66.542  1.00  0.00    -0.246 C  
ENDROOT
BRANCH   6  18
HETATM   18  C   UNL     1     -12.162  14.011  70.231  1.00  0.00    -0.430 A  
HETATM   19  C   UNL     1     -12.592  12.977  71.072  1.00  0.00    -0.386 A  
HETATM   20  C   UNL     1     -13.967  14.541  72.306  1.00  0.00    -0.600 A  
HETATM   21  C   UNL     1     -13.503  13.242  72.099  1.00  0.00    -0.655 A  
HETATM   22  C   UNL     1     -13.511  15.581  71.499  1.00  0.00    -0.582 A  
HETATM   23  C   UNL     1     -12.609  15.319  70.467  1.00  0.00    -0.450 A  
ENDBRANCH   6  18
TORSDOF 1
ENDMDL
MODEL       17
REMARK 921   NORMALIZED FREE ENERGY PREDICTED BY IDOCK:   -6.55 KCAL/MOL
REMARK 922        TOTAL FREE ENERGY PREDICTED BY IDOCK:   -7.23 KCAL/MOL
REMARK 923 INTER-LIGAND FREE ENERGY PREDICTED BY IDOCK:   -6.98 KCAL/MOL
REMARK 924 INTRA-LIGAND FREE ENERGY PREDICTED BY IDOCK:   -0.25 KCAL/MOL
REMARK 927      BINDING AFFINITY PREDICTED BY RF-SCORE:    0.00 PKD
ROOT
HETATM    1  C   UNL     1      -9.836  16.809  69.578  1.00  0.00     0.004 C  
HETATM    2  N   UNL     1     -10.977  15.910  69.672  1.00  0.00    -0.290 N  
HETATM    3  C   UNL     1     -11.305  15.055  68.576  1.00  0.00    -0.303 A  
HETATM    4  C   UNL     1     -11.919  13.794  68.735  1.00  0.00    -0.400 A  
HETATM    5  C   UNL     1     -12.274  13.026  67.610  1.00  0.00    -0.104 A  
HETATM    6  C   UNL     1     -12.162  13.185  70.081  1.00  0.00    -0.290 C  
HETATM    7  N   UNL     1     -12.701  13.816  71.070  1.00  0.00    -0.346 NA 
HETATM    8  C   UNL     1     -11.963  13.473  66.331  1.00  0.00    -0.414 A  
HETATM    9  O   UNL     1     -11.434  16.777  71.761  1.00  0.00    -0.191 OA 
HETATM   10  H   UNL     1     -14.145  16.598  71.814  1.00  0.00     0.000 HD 
HETATM   11  H   UNL     1     -12.861  13.347  71.961  1.00  0.00     0.000 HD 
HETATM   12  C   UNL     1     -11.325  14.692  66.154  1.00  0.00    -0.350 A  
HETATM   13 CL   UNL     1     -12.348  12.500  64.966  1.00  0.00    -0.540 Cl 
HETATM   14  C   UNL     1     -13.073  15.210  70.885  1.00  0.00    -0.441 C  
HETATM   15  C   UNL     1     -11.008  15.479  67.266  1.00  0.00    -0.303 A  
HETATM   16  O   UNL     1     -13.901  15.687  71.935  1.00  0.00    -0.471 OA 
HETATM   17  C   UNL     1     -11.754  16.026  70.830  1.00  0.00    -0.402 C  
ENDROOT
BRANCH   6  18
HETATM   18  C   UNL     1     -11.788  11.747  70.315  1.00  0.00    -0.382 A  
HETATM   19  C   UNL     1     -10.690  11.151  69.681  1.00  0.00    -0.144 A  
HETATM   20  C   UNL     1     -11.207   9.042  70.750  1.00  0.00    -0.329 A  
HETATM   21  C   UNL     1     -10.410   9.797  69.890  1.00  0.00    -0.291 A  
HETATM   22  C   UNL     1     -12.276   9.639  71.415  1.00  0.00    -0.471 A  
HETATM   23  C   UNL     1     -12.564  10.987  71.202  1.00  0.00    -0.522 A  
ENDBRANCH   6  18
TORSDOF 1
ENDMDL
MODEL       18
REMARK 921   NORMALIZED FREE ENERGY PREDICTED BY IDOCK:   -6.55 KCAL/MOL
REMARK 922        TOTAL FREE ENERGY PREDICTED BY IDOCK:   -7.23 KCAL/MOL
REMARK 923 INTER-LIGAND FREE ENERGY PREDICTED BY IDOCK:   -6.73 KCAL/MOL
REMARK 924 INTRA-LIGAND FREE ENERGY PREDICTED BY IDOCK:   -0.49 KCAL/MOL
REMARK 927      BINDING AFFINITY PREDICTED BY RF-SCORE:    0.00 PKD
ROOT
HETATM    1  C   UNL     1      -9.631  17.009  67.022  1.00  0.00    -0.254 C  
HETATM    2  N   UNL     1     -10.617  16.038  67.472  1.00  0.00    -0.308 N  
HETATM    3  C   UNL     1     -11.111  15.049  66.566  1.00  0.00    -0.329 A  
HETATM    4  C   UNL     1     -11.536  13.768  66.977  1.00  0.00    -0.391 A  
HETATM    5  C   UNL     1     -12.072  12.861  66.043  1.00  0.00    -0.484 A  
HETATM    6  C   UNL     1     -11.385  13.286  68.386  1.00  0.00    -0.291 C  
HETATM    7  N   UNL     1     -11.731  13.973  69.423  1.00  0.00    -0.293 NA 
HETATM    8  C   UNL     1     -12.125  13.194  64.695  1.00  0.00    -0.408 A  
HETATM    9  O   UNL     1     -10.643  17.081  69.530  1.00  0.00    -0.316 OA 
HETATM   10  H   UNL     1     -13.229  16.695  70.272  1.00  0.00     0.000 HD 
HETATM   11  H   UNL     1     -11.623  13.589  70.361  1.00  0.00     0.000 HD 
HETATM   12  C   UNL     1     -11.676  14.435  64.264  1.00  0.00    -0.328 A  
HETATM   13 CL   UNL     1     -12.726  12.057  63.554  1.00  0.00    -0.648 Cl 
HETATM   14  C   UNL     1     -12.277  15.306  69.222  1.00  0.00    -0.184 C  
HETATM   15  C   UNL     1     -11.183  15.356  65.193  1.00  0.00    -0.354 A  
HETATM   16  O   UNL     1     -12.872  15.825  70.403  1.00  0.00    -0.401 OA 
HETATM   17  C   UNL     1     -11.100  16.213  68.774  1.00  0.00    -0.354 C  
ENDROOT
BRANCH   6  18
HETATM   18  C   UNL     1     -10.821  11.914  68.636  1.00  0.00    -0.273 A  
HETATM   19  C   UNL     1     -11.583  10.889  69.212  1.00  0.00    -0.388 A  
HETATM   20  C   UNL     1      -9.668   9.411  69.136  1.00  0.00    -0.165 A  
HETATM   21  C   UNL     1     -11.001   9.645  69.472  1.00  0.00    -0.233 A  
HETATM   22  C   UNL     1      -8.916  10.413  68.527  1.00  0.00    -0.139 A  
HETATM   23  C   UNL     1      -9.491  11.659  68.274  1.00  0.00    -0.191 A  
ENDBRANCH   6  18
TORSDOF 1
ENDMDL
MODEL       19
REMARK 921   NORMALIZED FREE ENERGY PREDICTED BY IDOCK:   -6.54 KCAL/MOL
REMARK 922        TOTAL FREE ENERGY PREDICTED BY IDOCK:   -7.21 KCAL/MOL
REMARK 923 INTER-LIGAND FREE ENERGY PREDICTED BY IDOCK:   -6.71 KCAL/MOL
REMARK 924 INTRA-LIGAND FREE ENERGY PREDICTED BY IDOCK:   -0.50 KCAL/MOL
REMARK 927      BINDING AFFINITY PREDICTED BY RF-SCORE:    0.00 PKD
ROOT
HETATM    1  C   UNL     1      -9.806  16.924  66.944  1.00  0.00    -0.276 C  
HETATM    2  N   UNL     1     -10.706  15.885  67.418  1.00  0.00    -0.316 N  
HETATM    3  C   UNL     1     -11.144  14.857  66.528  1.00  0.00    -0.341 A  
HETATM    4  C   UNL     1     -11.463  13.549  66.952  1.00  0.00    -0.374 A  
HETATM    5  C   UNL     1     -11.949  12.600  66.034  1.00  0.00    -0.478 A  
HETATM    6  C   UNL     1     -11.245  13.088  68.359  1.00  0.00    -0.269 C  
HETATM    7  N   UNL     1     -11.620  13.753  69.401  1.00  0.00    -0.292 NA 
HETATM    8  C   UNL     1     -12.056  12.921  64.686  1.00  0.00    -0.418 A  
HETATM    9  O   UNL     1     -10.767  16.934  69.473  1.00  0.00    -0.326 OA 
HETATM   10  H   UNL     1     -13.299  16.359  70.273  1.00  0.00     0.000 HD 
HETATM   11  H   UNL     1     -11.463  13.383  70.339  1.00  0.00     0.000 HD 
HETATM   12  C   UNL     1     -11.711  14.189  64.240  1.00  0.00    -0.365 A  
HETATM   13 CL   UNL     1     -12.594  11.736  63.562  1.00  0.00    -0.595 Cl 
HETATM   14  C   UNL     1     -12.268  15.040  69.208  1.00  0.00    -0.179 C  
HETATM   15  C   UNL     1     -11.268  15.150  65.156  1.00  0.00    -0.392 A  
HETATM   16  O   UNL     1     -12.875  15.518  70.399  1.00  0.00    -0.410 OA 
HETATM   17  C   UNL     1     -11.173  16.030  68.730  1.00  0.00    -0.360 C  
ENDROOT
BRANCH   6  18
HETATM   18  C   UNL     1     -10.574  11.764  68.603  1.00  0.00    -0.250 A  
HETATM   19  C   UNL     1      -9.242  11.527  68.242  1.00  0.00    -0.186 A  
HETATM   20  C   UNL     1      -9.427   9.244  69.024  1.00  0.00    -0.155 A  
HETATM   21  C   UNL     1      -8.676  10.264  68.441  1.00  0.00    -0.129 A  
HETATM   22  C   UNL     1     -10.740   9.484  69.422  1.00  0.00    -0.244 A  
HETATM   23  C   UNL     1     -11.311  10.741  69.216  1.00  0.00    -0.352 A  
ENDBRANCH   6  18
TORSDOF 1
ENDMDL
MODEL       20
REMARK 921   NORMALIZED FREE ENERGY PREDICTED BY IDOCK:   -6.52 KCAL/MOL
REMARK 922        TOTAL FREE ENERGY PREDICTED BY IDOCK:   -7.19 KCAL/MOL
REMARK 923 INTER-LIGAND FREE ENERGY PREDICTED BY IDOCK:   -6.81 KCAL/MOL
REMARK 924 INTRA-LIGAND FREE ENERGY PREDICTED BY IDOCK:   -0.39 KCAL/MOL
REMARK 927      BINDING AFFINITY PREDICTED BY RF-SCORE:    0.00 PKD
ROOT
HETATM    1  C   UNL     1     -13.400  14.228  70.854  1.00  0.00    -0.208 C  
HETATM    2  N   UNL     1     -12.196  13.935  70.092  1.00  0.00    -0.345 N  
HETATM    3  C   UNL     1     -11.819  12.579  69.844  1.00  0.00    -0.303 A  
HETATM    4  C   UNL     1     -11.113  12.171  68.693  1.00  0.00    -0.297 A  
HETATM    5  C   UNL     1     -10.716  10.829  68.538  1.00  0.00    -0.245 A  
HETATM    6  C   UNL     1     -10.808  13.106  67.565  1.00  0.00    -0.255 C  
HETATM    7  N   UNL     1     -10.305  14.284  67.722  1.00  0.00    -0.237 NA 
HETATM    8  C   UNL     1     -11.075   9.879  69.487  1.00  0.00    -0.217 A  
HETATM    9  O   UNL     1     -11.777  16.200  69.962  1.00  0.00    -0.307 OA 
HETATM   10  H   UNL     1      -9.060  16.226  69.971  1.00  0.00     0.000 HD 
HETATM   11  H   UNL     1     -10.100  14.875  66.917  1.00  0.00     0.000 HD 
HETATM   12  C   UNL     1     -11.803  10.252  70.608  1.00  0.00    -0.439 A  
HETATM   13 CL   UNL     1     -10.638   8.232  69.259  1.00  0.00    -0.218 Cl 
HETATM   14  C   UNL     1     -10.039  14.751  69.074  1.00  0.00    -0.232 C  
HETATM   15  C   UNL     1     -12.163  11.592  70.788  1.00  0.00    -0.463 A  
HETATM   16  O   UNL     1      -9.235  15.921  69.088  1.00  0.00    -0.225 OA 
HETATM   17  C   UNL     1     -11.415  15.039  69.732  1.00  0.00    -0.295 C  
ENDROOT
BRANCH   6  18
HETATM   18  C   UNL     1     -11.073  12.663  66.152  1.00  0.00    -0.327 A  
HETATM   19  C   UNL     1     -10.089  12.047  65.368  1.00  0.00    -0.285 A  
HETATM   20  C   UNL     1     -11.630  11.938  63.504  1.00  0.00    -0.537 A  
HETATM   21  C   UNL     1     -10.366  11.698  64.043  1.00  0.00    -0.405 A  
HETATM   22  C   UNL     1     -12.626  12.513  64.291  1.00  0.00    -0.485 A  
HETATM   23  C   UNL     1     -12.350  12.871  65.612  1.00  0.00    -0.482 A  
ENDBRANCH   6  18
TORSDOF 1
ENDMDL
MODEL       21
REMARK 921   NORMALIZED FREE ENERGY PREDICTED BY IDOCK:   -6.51 KCAL/MOL
REMARK 922        TOTAL FREE ENERGY PREDICTED BY IDOCK:   -7.18 KCAL/MOL
REMARK 923 INTER-LIGAND FREE ENERGY PREDICTED BY IDOCK:   -7.43 KCAL/MOL
REMARK 924 INTRA-LIGAND FREE ENERGY PREDICTED BY IDOCK:    0.25 KCAL/MOL
REMARK 927      BINDING AFFINITY PREDICTED BY RF-SCORE:    0.00 PKD
ROOT
HETATM    1  C   UNL     1      -8.328   9.946  69.767  1.00  0.00    -0.183 C  
HETATM    2  N   UNL     1      -9.643  10.430  69.377  1.00  0.00    -0.214 N  
HETATM    3  C   UNL     1     -10.795  10.061  70.137  1.00  0.00    -0.311 A  
HETATM    4  C   UNL     1     -11.935  10.884  70.263  1.00  0.00    -0.448 A  
HETATM    5  C   UNL     1     -13.064  10.435  70.974  1.00  0.00    -0.450 A  
HETATM    6  C   UNL     1     -11.984  12.276  69.715  1.00  0.00    -0.295 C  
HETATM    7  N   UNL     1     -11.618  12.592  68.518  1.00  0.00    -0.301 NA 
HETATM    8  C   UNL     1     -13.041   9.202  71.617  1.00  0.00    -0.369 A  
HETATM    9  O   UNL     1      -8.675  11.468  67.558  1.00  0.00    -0.139 OA 
HETATM   10  H   UNL     1     -10.677  11.283  65.730  1.00  0.00     0.000 HD 
HETATM   11  H   UNL     1     -11.690  13.555  68.189  1.00  0.00     0.000 HD 
HETATM   12  C   UNL     1     -11.916   8.394  71.538  1.00  0.00    -0.344 A  
HETATM   13 CL   UNL     1     -14.402   8.689  72.533  1.00  0.00    -0.437 Cl 
HETATM   14  C   UNL     1     -11.103  11.545  67.650  1.00  0.00    -0.266 C  
HETATM   15  C   UNL     1     -10.808   8.817  70.797  1.00  0.00    -0.282 A  
HETATM   16  O   UNL     1     -11.013  11.967  66.297  1.00  0.00    -0.274 OA 
HETATM   17  C   UNL     1      -9.697  11.165  68.186  1.00  0.00    -0.181 C  
ENDROOT
BRANCH   6  18
HETATM   18  C   UNL     1     -12.507  13.388  70.583  1.00  0.00    -0.385 A  
HETATM   19  C   UNL     1     -13.231  13.140  71.756  1.00  0.00    -0.494 A  
HETATM   20  C   UNL     1     -13.508  15.520  72.099  1.00  0.00    -0.587 A  
HETATM   21  C   UNL     1     -13.741  14.206  72.503  1.00  0.00    -0.626 A  
HETATM   22  C   UNL     1     -12.754  15.775  70.955  1.00  0.00    -0.453 A  
HETATM   23  C   UNL     1     -12.251  14.713  70.202  1.00  0.00    -0.391 A  
ENDBRANCH   6  18
TORSDOF 1
ENDMDL
MODEL       22
REMARK 921   NORMALIZED FREE ENERGY PREDICTED BY IDOCK:   -6.39 KCAL/MOL
REMARK 922        TOTAL FREE ENERGY PREDICTED BY IDOCK:   -7.05 KCAL/MOL
REMARK 923 INTER-LIGAND FREE ENERGY PREDICTED BY IDOCK:   -6.57 KCAL/MOL
REMARK 924 INTRA-LIGAND FREE ENERGY PREDICTED BY IDOCK:   -0.48 KCAL/MOL
REMARK 927      BINDING AFFINITY PREDICTED BY RF-SCORE:    0.00 PKD
ROOT
HETATM    1  C   UNL     1     -11.774  12.708  68.399  1.00  0.00    -0.333 C  
HETATM    2  N   UNL     1     -11.146  13.849  69.047  1.00  0.00    -0.262 N  
HETATM    3  C   UNL     1      -9.815  14.228  68.693  1.00  0.00    -0.228 A  
HETATM    4  C   UNL     1      -9.349  15.560  68.750  1.00  0.00    -0.209 A  
HETATM    5  C   UNL     1      -8.008  15.859  68.448  1.00  0.00    -0.147 A  
HETATM    6  C   UNL     1     -10.252  16.712  69.062  1.00  0.00    -0.301 C  
HETATM    7  N   UNL     1     -11.081  16.729  70.052  1.00  0.00    -0.410 NA 
HETATM    8  C   UNL     1      -7.144  14.855  68.026  1.00  0.00    -0.135 A  
HETATM    9  O   UNL     1     -13.034  14.094  70.351  1.00  0.00    -0.278 OA 
HETATM   10  H   UNL     1     -11.952  15.044  72.655  1.00  0.00     0.000 HD 
HETATM   11  H   UNL     1     -11.660  17.549  70.232  1.00  0.00     0.000 HD 
HETATM   12  C   UNL     1      -7.591  13.545  67.927  1.00  0.00    -0.151 A  
HETATM   13 CL   UNL     1      -5.523  15.240  67.603  1.00  0.00    -0.093 Cl 
HETATM   14  C   UNL     1     -11.171  15.554  70.904  1.00  0.00    -0.371 C  
HETATM   15  C   UNL     1      -8.913  13.235  68.266  1.00  0.00    -0.176 A  
HETATM   16  O   UNL     1     -11.894  15.812  72.099  1.00  0.00    -0.406 OA 
HETATM   17  C   UNL     1     -11.881  14.449  70.076  1.00  0.00    -0.315 C  
ENDROOT
BRANCH   6  18
HETATM   18  C   UNL     1     -10.192  17.945  68.203  1.00  0.00    -0.386 A  
HETATM   19  C   UNL     1      -9.807  19.191  68.714  1.00  0.00    -0.502 A  
HETATM   20  C   UNL     1     -10.182  20.206  66.549  1.00  0.00    -0.558 A  
HETATM   21  C   UNL     1      -9.816  20.320  67.890  1.00  0.00    -0.492 A  
HETATM   22  C   UNL     1     -10.528  18.962  66.024  1.00  0.00    -0.507 A  
HETATM   23  C   UNL     1     -10.529  17.835  66.847  1.00  0.00    -0.308 A  
ENDBRANCH   6  18
TORSDOF 1
ENDMDL
MODEL       23
REMARK 921   NORMALIZED FREE ENERGY PREDICTED BY IDOCK:   -6.38 KCAL/MOL
REMARK 922        TOTAL FREE ENERGY PREDICTED BY IDOCK:   -7.04 KCAL/MOL
REMARK 923 INTER-LIGAND FREE ENERGY PREDICTED BY IDOCK:   -6.89 KCAL/MOL
REMARK 924 INTRA-LIGAND FREE ENERGY PREDICTED BY IDOCK:   -0.15 KCAL/MOL
REMARK 927      BINDING AFFINITY PREDICTED BY RF-SCORE:    0.00 PKD
ROOT
HETATM    1  C   UNL     1      -8.997  10.130  64.878  1.00  0.00    -0.197 C  
HETATM    2  N   UNL     1     -10.141  10.907  65.329  1.00  0.00    -0.264 N  
HETATM    3  C   UNL     1     -10.548  10.851  66.697  1.00  0.00    -0.249 A  
HETATM    4  C   UNL     1     -11.169  11.929  67.365  1.00  0.00    -0.366 A  
HETATM    5  C   UNL     1     -11.603  11.788  68.696  1.00  0.00    -0.367 A  
HETATM    6  C   UNL     1     -11.336  13.274  66.731  1.00  0.00    -0.327 C  
HETATM    7  N   UNL     1     -11.804  13.457  65.542  1.00  0.00    -0.345 NA 
HETATM    8  C   UNL     1     -11.366  10.606  69.389  1.00  0.00    -0.284 A  
HETATM    9  O   UNL     1     -10.456  11.625  63.159  1.00  0.00    -0.366 OA 
HETATM   10  H   UNL     1     -13.161  11.877  63.084  1.00  0.00     0.000 HD 
HETATM   11  H   UNL     1     -11.915  14.398  65.165  1.00  0.00     0.000 HD 
HETATM   12  C   UNL     1     -10.723   9.547  68.764  1.00  0.00    -0.218 A  
HETATM   13 CL   UNL     1     -11.848  10.465  71.034  1.00  0.00    -0.454 Cl 
HETATM   14  C   UNL     1     -12.168  12.291  64.752  1.00  0.00    -0.365 C  
HETATM   15  C   UNL     1     -10.327   9.667  67.428  1.00  0.00    -0.306 A  
HETATM   16  O   UNL     1     -12.923  12.638  63.600  1.00  0.00    -0.704 OA 
HETATM   17  C   UNL     1     -10.844  11.597  64.334  1.00  0.00    -0.339 C  
ENDROOT
BRANCH   6  18
HETATM   18  C   UNL     1     -10.968  14.505  67.514  1.00  0.00    -0.297 A  
HETATM   19  C   UNL     1      -9.795  15.226  67.258  1.00  0.00    -0.220 A  
HETATM   20  C   UNL     1     -10.322  16.744  69.068  1.00  0.00    -0.326 A  
HETATM   21  C   UNL     1      -9.468  16.335  68.044  1.00  0.00    -0.223 A  
HETATM   22  C   UNL     1     -11.511  16.055  69.302  1.00  0.00    -0.350 A  
HETATM   23  C   UNL     1     -11.835  14.942  68.525  1.00  0.00    -0.325 A  
ENDBRANCH   6  18
TORSDOF 1
ENDMDL
MODEL       24
REMARK 921   NORMALIZED FREE ENERGY PREDICTED BY IDOCK:   -6.28 KCAL/MOL
REMARK 922        TOTAL FREE ENERGY PREDICTED BY IDOCK:   -6.93 KCAL/MOL
REMARK 923 INTER-LIGAND FREE ENERGY PREDICTED BY IDOCK:   -6.63 KCAL/MOL
REMARK 924 INTRA-LIGAND FREE ENERGY PREDICTED BY IDOCK:   -0.30 KCAL/MOL
REMARK 927      BINDING AFFINITY PREDICTED BY RF-SCORE:    0.00 PKD
ROOT
HETATM    1  C   UNL     1     -12.350  12.646  64.736  1.00  0.00    -0.489 C  
HETATM    2  N   UNL     1     -11.377  12.406  65.791  1.00  0.00    -0.336 N  
HETATM    3  C   UNL     1     -11.369  13.230  66.957  1.00  0.00    -0.312 A  
HETATM    4  C   UNL     1     -10.959  12.770  68.227  1.00  0.00    -0.278 A  
HETATM    5  C   UNL     1     -10.914  13.651  69.325  1.00  0.00    -0.189 A  
HETATM    6  C   UNL     1     -10.620  11.336  68.490  1.00  0.00    -0.199 C  
HETATM    7  N   UNL     1      -9.839  10.633  67.741  1.00  0.00    -0.164 NA 
HETATM    8  C   UNL     1     -11.337  14.967  69.183  1.00  0.00    -0.296 A  
HETATM    9  O   UNL     1     -10.467  10.717  64.508  1.00  0.00    -0.357 OA 
HETATM   10  H   UNL     1      -7.849  10.880  65.219  1.00  0.00     0.000 HD 
HETATM   11  H   UNL     1      -9.625   9.663  67.976  1.00  0.00     0.000 HD 
HETATM   12  C   UNL     1     -11.780  15.430  67.953  1.00  0.00    -0.198 A  
HETATM   13 CL   UNL     1     -11.334  16.019  70.544  1.00  0.00    -0.393 Cl 
HETATM   14  C   UNL     1      -9.269  11.253  66.554  1.00  0.00    -0.188 C  
HETATM   15  C   UNL     1     -11.786  14.571  66.849  1.00  0.00    -0.399 A  
HETATM   16  O   UNL     1      -8.222  10.475  65.993  1.00  0.00    -0.139 OA 
HETATM   17  C   UNL     1     -10.424  11.414  65.530  1.00  0.00    -0.268 C  
ENDROOT
BRANCH   6  18
HETATM   18  C   UNL     1     -11.192  10.656  69.704  1.00  0.00    -0.351 A  
HETATM   19  C   UNL     1     -10.428   9.799  70.506  1.00  0.00    -0.366 A  
HETATM   20  C   UNL     1     -12.357   9.373  71.904  1.00  0.00    -0.450 A  
HETATM   21  C   UNL     1     -11.015   9.150  71.596  1.00  0.00    -0.445 A  
HETATM   22  C   UNL     1     -13.112  10.256  71.134  1.00  0.00    -0.481 A  
HETATM   23  C   UNL     1     -12.531  10.899  70.040  1.00  0.00    -0.332 A  
ENDBRANCH   6  18
TORSDOF 1
ENDMDL
MODEL       25
REMARK 921   NORMALIZED FREE ENERGY PREDICTED BY IDOCK:   -6.26 KCAL/MOL
REMARK 922        TOTAL FREE ENERGY PREDICTED BY IDOCK:   -6.91 KCAL/MOL
REMARK 923 INTER-LIGAND FREE ENERGY PREDICTED BY IDOCK:   -6.56 KCAL/MOL
REMARK 924 INTRA-LIGAND FREE ENERGY PREDICTED BY IDOCK:   -0.35 KCAL/MOL
REMARK 927      BINDING AFFINITY PREDICTED BY RF-SCORE:    0.00 PKD
ROOT
HETATM    1  C   UNL     1      -9.335  15.515  65.930  1.00  0.00    -0.319 C  
HETATM    2  N   UNL     1      -9.988  14.245  66.208  1.00  0.00    -0.295 N  
HETATM    3  C   UNL     1      -9.324  13.257  66.997  1.00  0.00    -0.242 A  
HETATM    4  C   UNL     1     -10.007  12.333  67.816  1.00  0.00    -0.200 A  
HETATM    5  C   UNL     1      -9.297  11.343  68.521  1.00  0.00    -0.180 A  
HETATM    6  C   UNL     1     -11.488  12.392  68.029  1.00  0.00    -0.322 C  
HETATM    7  N   UNL     1     -12.348  12.516  67.075  1.00  0.00    -0.290 NA 
HETATM    8  C   UNL     1      -7.908  11.307  68.469  1.00  0.00    -0.138 A  
HETATM    9  O   UNL     1     -11.766  14.923  64.903  1.00  0.00    -0.382 OA 
HETATM   10  H   UNL     1     -12.579  12.548  63.862  1.00  0.00     0.000 HD 
HETATM   11  H   UNL     1     -13.348  12.532  67.274  1.00  0.00     0.000 HD 
HETATM   12  C   UNL     1      -7.214  12.231  67.701  1.00  0.00    -0.128 A  
HETATM   13 CL   UNL     1      -7.047  10.131  69.381  1.00  0.00    -0.074 Cl 
HETATM   14  C   UNL     1     -11.860  12.632  65.710  1.00  0.00    -0.444 C  
HETATM   15  C   UNL     1      -7.917  13.191  66.966  1.00  0.00     0.001 A  
HETATM   16  O   UNL     1     -12.898  12.473  64.754  1.00  0.00    -0.755 OA 
HETATM   17  C   UNL     1     -11.220  14.040  65.577  1.00  0.00    -0.311 C  
ENDROOT
BRANCH   6  18
HETATM   18  C   UNL     1     -12.033  12.280  69.427  1.00  0.00    -0.318 A  
HETATM   19  C   UNL     1     -12.346  11.044  70.007  1.00  0.00    -0.377 A  
HETATM   20  C   UNL     1     -13.116  12.167  72.007  1.00  0.00    -0.462 A  
HETATM   21  C   UNL     1     -12.898  10.992  71.290  1.00  0.00    -0.528 A  
HETATM   22  C   UNL     1     -12.770  13.398  71.452  1.00  0.00    -0.411 A  
HETATM   23  C   UNL     1     -12.227  13.454  70.168  1.00  0.00    -0.385 A  
ENDBRANCH   6  18
TORSDOF 1
ENDMDL
MODEL       26
REMARK 921   NORMALIZED FREE ENERGY PREDICTED BY IDOCK:   -6.22 KCAL/MOL
REMARK 922        TOTAL FREE ENERGY PREDICTED BY IDOCK:   -6.87 KCAL/MOL
REMARK 923 INTER-LIGAND FREE ENERGY PREDICTED BY IDOCK:   -6.37 KCAL/MOL
REMARK 924 INTRA-LIGAND FREE ENERGY PREDICTED BY IDOCK:   -0.50 KCAL/MOL
REMARK 927      BINDING AFFINITY PREDICTED BY RF-SCORE:    0.00 PKD
ROOT
HETATM    1  C   UNL     1     -12.081  14.657  64.334  1.00  0.00    -0.462 C  
HETATM    2  N   UNL     1     -11.148  13.691  64.894  1.00  0.00    -0.334 N  
HETATM    3  C   UNL     1     -10.273  14.075  65.956  1.00  0.00    -0.304 A  
HETATM    4  C   UNL     1      -9.814  13.176  66.943  1.00  0.00    -0.249 A  
HETATM    5  C   UNL     1      -8.903  13.602  67.927  1.00  0.00    -0.188 A  
HETATM    6  C   UNL     1     -10.311  11.767  67.038  1.00  0.00    -0.214 C  
HETATM    7  N   UNL     1     -10.391  10.963  66.032  1.00  0.00    -0.249 NA 
HETATM    8  C   UNL     1      -8.496  14.931  67.976  1.00  0.00    -0.151 A  
HETATM    9  O   UNL     1     -11.885  12.147  63.345  1.00  0.00    -0.463 OA 
HETATM   10  H   UNL     1      -9.612  10.721  62.915  1.00  0.00     0.000 HD 
HETATM   11  H   UNL     1     -10.719  10.005  66.155  1.00  0.00     0.000 HD 
HETATM   12  C   UNL     1      -8.965  15.840  67.038  1.00  0.00    -0.247 A  
HETATM   13 CL   UNL     1      -7.428  15.455  69.218  1.00  0.00    -0.190 Cl 
HETATM   14  C   UNL     1     -10.002  11.452  64.718  1.00  0.00    -0.267 C  
HETATM   15  C   UNL     1      -9.838  15.412  66.033  1.00  0.00    -0.355 A  
HETATM   16  O   UNL     1      -9.866  10.401  63.773  1.00  0.00    -0.310 OA 
HETATM   17  C   UNL     1     -11.106  12.443  64.261  1.00  0.00    -0.349 C  
ENDROOT
BRANCH   6  18
HETATM   18  C   UNL     1     -10.726  11.224  68.378  1.00  0.00    -0.238 A  
HETATM   19  C   UNL     1     -11.857  11.697  69.055  1.00  0.00    -0.391 A  
HETATM   20  C   UNL     1     -11.385  10.208  70.904  1.00  0.00    -0.420 A  
HETATM   21  C   UNL     1     -12.176  11.198  70.322  1.00  0.00    -0.436 A  
HETATM   22  C   UNL     1     -10.281   9.703  70.217  1.00  0.00    -0.333 A  
HETATM   23  C   UNL     1      -9.955  10.206  68.957  1.00  0.00    -0.216 A  
ENDBRANCH   6  18
TORSDOF 1
ENDMDL
MODEL       27
REMARK 921   NORMALIZED FREE ENERGY PREDICTED BY IDOCK:   -6.18 KCAL/MOL
REMARK 922        TOTAL FREE ENERGY PREDICTED BY IDOCK:   -6.83 KCAL/MOL
REMARK 923 INTER-LIGAND FREE ENERGY PREDICTED BY IDOCK:   -6.40 KCAL/MOL
REMARK 924 INTRA-LIGAND FREE ENERGY PREDICTED BY IDOCK:   -0.43 KCAL/MOL
REMARK 927      BINDING AFFINITY PREDICTED BY RF-SCORE:    0.00 PKD
ROOT
HETATM    1  C   UNL     1     -10.548  16.017  69.887  1.00  0.00    -0.314 C  
HETATM    2  N   UNL     1     -11.291  14.767  69.845  1.00  0.00    -0.264 N  
HETATM    3  C   UNL     1     -11.495  14.099  68.599  1.00  0.00    -0.299 A  
HETATM    4  C   UNL     1     -11.618  12.697  68.484  1.00  0.00    -0.363 A  
HETATM    5  C   UNL     1     -11.881  12.104  67.235  1.00  0.00    -0.293 A  
HETATM    6  C   UNL     1     -11.415  11.777  69.647  1.00  0.00    -0.270 C  
HETATM    7  N   UNL     1     -11.959  11.949  70.805  1.00  0.00    -0.443 NA 
HETATM    8  C   UNL     1     -11.956  12.888  66.090  1.00  0.00    -0.429 A  
HETATM    9  O   UNL     1     -11.653  14.955  72.116  1.00  0.00    -0.345 OA 
HETATM   10  H   UNL     1     -14.100  13.796  72.348  1.00  0.00     0.000 HD 
HETATM   11  H   UNL     1     -11.802  11.280  71.559  1.00  0.00     0.000 HD 
HETATM   12  C   UNL     1     -11.799  14.265  66.174  1.00  0.00    -0.413 A  
HETATM   13 CL   UNL     1     -12.218  12.148  64.560  1.00  0.00    -0.431 Cl 
HETATM   14  C   UNL     1     -12.799  13.118  71.011  1.00  0.00    -0.214 C  
HETATM   15  C   UNL     1     -11.580  14.863  67.419  1.00  0.00    -0.347 A  
HETATM   16  O   UNL     1     -13.551  13.033  72.213  1.00  0.00    -0.549 OA 
HETATM   17  C   UNL     1     -11.857  14.350  71.056  1.00  0.00    -0.270 C  
ENDROOT
BRANCH   6  18
HETATM   18  C   UNL     1     -10.550  10.558  69.477  1.00  0.00    -0.278 A  
HETATM   19  C   UNL     1      -9.256  10.632  68.945  1.00  0.00    -0.189 A  
HETATM   20  C   UNL     1      -9.035   8.229  69.124  1.00  0.00    -0.147 A  
HETATM   21  C   UNL     1      -8.507   9.466  68.758  1.00  0.00    -0.122 A  
HETATM   22  C   UNL     1     -10.306   8.152  69.691  1.00  0.00    -0.221 A  
HETATM   23  C   UNL     1     -11.059   9.313  69.871  1.00  0.00    -0.200 A  
ENDBRANCH   6  18
TORSDOF 1
ENDMDL
MODEL       28
REMARK 921   NORMALIZED FREE ENERGY PREDICTED BY IDOCK:   -6.15 KCAL/MOL
REMARK 922        TOTAL FREE ENERGY PREDICTED BY IDOCK:   -6.79 KCAL/MOL
REMARK 923 INTER-LIGAND FREE ENERGY PREDICTED BY IDOCK:   -6.63 KCAL/MOL
REMARK 924 INTRA-LIGAND FREE ENERGY PREDICTED BY IDOCK:   -0.16 KCAL/MOL
REMARK 927      BINDING AFFINITY PREDICTED BY RF-SCORE:    0.00 PKD
ROOT
HETATM    1  C   UNL     1      -8.512  16.193  66.131  1.00  0.00    -0.253 C  
HETATM    2  N   UNL     1      -9.552  15.215  66.412  1.00  0.00    -0.264 N  
HETATM    3  C   UNL     1      -9.251  14.054  67.188  1.00  0.00    -0.235 A  
HETATM    4  C   UNL     1     -10.197  13.407  68.011  1.00  0.00    -0.243 A  
HETATM    5  C   UNL     1      -9.854  12.229  68.702  1.00  0.00    -0.098 A  
HETATM    6  C   UNL     1     -11.568  13.959  68.244  1.00  0.00    -0.337 C  
HETATM    7  N   UNL     1     -12.347  14.374  67.302  1.00  0.00    -0.594 NA 
HETATM    8  C   UNL     1      -8.559  11.728  68.632  1.00  0.00    -0.062 A  
HETATM    9  O   UNL     1     -11.012  16.463  65.133  1.00  0.00    -0.414 OA 
HETATM   10  H   UNL     1     -12.588  14.510  64.092  1.00  0.00     0.000 HD 
HETATM   11  H   UNL     1     -13.281  14.725  67.514  1.00  0.00     0.000 HD 
HETATM   12  C   UNL     1      -7.603  12.371  67.859  1.00  0.00    -0.130 A  
HETATM   13 CL   UNL     1      -8.135  10.323  69.527  1.00  0.00    -0.172 Cl 
HETATM   14  C   UNL     1     -11.863  14.330  65.931  1.00  0.00    -0.380 C  
HETATM   15  C   UNL     1      -7.949  13.517  67.137  1.00  0.00    -0.058 A  
HETATM   16  O   UNL     1     -12.905  14.539  64.988  1.00  0.00    -0.562 OA 
HETATM   17  C   UNL     1     -10.788  15.442  65.796  1.00  0.00    -0.343 C  
ENDROOT
BRANCH   6  18
HETATM   18  C   UNL     1     -12.104  14.026  69.648  1.00  0.00    -0.408 A  
HETATM   19  C   UNL     1     -12.518  12.881  70.342  1.00  0.00    -0.247 A  
HETATM   20  C   UNL     1     -13.161  14.248  72.233  1.00  0.00    -0.508 A  
HETATM   21  C   UNL     1     -13.057  12.997  71.627  1.00  0.00    -0.440 A  
HETATM   22  C   UNL     1     -12.714  15.387  71.564  1.00  0.00    -0.480 A  
HETATM   23  C   UNL     1     -12.184  15.276  70.278  1.00  0.00    -0.403 A  
ENDBRANCH   6  18
TORSDOF 1
ENDMDL
MODEL       29
REMARK 921   NORMALIZED FREE ENERGY PREDICTED BY IDOCK:   -6.13 KCAL/MOL
REMARK 922        TOTAL FREE ENERGY PREDICTED BY IDOCK:   -6.78 KCAL/MOL
REMARK 923 INTER-LIGAND FREE ENERGY PREDICTED BY IDOCK:   -6.47 KCAL/MOL
REMARK 924 INTRA-LIGAND FREE ENERGY PREDICTED BY IDOCK:   -0.32 KCAL/MOL
REMARK 927      BINDING AFFINITY PREDICTED BY RF-SCORE:    0.00 PKD
ROOT
HETATM    1  C   UNL     1      -8.619  17.607  65.958  1.00  0.00    -0.031 C  
HETATM    2  N   UNL     1      -9.346  16.365  66.172  1.00  0.00    -0.313 N  
HETATM    3  C   UNL     1      -8.761  15.320  66.951  1.00  0.00    -0.258 A  
HETATM    4  C   UNL     1      -9.520  14.408  67.715  1.00  0.00    -0.211 A  
HETATM    5  C   UNL     1      -8.887  13.361  68.412  1.00  0.00    -0.133 A  
HETATM    6  C   UNL     1     -11.002  14.537  67.878  1.00  0.00    -0.269 C  
HETATM    7  N   UNL     1     -11.820  14.734  66.898  1.00  0.00    -0.319 NA 
HETATM    8  C   UNL     1      -7.501  13.256  68.408  1.00  0.00    -0.124 A  
HETATM    9  O   UNL     1     -11.038  17.173  64.827  1.00  0.00    -0.909 OA 
HETATM   10  H   UNL     1     -11.930  14.876  63.682  1.00  0.00     0.000 HD 
HETATM   11  H   UNL     1     -12.824  14.795  67.063  1.00  0.00     0.000 HD 
HETATM   12  C   UNL     1      -6.733  14.166  67.696  1.00  0.00    -0.188 A  
HETATM   13 CL   UNL     1      -6.734  12.010  69.311  1.00  0.00    -0.107 Cl 
HETATM   14  C   UNL     1     -11.276  14.866  65.556  1.00  0.00    -0.348 C  
HETATM   15  C   UNL     1      -7.360  15.182  66.967  1.00  0.00    -0.015 A  
HETATM   16  O   UNL     1     -12.285  14.790  64.559  1.00  0.00    -0.473 OA 
HETATM   17  C   UNL     1     -10.562  16.242  65.491  1.00  0.00    -0.353 C  
ENDROOT
BRANCH   6  18
HETATM   18  C   UNL     1     -11.604  14.410  69.251  1.00  0.00    -0.345 A  
HETATM   19  C   UNL     1     -11.937  13.168  69.806  1.00  0.00    -0.382 A  
HETATM   20  C   UNL     1     -12.790  14.271  71.784  1.00  0.00    -0.426 A  
HETATM   21  C   UNL     1     -12.541  13.102  71.065  1.00  0.00    -0.397 A  
HETATM   22  C   UNL     1     -12.424  15.507  71.255  1.00  0.00    -0.486 A  
HETATM   23  C   UNL     1     -11.830  15.577  69.995  1.00  0.00    -0.379 A  
ENDBRANCH   6  18
TORSDOF 1
ENDMDL
MODEL       30
REMARK 921   NORMALIZED FREE ENERGY PREDICTED BY IDOCK:   -6.11 KCAL/MOL
REMARK 922        TOTAL FREE ENERGY PREDICTED BY IDOCK:   -6.76 KCAL/MOL
REMARK 923 INTER-LIGAND FREE ENERGY PREDICTED BY IDOCK:   -6.26 KCAL/MOL
REMARK 924 INTRA-LIGAND FREE ENERGY PREDICTED BY IDOCK:   -0.49 KCAL/MOL
REMARK 927      BINDING AFFINITY PREDICTED BY RF-SCORE:    0.00 PKD
ROOT
HETATM    1  C   UNL     1      -7.606  19.946  68.732  1.00  0.00    -0.196 C  
HETATM    2  N   UNL     1      -8.257  18.724  68.285  1.00  0.00    -0.314 N  
HETATM    3  C   UNL     1      -7.822  17.459  68.787  1.00  0.00    -0.250 A  
HETATM    4  C   UNL     1      -8.682  16.350  68.937  1.00  0.00    -0.253 A  
HETATM    5  C   UNL     1      -8.179  15.111  69.378  1.00  0.00    -0.197 A  
HETATM    6  C   UNL     1     -10.158  16.442  68.704  1.00  0.00    -0.244 C  
HETATM    7  N   UNL     1     -10.690  16.991  67.664  1.00  0.00    -0.328 NA 
HETATM    8  C   UNL     1      -6.841  14.986  69.734  1.00  0.00    -0.181 A  
HETATM    9  O   UNL     1      -9.578  19.991  66.881  1.00  0.00    -0.359 OA 
HETATM   10  H   UNL     1      -9.928  18.270  64.807  1.00  0.00     0.000 HD 
HETATM   11  H   UNL     1     -11.702  17.010  67.545  1.00  0.00     0.000 HD 
HETATM   12  C   UNL     1      -5.986  16.075  69.631  1.00  0.00    -0.162 A  
HETATM   13 CL   UNL     1      -6.249  13.485  70.328  1.00  0.00    -0.100 Cl 
HETATM   14  C   UNL     1      -9.813  17.581  66.665  1.00  0.00    -0.306 C  
HETATM   15  C   UNL     1      -6.472  17.296  69.153  1.00  0.00    -0.235 A  
HETATM   16  O   UNL     1     -10.501  17.885  65.460  1.00  0.00    -0.650 OA 
HETATM   17  C   UNL     1      -9.226  18.876  67.287  1.00  0.00    -0.283 C  
ENDROOT
BRANCH   6  18
HETATM   18  C   UNL     1     -11.100  15.847  69.716  1.00  0.00    -0.324 A  
HETATM   19  C   UNL     1     -11.304  16.427  70.974  1.00  0.00    -0.207 A  
HETATM   20  C   UNL     1     -12.815  14.632  71.567  1.00  0.00    -0.404 A  
HETATM   21  C   UNL     1     -12.150  15.812  71.901  1.00  0.00    -0.548 A  
HETATM   22  C   UNL     1     -12.647  14.071  70.302  1.00  0.00    -0.354 A  
HETATM   23  C   UNL     1     -11.796  14.678  69.378  1.00  0.00    -0.368 A  
ENDBRANCH   6  18
TORSDOF 1
ENDMDL
MODEL       31
REMARK 921   NORMALIZED FREE ENERGY PREDICTED BY IDOCK:   -6.10 KCAL/MOL
REMARK 922        TOTAL FREE ENERGY PREDICTED BY IDOCK:   -6.75 KCAL/MOL
REMARK 923 INTER-LIGAND FREE ENERGY PREDICTED BY IDOCK:   -6.24 KCAL/MOL
REMARK 924 INTRA-LIGAND FREE ENERGY PREDICTED BY IDOCK:   -0.50 KCAL/MOL
REMARK 927      BINDING AFFINITY PREDICTED BY RF-SCORE:    0.00 PKD
ROOT
HETATM    1  C   UNL     1     -11.677  15.595  69.361  1.00  0.00    -0.383 C  
HETATM    2  N   UNL     1     -11.804  14.154  69.200  1.00  0.00    -0.321 N  
HETATM    3  C   UNL     1     -11.780  13.576  67.894  1.00  0.00    -0.357 A  
HETATM    4  C   UNL     1     -11.289  12.279  67.632  1.00  0.00    -0.374 A  
HETATM    5  C   UNL     1     -11.352  11.743  66.332  1.00  0.00    -0.361 A  
HETATM    6  C   UNL     1     -10.629  11.443  68.683  1.00  0.00    -0.199 C  
HETATM    7  N   UNL     1     -11.115  11.257  69.865  1.00  0.00    -0.460 NA 
HETATM    8  C   UNL     1     -11.837  12.512  65.280  1.00  0.00    -0.413 A  
HETATM    9  O   UNL     1     -12.058  13.965  71.486  1.00  0.00    -0.240 OA 
HETATM   10  H   UNL     1     -13.737  11.834  71.645  1.00  0.00     0.000 HD 
HETATM   11  H   UNL     1     -10.633  10.662  70.538  1.00  0.00     0.000 HD 
HETATM   12  C   UNL     1     -12.288  13.803  65.509  1.00  0.00    -0.507 A  
HETATM   13 CL   UNL     1     -11.853  11.869  63.685  1.00  0.00    -0.577 Cl 
HETATM   14  C   UNL     1     -12.364  11.915  70.214  1.00  0.00    -0.207 C  
HETATM   15  C   UNL     1     -12.268  14.326  66.806  1.00  0.00    -0.384 A  
HETATM   16  O   UNL     1     -12.921  11.404  71.416  1.00  0.00    -0.412 OA 
HETATM   17  C   UNL     1     -12.049  13.427  70.371  1.00  0.00    -0.333 C  
ENDROOT
BRANCH   6  18
HETATM   18  C   UNL     1      -9.334  10.748  68.363  1.00  0.00    -0.167 A  
HETATM   19  C   UNL     1      -8.152  11.456  68.113  1.00  0.00    -0.137 A  
HETATM   20  C   UNL     1      -6.984   9.376  67.700  1.00  0.00    -0.081 A  
HETATM   21  C   UNL     1      -6.983  10.769  67.770  1.00  0.00    -0.077 A  
HETATM   22  C   UNL     1      -8.147   8.664  67.988  1.00  0.00    -0.111 A  
HETATM   23  C   UNL     1      -9.317   9.347  68.322  1.00  0.00    -0.140 A  
ENDBRANCH   6  18
TORSDOF 1
ENDMDL
MODEL       32
REMARK 921   NORMALIZED FREE ENERGY PREDICTED BY IDOCK:   -6.08 KCAL/MOL
REMARK 922        TOTAL FREE ENERGY PREDICTED BY IDOCK:   -6.72 KCAL/MOL
REMARK 923 INTER-LIGAND FREE ENERGY PREDICTED BY IDOCK:   -6.34 KCAL/MOL
REMARK 924 INTRA-LIGAND FREE ENERGY PREDICTED BY IDOCK:   -0.39 KCAL/MOL
REMARK 927      BINDING AFFINITY PREDICTED BY RF-SCORE:    0.00 PKD
ROOT
HETATM    1  C   UNL     1     -13.154  10.260  71.255  1.00  0.00    -0.398 C  
HETATM    2  N   UNL     1     -12.330  11.328  70.710  1.00  0.00    -0.386 N  
HETATM    3  C   UNL     1     -11.202  11.014  69.892  1.00  0.00    -0.252 A  
HETATM    4  C   UNL     1     -10.734  11.858  68.862  1.00  0.00    -0.236 A  
HETATM    5  C   UNL     1      -9.578  11.521  68.133  1.00  0.00    -0.187 A  
HETATM    6  C   UNL     1     -11.462  13.100  68.451  1.00  0.00    -0.315 C  
HETATM    7  N   UNL     1     -11.896  13.988  69.280  1.00  0.00    -0.322 NA 
HETATM    8  C   UNL     1      -8.923  10.319  68.376  1.00  0.00    -0.132 A  
HETATM    9  O   UNL     1     -13.646  12.856  71.831  1.00  0.00    -0.416 OA 
HETATM   10  H   UNL     1     -11.823  14.790  72.400  1.00  0.00     0.000 HD 
HETATM   11  H   UNL     1     -12.369  14.827  68.945  1.00  0.00     0.000 HD 
HETATM   12  C   UNL     1      -9.388   9.456  69.358  1.00  0.00    -0.172 A  
HETATM   13 CL   UNL     1      -7.546   9.889  67.440  1.00  0.00    -0.091 Cl 
HETATM   14  C   UNL     1     -11.694  13.767  70.704  1.00  0.00    -0.081 C  
HETATM   15  C   UNL     1     -10.512   9.806  70.114  1.00  0.00    -0.338 A  
HETATM   16  O   UNL     1     -11.955  14.934  71.470  1.00  0.00    -0.317 OA 
HETATM   17  C   UNL     1     -12.656  12.625  71.124  1.00  0.00    -0.258 C  
ENDROOT
BRANCH   6  18
HETATM   18  C   UNL     1     -11.694  13.364  66.988  1.00  0.00    -0.426 A  
HETATM   19  C   UNL     1     -12.159  12.371  66.117  1.00  0.00    -0.295 A  
HETATM   20  C   UNL     1     -12.028  13.922  64.264  1.00  0.00    -0.477 A  
HETATM   21  C   UNL     1     -12.312  12.648  64.755  1.00  0.00    -0.556 A  
HETATM   22  C   UNL     1     -11.604  14.927  65.132  1.00  0.00    -0.330 A  
HETATM   23  C   UNL     1     -11.441  14.650  66.490  1.00  0.00    -0.354 A  
ENDBRANCH   6  18
TORSDOF 1
ENDMDL
MODEL       33
REMARK 921   NORMALIZED FREE ENERGY PREDICTED BY IDOCK:   -6.07 KCAL/MOL
REMARK 922        TOTAL FREE ENERGY PREDICTED BY IDOCK:   -6.72 KCAL/MOL
REMARK 923 INTER-LIGAND FREE ENERGY PREDICTED BY IDOCK:   -6.22 KCAL/MOL
REMARK 924 INTRA-LIGAND FREE ENERGY PREDICTED BY IDOCK:   -0.50 KCAL/MOL
REMARK 927      BINDING AFFINITY PREDICTED BY RF-SCORE:    0.00 PKD
ROOT
HETATM    1  C   UNL     1     -10.052  11.853  63.138  1.00  0.00    -0.306 C  
HETATM    2  N   UNL     1     -10.500  12.467  64.379  1.00  0.00    -0.337 N  
HETATM    3  C   UNL     1      -9.780  12.238  65.591  1.00  0.00    -0.192 A  
HETATM    4  C   UNL     1      -9.710  13.180  66.639  1.00  0.00    -0.261 A  
HETATM    5  C   UNL     1      -9.036  12.868  67.835  1.00  0.00    -0.193 A  
HETATM    6  C   UNL     1     -10.278  14.559  66.517  1.00  0.00    -0.279 C  
HETATM    7  N   UNL     1     -11.465  14.812  66.076  1.00  0.00    -0.343 NA 
HETATM    8  C   UNL     1      -8.375  11.652  67.969  1.00  0.00    -0.148 A  
HETATM    9  O   UNL     1     -12.295  13.362  63.237  1.00  0.00    -0.714 OA 
HETATM   10  H   UNL     1     -14.196  13.358  65.179  1.00  0.00     0.000 HD 
HETATM   11  H   UNL     1     -11.811  15.770  66.031  1.00  0.00     0.000 HD 
HETATM   12  C   UNL     1      -8.399  10.726  66.935  1.00  0.00    -0.132 A  
HETATM   13 CL   UNL     1      -7.504  11.304  69.411  1.00  0.00    -0.043 Cl 
HETATM   14  C   UNL     1     -12.298  13.700  65.645  1.00  0.00    -0.478 C  
HETATM   15  C   UNL     1      -9.103  11.015  65.762  1.00  0.00    -0.219 A  
HETATM   16  O   UNL     1     -13.652  14.085  65.460  1.00  0.00    -0.596 OA 
HETATM   17  C   UNL     1     -11.702  13.181  64.309  1.00  0.00    -0.395 C  
ENDROOT
BRANCH   6  18
HETATM   18  C   UNL     1      -9.448  15.737  66.949  1.00  0.00    -0.244 A  
HETATM   19  C   UNL     1      -8.297  16.130  66.255  1.00  0.00    -0.322 A  
HETATM   20  C   UNL     1      -7.919  17.897  67.866  1.00  0.00    -0.235 A  
HETATM   21  C   UNL     1      -7.528  17.201  66.723  1.00  0.00    -0.263 A  
HETATM   22  C   UNL     1      -9.086  17.536  68.538  1.00  0.00    -0.277 A  
HETATM   23  C   UNL     1      -9.850  16.462  68.079  1.00  0.00    -0.238 A  
ENDBRANCH   6  18
TORSDOF 1
ENDMDL
MODEL       34
REMARK 921   NORMALIZED FREE ENERGY PREDICTED BY IDOCK:   -5.95 KCAL/MOL
REMARK 922        TOTAL FREE ENERGY PREDICTED BY IDOCK:   -6.59 KCAL/MOL
REMARK 923 INTER-LIGAND FREE ENERGY PREDICTED BY IDOCK:   -6.12 KCAL/MOL
REMARK 924 INTRA-LIGAND FREE ENERGY PREDICTED BY IDOCK:   -0.47 KCAL/MOL
REMARK 927      BINDING AFFINITY PREDICTED BY RF-SCORE:    0.00 PKD
ROOT
HETATM    1  C   UNL     1      -8.639   8.442  69.338  1.00  0.00    -0.129 C  
HETATM    2  N   UNL     1      -9.451   9.642  69.209  1.00  0.00    -0.169 N  
HETATM    3  C   UNL     1      -8.857  10.863  68.763  1.00  0.00    -0.161 A  
HETATM    4  C   UNL     1      -9.563  11.847  68.039  1.00  0.00    -0.193 A  
HETATM    5  C   UNL     1      -8.937  13.057  67.683  1.00  0.00    -0.192 A  
HETATM    6  C   UNL     1     -10.966  11.639  67.560  1.00  0.00    -0.259 C  
HETATM    7  N   UNL     1     -11.921  11.189  68.303  1.00  0.00    -0.692 NA 
HETATM    8  C   UNL     1      -7.596  13.266  67.985  1.00  0.00    -0.145 A  
HETATM    9  O   UNL     1     -11.258   8.455  70.017  1.00  0.00    -0.206 OA 
HETATM   10  H   UNL     1     -12.602  10.404  71.352  1.00  0.00     0.000 HD 
HETATM   11  H   UNL     1     -12.864  11.084  67.931  1.00  0.00     0.000 HD 
HETATM   12  C   UNL     1      -6.873  12.295  68.663  1.00  0.00    -0.087 A  
HETATM   13 CL   UNL     1      -6.825  14.722  67.494  1.00  0.00    -0.205 Cl 
HETATM   14  C   UNL     1     -11.621  10.836  69.682  1.00  0.00    -0.316 C  
HETATM   15  C   UNL     1      -7.502  11.109  69.056  1.00  0.00    -0.124 A  
HETATM   16  O   UNL     1     -12.797  10.634  70.451  1.00  0.00    -0.322 OA 
HETATM   17  C   UNL     1     -10.778   9.533  69.641  1.00  0.00    -0.238 C  
ENDROOT
BRANCH   6  18
HETATM   18  C   UNL     1     -11.316  11.988  66.139  1.00  0.00    -0.407 A  
HETATM   19  C   UNL     1     -12.270  12.964  65.826  1.00  0.00    -0.498 A  
HETATM   20  C   UNL     1     -11.962  12.523  63.467  1.00  0.00    -0.629 A  
HETATM   21  C   UNL     1     -12.600  13.220  64.492  1.00  0.00    -0.316 A  
HETATM   22  C   UNL     1     -10.983  11.579  63.769  1.00  0.00    -0.485 A  
HETATM   23  C   UNL     1     -10.657  11.315  65.101  1.00  0.00    -0.343 A  
ENDBRANCH   6  18
TORSDOF 1
ENDMDL
MODEL       35
REMARK 921   NORMALIZED FREE ENERGY PREDICTED BY IDOCK:   -5.89 KCAL/MOL
REMARK 922        TOTAL FREE ENERGY PREDICTED BY IDOCK:   -6.52 KCAL/MOL
REMARK 923 INTER-LIGAND FREE ENERGY PREDICTED BY IDOCK:   -6.79 KCAL/MOL
REMARK 924 INTRA-LIGAND FREE ENERGY PREDICTED BY IDOCK:    0.27 KCAL/MOL
REMARK 927      BINDING AFFINITY PREDICTED BY RF-SCORE:    0.00 PKD
ROOT
HETATM    1  C   UNL     1     -11.541  12.095  63.679  1.00  0.00    -0.486 C  
HETATM    2  N   UNL     1     -10.770  12.243  64.904  1.00  0.00    -0.285 N  
HETATM    3  C   UNL     1     -10.707  13.512  65.558  1.00  0.00    -0.290 A  
HETATM    4  C   UNL     1     -10.555  13.655  66.954  1.00  0.00    -0.271 A  
HETATM    5  C   UNL     1     -10.436  14.933  67.531  1.00  0.00    -0.254 A  
HETATM    6  C   UNL     1     -10.578  12.485  67.888  1.00  0.00    -0.218 C  
HETATM    7  N   UNL     1      -9.897  11.404  67.704  1.00  0.00    -0.174 NA 
HETATM    8  C   UNL     1     -10.533  16.071  66.738  1.00  0.00    -0.308 A  
HETATM    9  O   UNL     1     -10.127  10.035  64.717  1.00  0.00    -0.296 OA 
HETATM   10  H   UNL     1      -7.635  10.130  65.797  1.00  0.00     0.000 HD 
HETATM   11  H   UNL     1      -9.934  10.643  68.382  1.00  0.00     0.000 HD 
HETATM   12  C   UNL     1     -10.721  15.954  65.369  1.00  0.00    -0.415 A  
HETATM   13 CL   UNL     1     -10.445  17.629  67.461  1.00  0.00    -0.364 Cl 
HETATM   14  C   UNL     1      -9.074  11.296  66.510  1.00  0.00    -0.184 C  
HETATM   15  C   UNL     1     -10.797  14.685  64.785  1.00  0.00    -0.402 A  
HETATM   16  O   UNL     1      -8.173  10.200  66.577  1.00  0.00    -0.121 OA 
HETATM   17  C   UNL     1     -10.042  11.119  65.309  1.00  0.00    -0.276 C  
ENDROOT
BRANCH   6  18
HETATM   18  C   UNL     1     -11.420  12.556  69.133  1.00  0.00    -0.361 A  
HETATM   19  C   UNL     1     -11.767  13.775  69.729  1.00  0.00    -0.367 A  
HETATM   20  C   UNL     1     -12.927  12.592  71.493  1.00  0.00    -0.380 A  
HETATM   21  C   UNL     1     -12.508  13.789  70.914  1.00  0.00    -0.451 A  
HETATM   22  C   UNL     1     -12.620  11.377  70.884  1.00  0.00    -0.453 A  
HETATM   23  C   UNL     1     -11.872  11.358  69.706  1.00  0.00    -0.435 A  
ENDBRANCH   6  18
TORSDOF 1
ENDMDL
MODEL       36
REMARK 921   NORMALIZED FREE ENERGY PREDICTED BY IDOCK:   -5.87 KCAL/MOL
REMARK 922        TOTAL FREE ENERGY PREDICTED BY IDOCK:   -6.51 KCAL/MOL
REMARK 923 INTER-LIGAND FREE ENERGY PREDICTED BY IDOCK:   -6.21 KCAL/MOL
REMARK 924 INTRA-LIGAND FREE ENERGY PREDICTED BY IDOCK:   -0.30 KCAL/MOL
REMARK 927      BINDING AFFINITY PREDICTED BY RF-SCORE:    0.00 PKD
ROOT
HETATM    1  C   UNL     1     -11.585  14.020  65.835  1.00  0.00    -0.347 C  
HETATM    2  N   UNL     1     -11.174  15.194  66.591  1.00  0.00    -0.311 N  
HETATM    3  C   UNL     1     -11.257  15.190  68.017  1.00  0.00    -0.323 A  
HETATM    4  C   UNL     1     -10.382  15.926  68.845  1.00  0.00    -0.228 A  
HETATM    5  C   UNL     1     -10.557  15.931  70.242  1.00  0.00    -0.260 A  
HETATM    6  C   UNL     1      -9.205  16.674  68.302  1.00  0.00    -0.217 C  
HETATM    7  N   UNL     1      -9.261  17.467  67.286  1.00  0.00    -0.237 NA 
HETATM    8  C   UNL     1     -11.553  15.157  70.825  1.00  0.00    -0.317 A  
HETATM    9  O   UNL     1     -10.746  16.274  64.598  1.00  0.00    -0.670 OA 
HETATM   10  H   UNL     1     -11.356  18.839  65.258  1.00  0.00     0.000 HD 
HETATM   11  H   UNL     1      -8.431  17.968  66.968  1.00  0.00     0.000 HD 
HETATM   12  C   UNL     1     -12.401  14.396  70.032  1.00  0.00    -0.391 A  
HETATM   13 CL   UNL     1     -11.721  15.123  72.536  1.00  0.00    -0.495 Cl 
HETATM   14  C   UNL     1     -10.536  17.632  66.604  1.00  0.00    -0.286 C  
HETATM   15  C   UNL     1     -12.258  14.421  68.641  1.00  0.00    -0.185 A  
HETATM   16  O   UNL     1     -10.523  18.731  65.704  1.00  0.00    -0.594 OA 
HETATM   17  C   UNL     1     -10.809  16.313  65.834  1.00  0.00    -0.139 C  
ENDROOT
BRANCH   6  18
HETATM   18  C   UNL     1      -7.868  16.528  68.977  1.00  0.00    -0.226 A  
HETATM   19  C   UNL     1      -7.017  17.620  69.188  1.00  0.00    -0.217 A  
HETATM   20  C   UNL     1      -5.363  16.153  70.174  1.00  0.00    -0.161 A  
HETATM   21  C   UNL     1      -5.762  17.428  69.773  1.00  0.00    -0.231 A  
HETATM   22  C   UNL     1      -6.222  15.069  70.005  1.00  0.00    -0.157 A  
HETATM   23  C   UNL     1      -7.471  15.255  69.412  1.00  0.00    -0.212 A  
ENDBRANCH   6  18
TORSDOF 1
ENDMDL
MODEL       37
REMARK 921   NORMALIZED FREE ENERGY PREDICTED BY IDOCK:   -5.86 KCAL/MOL
REMARK 922        TOTAL FREE ENERGY PREDICTED BY IDOCK:   -6.50 KCAL/MOL
REMARK 923 INTER-LIGAND FREE ENERGY PREDICTED BY IDOCK:   -6.02 KCAL/MOL
REMARK 924 INTRA-LIGAND FREE ENERGY PREDICTED BY IDOCK:   -0.47 KCAL/MOL
REMARK 927      BINDING AFFINITY PREDICTED BY RF-SCORE:    0.00 PKD
ROOT
HETATM    1  C   UNL     1     -11.349   9.058  70.332  1.00  0.00    -0.210 C  
HETATM    2  N   UNL     1     -11.181  10.448  69.936  1.00  0.00    -0.285 N  
HETATM    3  C   UNL     1     -10.041  10.840  69.170  1.00  0.00    -0.205 A  
HETATM    4  C   UNL     1     -10.059  11.909  68.249  1.00  0.00    -0.203 A  
HETATM    5  C   UNL     1      -8.884  12.286  67.571  1.00  0.00    -0.182 A  
HETATM    6  C   UNL     1     -11.314  12.645  67.899  1.00  0.00    -0.288 C  
HETATM    7  N   UNL     1     -12.152  13.096  68.772  1.00  0.00    -0.268 NA 
HETATM    8  C   UNL     1      -7.710  11.566  67.752  1.00  0.00    -0.124 A  
HETATM    9  O   UNL     1     -13.108  10.966  71.096  1.00  0.00    -0.355 OA 
HETATM   10  H   UNL     1     -12.538  13.483  71.947  1.00  0.00     0.000 HD 
HETATM   11  H   UNL     1     -12.984  13.608  68.480  1.00  0.00     0.000 HD 
HETATM   12  C   UNL     1      -7.680  10.486  68.624  1.00  0.00    -0.106 A  
HETATM   13 CL   UNL     1      -6.295  11.997  66.874  1.00  0.00    -0.120 Cl 
HETATM   14  C   UNL     1     -11.883  12.856  70.181  1.00  0.00    -0.245 C  
HETATM   15  C   UNL     1      -8.833  10.134  69.332  1.00  0.00    -0.197 A  
HETATM   16  O   UNL     1     -12.714  13.639  71.026  1.00  0.00    -0.338 OA 
HETATM   17  C   UNL     1     -12.130  11.346  70.438  1.00  0.00    -0.384 C  
ENDROOT
BRANCH   6  18
HETATM   18  C   UNL     1     -11.631  12.910  66.452  1.00  0.00    -0.425 A  
HETATM   19  C   UNL     1     -11.753  11.876  65.515  1.00  0.00    -0.224 A  
HETATM   20  C   UNL     1     -12.149  13.498  63.763  1.00  0.00    -0.482 A  
HETATM   21  C   UNL     1     -11.998  12.173  64.172  1.00  0.00    -0.497 A  
HETATM   22  C   UNL     1     -12.070  14.530  64.697  1.00  0.00    -0.486 A  
HETATM   23  C   UNL     1     -11.816  14.237  66.038  1.00  0.00    -0.399 A  
ENDBRANCH   6  18
TORSDOF 1
ENDMDL
MODEL       38
REMARK 921   NORMALIZED FREE ENERGY PREDICTED BY IDOCK:   -5.85 KCAL/MOL
REMARK 922        TOTAL FREE ENERGY PREDICTED BY IDOCK:   -6.48 KCAL/MOL
REMARK 923 INTER-LIGAND FREE ENERGY PREDICTED BY IDOCK:   -6.39 KCAL/MOL
REMARK 924 INTRA-LIGAND FREE ENERGY PREDICTED BY IDOCK:   -0.09 KCAL/MOL
REMARK 927      BINDING AFFINITY PREDICTED BY RF-SCORE:    0.00 PKD
ROOT
HETATM    1  C   UNL     1     -12.280  13.559  70.326  1.00  0.00    -0.347 C  
HETATM    2  N   UNL     1     -12.247  12.106  70.401  1.00  0.00    -0.330 N  
HETATM    3  C   UNL     1     -11.618  11.352  69.363  1.00  0.00    -0.323 A  
HETATM    4  C   UNL     1     -10.994  10.105  69.583  1.00  0.00    -0.305 A  
HETATM    5  C   UNL     1     -10.448   9.381  68.507  1.00  0.00    -0.239 A  
HETATM    6  C   UNL     1     -10.823   9.525  70.952  1.00  0.00    -0.337 C  
HETATM    7  N   UNL     1     -11.770   9.451  71.827  1.00  0.00    -0.385 NA 
HETATM    8  C   UNL     1     -10.459   9.919  67.225  1.00  0.00    -0.258 A  
HETATM    9  O   UNL     1     -13.474  12.221  72.351  1.00  0.00    -0.467 OA 
HETATM   10  H   UNL     1     -14.935   9.936  72.179  1.00  0.00     0.000 HD 
HETATM   11  H   UNL     1     -11.604   9.028  72.740  1.00  0.00     0.000 HD 
HETATM   12  C   UNL     1     -11.033  11.160  66.993  1.00  0.00    -0.348 A  
HETATM   13 CL   UNL     1      -9.735   9.053  65.927  1.00  0.00    -0.336 Cl 
HETATM   14  C   UNL     1     -13.078   9.986  71.481  1.00  0.00    -0.433 C  
HETATM   15  C   UNL     1     -11.615  11.865  68.052  1.00  0.00    -0.401 A  
HETATM   16  O   UNL     1     -14.080   9.587  72.405  1.00  0.00    -0.335 OA 
HETATM   17  C   UNL     1     -12.945  11.532  71.469  1.00  0.00    -0.380 C  
ENDROOT
BRANCH   6  18
HETATM   18  C   UNL     1      -9.484   8.965  71.350  1.00  0.00    -0.344 A  
HETATM   19  C   UNL     1      -8.303   9.313  70.683  1.00  0.00    -0.245 A  
HETATM   20  C   UNL     1      -7.045   7.817  72.109  1.00  0.00    -0.072 A  
HETATM   21  C   UNL     1      -7.089   8.729  71.055  1.00  0.00    -0.084 A  
HETATM   22  C   UNL     1      -8.210   7.496  72.804  1.00  0.00    -0.145 A  
HETATM   23  C   UNL     1      -9.425   8.071  72.429  1.00  0.00    -0.279 A  
ENDBRANCH   6  18
TORSDOF 1
ENDMDL
MODEL       39
REMARK 921   NORMALIZED FREE ENERGY PREDICTED BY IDOCK:   -5.80 KCAL/MOL
REMARK 922        TOTAL FREE ENERGY PREDICTED BY IDOCK:   -6.43 KCAL/MOL
REMARK 923 INTER-LIGAND FREE ENERGY PREDICTED BY IDOCK:   -5.93 KCAL/MOL
REMARK 924 INTRA-LIGAND FREE ENERGY PREDICTED BY IDOCK:   -0.50 KCAL/MOL
REMARK 927      BINDING AFFINITY PREDICTED BY RF-SCORE:    0.00 PKD
ROOT
HETATM    1  C   UNL     1      -7.746  12.593  67.333  1.00  0.00    -0.161 C  
HETATM    2  N   UNL     1      -9.045  12.071  67.731  1.00  0.00    -0.179 N  
HETATM    3  C   UNL     1      -9.390  10.715  67.443  1.00  0.00    -0.143 A  
HETATM    4  C   UNL     1     -10.258   9.950  68.250  1.00  0.00    -0.204 A  
HETATM    5  C   UNL     1     -10.608   8.638  67.878  1.00  0.00    -0.223 A  
HETATM    6  C   UNL     1     -10.793  10.454  69.554  1.00  0.00    -0.255 C  
HETATM    7  N   UNL     1     -11.320  11.621  69.713  1.00  0.00    -0.448 NA 
HETATM    8  C   UNL     1     -10.048   8.060  66.744  1.00  0.00    -0.287 A  
HETATM    9  O   UNL     1      -9.591  14.165  68.534  1.00  0.00    -0.217 OA 
HETATM   10  H   UNL     1     -12.266  14.219  68.060  1.00  0.00     0.000 HD 
HETATM   11  H   UNL     1     -11.687  11.908  70.621  1.00  0.00     0.000 HD 
HETATM   12  C   UNL     1      -9.162   8.781  65.957  1.00  0.00    -0.282 A  
HETATM   13 CL   UNL     1     -10.436   6.437  66.330  1.00  0.00    -0.109 Cl 
HETATM   14  C   UNL     1     -11.380  12.518  68.570  1.00  0.00    -0.297 C  
HETATM   15  C   UNL     1      -8.844  10.100  66.300  1.00  0.00    -0.163 A  
HETATM   16  O   UNL     1     -12.227  13.633  68.807  1.00  0.00    -0.339 OA 
HETATM   17  C   UNL     1      -9.929  12.998  68.296  1.00  0.00    -0.235 C  
ENDROOT
BRANCH   6  18
HETATM   18  C   UNL     1     -10.747   9.558  70.762  1.00  0.00    -0.391 A  
HETATM   19  C   UNL     1      -9.539   9.116  71.315  1.00  0.00    -0.331 A  
HETATM   20  C   UNL     1     -10.755   7.831  72.968  1.00  0.00    -0.446 A  
HETATM   21  C   UNL     1      -9.546   8.243  72.408  1.00  0.00    -0.364 A  
HETATM   22  C   UNL     1     -11.960   8.300  72.448  1.00  0.00    -0.447 A  
HETATM   23  C   UNL     1     -11.956   9.163  71.351  1.00  0.00    -0.410 A  
ENDBRANCH   6  18
TORSDOF 1
ENDMDL
MODEL       40
REMARK 921   NORMALIZED FREE ENERGY PREDICTED BY IDOCK:   -5.79 KCAL/MOL
REMARK 922        TOTAL FREE ENERGY PREDICTED BY IDOCK:   -6.42 KCAL/MOL
REMARK 923 INTER-LIGAND FREE ENERGY PREDICTED BY IDOCK:   -5.93 KCAL/MOL
REMARK 924 INTRA-LIGAND FREE ENERGY PREDICTED BY IDOCK:   -0.49 KCAL/MOL
REMARK 927      BINDING AFFINITY PREDICTED BY RF-SCORE:    0.00 PKD
ROOT
HETATM    1  C   UNL     1     -12.184  13.977  70.739  1.00  0.00    -0.367 C  
HETATM    2  N   UNL     1     -12.208  12.570  70.372  1.00  0.00    -0.333 N  
HETATM    3  C   UNL     1     -11.750  12.160  69.082  1.00  0.00    -0.328 A  
HETATM    4  C   UNL     1     -11.161  10.901  68.834  1.00  0.00    -0.307 A  
HETATM    5  C   UNL     1     -10.788  10.533  67.528  1.00  0.00    -0.357 A  
HETATM    6  C   UNL     1     -10.845   9.934  69.932  1.00  0.00    -0.278 C  
HETATM    7  N   UNL     1     -11.677   9.605  70.863  1.00  0.00    -0.310 NA 
HETATM    8  C   UNL     1     -10.936  11.433  66.478  1.00  0.00    -0.272 A  
HETATM    9  O   UNL     1     -13.173  12.097  72.414  1.00  0.00    -0.375 OA 
HETATM   10  H   UNL     1     -14.747   9.979  71.764  1.00  0.00     0.000 HD 
HETATM   11  H   UNL     1     -11.416   8.925  71.577  1.00  0.00     0.000 HD 
HETATM   12  C   UNL     1     -11.477  12.690  66.706  1.00  0.00    -0.410 A  
HETATM   13 CL   UNL     1     -10.422  10.996  64.896  1.00  0.00    -0.378 Cl 
HETATM   14  C   UNL     1     -12.992  10.227  70.871  1.00  0.00    -0.371 C  
HETATM   15  C   UNL     1     -11.888  13.045  67.995  1.00  0.00    -0.391 A  
HETATM   16  O   UNL     1     -13.887   9.573  71.759  1.00  0.00    -0.326 OA 
HETATM   17  C   UNL     1     -12.791  11.703  71.304  1.00  0.00    -0.328 C  
ENDROOT
BRANCH   6  18
HETATM   18  C   UNL     1      -9.494   9.272  69.961  1.00  0.00    -0.236 A  
HETATM   19  C   UNL     1      -8.308  10.007  70.077  1.00  0.00    -0.137 A  
HETATM   20  C   UNL     1      -7.018   7.965  69.933  1.00  0.00    -0.050 A  
HETATM   21  C   UNL     1      -7.073   9.353  70.049  1.00  0.00    -0.083 A  
HETATM   22  C   UNL     1      -8.196   7.223  69.859  1.00  0.00    -0.133 A  
HETATM   23  C   UNL     1      -9.430   7.874  69.877  1.00  0.00    -0.160 A  
ENDBRANCH   6  18
TORSDOF 1
ENDMDL
MODEL       41
REMARK 921   NORMALIZED FREE ENERGY PREDICTED BY IDOCK:   -5.73 KCAL/MOL
REMARK 922        TOTAL FREE ENERGY PREDICTED BY IDOCK:   -6.35 KCAL/MOL
REMARK 923 INTER-LIGAND FREE ENERGY PREDICTED BY IDOCK:   -6.21 KCAL/MOL
REMARK 924 INTRA-LIGAND FREE ENERGY PREDICTED BY IDOCK:   -0.15 KCAL/MOL
REMARK 927      BINDING AFFINITY PREDICTED BY RF-SCORE:    0.00 PKD
ROOT
HETATM    1  C   UNL     1     -12.408   7.005  71.264  1.00  0.00    -0.383 C  
HETATM    2  N   UNL     1     -12.016   8.398  71.114  1.00  0.00    -0.289 N  
HETATM    3  C   UNL     1     -10.679   8.728  70.734  1.00  0.00    -0.228 A  
HETATM    4  C   UNL     1     -10.347   9.881  69.991  1.00  0.00    -0.320 A  
HETATM    5  C   UNL     1      -9.003  10.182  69.703  1.00  0.00    -0.190 A  
HETATM    6  C   UNL     1     -11.387  10.795  69.423  1.00  0.00    -0.285 C  
HETATM    7  N   UNL     1     -12.391  11.250  70.095  1.00  0.00    -0.291 NA 
HETATM    8  C   UNL     1      -7.992   9.310  70.091  1.00  0.00    -0.137 A  
HETATM    9  O   UNL     1     -14.135   9.022  71.782  1.00  0.00    -0.374 OA 
HETATM   10  H   UNL     1     -13.604  11.351  73.077  1.00  0.00     0.000 HD 
HETATM   11  H   UNL     1     -13.061  11.886  69.664  1.00  0.00     0.000 HD 
HETATM   12  C   UNL     1      -8.299   8.151  70.789  1.00  0.00    -0.120 A  
HETATM   13 CL   UNL     1      -6.358   9.656  69.683  1.00  0.00    -0.043 Cl 
HETATM   14  C   UNL     1     -12.544  10.836  71.481  1.00  0.00    -0.395 C  
HETATM   15  C   UNL     1      -9.630   7.869  71.115  1.00  0.00    -0.181 A  
HETATM   16  O   UNL     1     -13.504  11.622  72.172  1.00  0.00    -0.423 OA 
HETATM   17  C   UNL     1     -12.984   9.348  71.461  1.00  0.00    -0.371 C  
ENDROOT
BRANCH   6  18
HETATM   18  C   UNL     1     -11.267  11.244  67.992  1.00  0.00    -0.351 A  
HETATM   19  C   UNL     1     -11.767  12.477  67.554  1.00  0.00    -0.439 A  
HETATM   20  C   UNL     1     -11.068  11.968  65.293  1.00  0.00    -0.367 A  
HETATM   21  C   UNL     1     -11.677  12.830  66.204  1.00  0.00    -0.458 A  
HETATM   22  C   UNL     1     -10.533  10.757  65.729  1.00  0.00    -0.256 A  
HETATM   23  C   UNL     1     -10.628  10.398  67.074  1.00  0.00    -0.305 A  
ENDBRANCH   6  18
TORSDOF 1
ENDMDL
MODEL       42
REMARK 921   NORMALIZED FREE ENERGY PREDICTED BY IDOCK:   -5.73 KCAL/MOL
REMARK 922        TOTAL FREE ENERGY PREDICTED BY IDOCK:   -6.35 KCAL/MOL
REMARK 923 INTER-LIGAND FREE ENERGY PREDICTED BY IDOCK:   -5.95 KCAL/MOL
REMARK 924 INTRA-LIGAND FREE ENERGY PREDICTED BY IDOCK:   -0.40 KCAL/MOL
REMARK 927      BINDING AFFINITY PREDICTED BY RF-SCORE:    0.00 PKD
ROOT
HETATM    1  C   UNL     1     -11.840  12.517  70.211  1.00  0.00    -0.223 C  
HETATM    2  N   UNL     1     -12.019  11.107  70.521  1.00  0.00    -0.361 N  
HETATM    3  C   UNL     1     -11.383  10.112  69.716  1.00  0.00    -0.256 A  
HETATM    4  C   UNL     1     -10.969   8.860  70.218  1.00  0.00    -0.266 A  
HETATM    5  C   UNL     1     -10.406   7.898  69.359  1.00  0.00    -0.220 A  
HETATM    6  C   UNL     1     -11.044   8.514  71.673  1.00  0.00    -0.290 C  
HETATM    7  N   UNL     1     -12.088   8.709  72.407  1.00  0.00    -0.370 NA 
HETATM    8  C   UNL     1     -10.190   8.198  68.019  1.00  0.00    -0.212 A  
HETATM    9  O   UNL     1     -13.440  11.708  72.237  1.00  0.00    -0.397 OA 
HETATM   10  H   UNL     1     -15.174   9.616  72.229  1.00  0.00     0.000 HD 
HETATM   11  H   UNL     1     -12.092   8.437  73.390  1.00  0.00     0.000 HD 
HETATM   12  C   UNL     1     -10.554   9.437  67.513  1.00  0.00    -0.333 A  
HETATM   13 CL   UNL     1      -9.446   7.038  66.990  1.00  0.00    -0.171 Cl 
HETATM   14  C   UNL     1     -13.259   9.323  71.800  1.00  0.00    -0.403 C  
HETATM   15  C   UNL     1     -11.153  10.381  68.353  1.00  0.00    -0.322 A  
HETATM   16  O   UNL     1     -14.409   9.215  72.626  1.00  0.00    -0.561 OA 
HETATM   17  C   UNL     1     -12.911  10.816  71.559  1.00  0.00    -0.456 C  
ENDROOT
BRANCH   6  18
HETATM   18  C   UNL     1      -9.853   7.881  72.339  1.00  0.00    -0.287 A  
HETATM   19  C   UNL     1      -8.554   8.380  72.174  1.00  0.00    -0.257 A  
HETATM   20  C   UNL     1      -7.683   6.594  73.556  1.00  0.00    -0.090 A  
HETATM   21  C   UNL     1      -7.472   7.728  72.772  1.00  0.00    -0.121 A  
HETATM   22  C   UNL     1      -8.976   6.116  73.758  1.00  0.00    -0.129 A  
HETATM   23  C   UNL     1     -10.058   6.759  73.155  1.00  0.00    -0.227 A  
ENDBRANCH   6  18
TORSDOF 1
ENDMDL
MODEL       43
REMARK 921   NORMALIZED FREE ENERGY PREDICTED BY IDOCK:   -5.72 KCAL/MOL
REMARK 922        TOTAL FREE ENERGY PREDICTED BY IDOCK:   -6.34 KCAL/MOL
REMARK 923 INTER-LIGAND FREE ENERGY PREDICTED BY IDOCK:   -5.85 KCAL/MOL
REMARK 924 INTRA-LIGAND FREE ENERGY PREDICTED BY IDOCK:   -0.49 KCAL/MOL
REMARK 927      BINDING AFFINITY PREDICTED BY RF-SCORE:    0.00 PKD
ROOT
HETATM    1  C   UNL     1     -10.409   9.290  66.647  1.00  0.00    -0.222 C  
HETATM    2  N   UNL     1      -9.928  10.630  66.946  1.00  0.00    -0.195 N  
HETATM    3  C   UNL     1     -10.552  11.765  66.343  1.00  0.00    -0.255 A  
HETATM    4  C   UNL     1     -10.622  13.030  66.964  1.00  0.00    -0.262 A  
HETATM    5  C   UNL     1     -11.196  14.125  66.290  1.00  0.00    -0.329 A  
HETATM    6  C   UNL     1     -10.161  13.261  68.369  1.00  0.00    -0.237 C  
HETATM    7  N   UNL     1      -9.025  12.855  68.829  1.00  0.00    -0.387 NA 
HETATM    8  C   UNL     1     -11.759  13.954  65.030  1.00  0.00    -0.359 A  
HETATM    9  O   UNL     1      -8.276   9.698  68.260  1.00  0.00    -0.105 OA 
HETATM   10  H   UNL     1      -6.260  11.485  67.902  1.00  0.00     0.000 HD 
HETATM   11  H   UNL     1      -8.751  13.056  69.791  1.00  0.00     0.000 HD 
HETATM   12  C   UNL     1     -11.736  12.709  64.418  1.00  0.00    -0.431 A  
HETATM   13 CL   UNL     1     -12.511  15.283  64.240  1.00  0.00    -0.237 Cl 
HETATM   14  C   UNL     1      -8.145  12.105  67.946  1.00  0.00    -0.153 C  
HETATM   15  C   UNL     1     -11.130  11.628  65.066  1.00  0.00    -0.312 A  
HETATM   16  O   UNL     1      -6.835  11.975  68.480  1.00  0.00    -0.066 OA 
HETATM   17  C   UNL     1      -8.786  10.705  67.752  1.00  0.00    -0.129 C  
ENDROOT
BRANCH   6  18
HETATM   18  C   UNL     1     -11.043  14.029  69.315  1.00  0.00    -0.271 A  
HETATM   19  C   UNL     1     -12.221  13.484  69.842  1.00  0.00    -0.356 A  
HETATM   20  C   UNL     1     -12.666  15.556  71.012  1.00  0.00    -0.526 A  
HETATM   21  C   UNL     1     -13.035  14.253  70.679  1.00  0.00    -0.318 A  
HETATM   22  C   UNL     1     -11.475  16.090  70.523  1.00  0.00    -0.409 A  
HETATM   23  C   UNL     1     -10.664  15.328  69.681  1.00  0.00    -0.289 A  
ENDBRANCH   6  18
TORSDOF 1
ENDMDL
MODEL       44
REMARK 921   NORMALIZED FREE ENERGY PREDICTED BY IDOCK:   -5.71 KCAL/MOL
REMARK 922        TOTAL FREE ENERGY PREDICTED BY IDOCK:   -6.33 KCAL/MOL
REMARK 923 INTER-LIGAND FREE ENERGY PREDICTED BY IDOCK:   -5.86 KCAL/MOL
REMARK 924 INTRA-LIGAND FREE ENERGY PREDICTED BY IDOCK:   -0.47 KCAL/MOL
REMARK 927      BINDING AFFINITY PREDICTED BY RF-SCORE:    0.00 PKD
ROOT
HETATM    1  C   UNL     1     -11.219   5.995  69.924  1.00  0.00    -0.368 C  
HETATM    2  N   UNL     1     -11.170   7.377  70.375  1.00  0.00    -0.269 N  
HETATM    3  C   UNL     1     -10.001   8.164  70.141  1.00  0.00    -0.187 A  
HETATM    4  C   UNL     1     -10.034   9.563  69.956  1.00  0.00    -0.274 A  
HETATM    5  C   UNL     1      -8.840  10.289  69.792  1.00  0.00    -0.070 A  
HETATM    6  C   UNL     1     -11.317  10.328  69.859  1.00  0.00    -0.290 C  
HETATM    7  N   UNL     1     -12.299  10.195  70.685  1.00  0.00    -0.380 NA 
HETATM    8  C   UNL     1      -7.619   9.627  69.745  1.00  0.00    -0.123 A  
HETATM    9  O   UNL     1     -13.268   7.106  71.297  1.00  0.00    -0.377 OA 
HETATM   10  H   UNL     1     -13.103   8.753  73.452  1.00  0.00     0.000 HD 
HETATM   11  H   UNL     1     -13.145  10.755  70.584  1.00  0.00     0.000 HD 
HETATM   12  C   UNL     1      -7.566   8.248  69.887  1.00  0.00    -0.080 A  
HETATM   13 CL   UNL     1      -6.170  10.517  69.485  1.00  0.00    -0.048 Cl 
HETATM   14  C   UNL     1     -12.174   9.226  71.763  1.00  0.00    -0.385 C  
HETATM   15  C   UNL     1      -8.746   7.525  70.092  1.00  0.00    -0.142 A  
HETATM   16  O   UNL     1     -13.185   9.386  72.747  1.00  0.00    -0.303 OA 
HETATM   17  C   UNL     1     -12.271   7.818  71.119  1.00  0.00    -0.268 C  
ENDROOT
BRANCH   6  18
HETATM   18  C   UNL     1     -11.488  11.337  68.755  1.00  0.00    -0.359 A  
HETATM   19  C   UNL     1     -11.369  10.989  67.404  1.00  0.00    -0.306 A  
HETATM   20  C   UNL     1     -11.749  13.293  66.768  1.00  0.00    -0.434 A  
HETATM   21  C   UNL     1     -11.487  11.970  66.415  1.00  0.00    -0.417 A  
HETATM   22  C   UNL     1     -11.909  13.639  68.109  1.00  0.00    -0.407 A  
HETATM   23  C   UNL     1     -11.783  12.663  69.099  1.00  0.00    -0.375 A  
ENDBRANCH   6  18
TORSDOF 1
ENDMDL
MODEL       45
REMARK 921   NORMALIZED FREE ENERGY PREDICTED BY IDOCK:   -5.65 KCAL/MOL
REMARK 922        TOTAL FREE ENERGY PREDICTED BY IDOCK:   -6.27 KCAL/MOL
REMARK 923 INTER-LIGAND FREE ENERGY PREDICTED BY IDOCK:   -6.00 KCAL/MOL
REMARK 924 INTRA-LIGAND FREE ENERGY PREDICTED BY IDOCK:   -0.28 KCAL/MOL
REMARK 927      BINDING AFFINITY PREDICTED BY RF-SCORE:    0.00 PKD
ROOT
HETATM    1  C   UNL     1      -7.546  12.741  67.362  1.00  0.00    -0.152 C  
HETATM    2  N   UNL     1      -8.929  12.296  67.435  1.00  0.00    -0.175 N  
HETATM    3  C   UNL     1      -9.246  10.916  67.250  1.00  0.00    -0.151 A  
HETATM    4  C   UNL     1     -10.346  10.284  67.869  1.00  0.00    -0.234 A  
HETATM    5  C   UNL     1     -10.642   8.936  67.595  1.00  0.00    -0.292 A  
HETATM    6  C   UNL     1     -11.203  10.978  68.881  1.00  0.00    -0.265 C  
HETATM    7  N   UNL     1     -11.694  12.161  68.719  1.00  0.00    -0.306 NA 
HETATM    8  C   UNL     1      -9.813   8.193  66.762  1.00  0.00    -0.259 A  
HETATM    9  O   UNL     1      -9.573  14.489  67.751  1.00  0.00    -0.209 OA 
HETATM   10  H   UNL     1     -11.997  14.498  66.522  1.00  0.00     0.000 HD 
HETATM   11  H   UNL     1     -12.288  12.581  69.433  1.00  0.00     0.000 HD 
HETATM   12  C   UNL     1      -8.704   8.783  66.173  1.00  0.00    -0.184 A  
HETATM   13 CL   UNL     1     -10.149   6.530  66.481  1.00  0.00    -0.187 Cl 
HETATM   14  C   UNL     1     -11.380  12.882  67.495  1.00  0.00    -0.308 C  
HETATM   15  C   UNL     1      -8.430  10.134  66.408  1.00  0.00    -0.133 A  
HETATM   16  O   UNL     1     -12.202  14.027  67.322  1.00  0.00    -0.405 OA 
HETATM   17  C   UNL     1      -9.889  13.303  67.589  1.00  0.00    -0.230 C  
ENDROOT
BRANCH   6  18
HETATM   18  C   UNL     1     -11.548  10.269  70.162  1.00  0.00    -0.376 A  
HETATM   19  C   UNL     1     -10.647   9.409  70.802  1.00  0.00    -0.371 A  
HETATM   20  C   UNL     1     -12.300   8.930  72.504  1.00  0.00    -0.325 A  
HETATM   21  C   UNL     1     -11.029   8.732  71.964  1.00  0.00    -0.438 A  
HETATM   22  C   UNL     1     -13.187   9.815  71.894  1.00  0.00    -0.545 A  
HETATM   23  C   UNL     1     -12.811  10.485  70.729  1.00  0.00    -0.454 A  
ENDBRANCH   6  18
TORSDOF 1
ENDMDL
MODEL       46
REMARK 921   NORMALIZED FREE ENERGY PREDICTED BY IDOCK:   -5.64 KCAL/MOL
REMARK 922        TOTAL FREE ENERGY PREDICTED BY IDOCK:   -6.26 KCAL/MOL
REMARK 923 INTER-LIGAND FREE ENERGY PREDICTED BY IDOCK:   -6.37 KCAL/MOL
REMARK 924 INTRA-LIGAND FREE ENERGY PREDICTED BY IDOCK:    0.11 KCAL/MOL
REMARK 927      BINDING AFFINITY PREDICTED BY RF-SCORE:    0.00 PKD
ROOT
HETATM    1  C   UNL     1     -11.916  11.761  63.435  1.00  0.00    -0.338 C  
HETATM    2  N   UNL     1     -10.918  11.404  64.432  1.00  0.00    -0.330 N  
HETATM    3  C   UNL     1     -11.118  11.757  65.801  1.00  0.00    -0.297 A  
HETATM    4  C   UNL     1     -10.614  10.996  66.878  1.00  0.00    -0.307 A  
HETATM    5  C   UNL     1     -10.792  11.432  68.205  1.00  0.00    -0.259 A  
HETATM    6  C   UNL     1      -9.934   9.678  66.679  1.00  0.00    -0.236 C  
HETATM    7  N   UNL     1      -9.000   9.473  65.812  1.00  0.00    -0.167 NA 
HETATM    8  C   UNL     1     -11.525  12.583  68.470  1.00  0.00    -0.305 A  
HETATM    9  O   UNL     1      -9.616  10.514  62.747  1.00  0.00    -0.306 OA 
HETATM   10  H   UNL     1      -7.122  11.020  63.701  1.00  0.00     0.000 HD 
HETATM   11  H   UNL     1      -8.556   8.559  65.730  1.00  0.00     0.000 HD 
HETATM   12  C   UNL     1     -12.062  13.325  67.429  1.00  0.00    -0.327 A  
HETATM   13 CL   UNL     1     -11.787  13.075  70.097  1.00  0.00    -0.363 Cl 
HETATM   14  C   UNL     1      -8.595  10.576  64.953  1.00  0.00    -0.172 C  
HETATM   15  C   UNL     1     -11.852  12.919  66.107  1.00  0.00    -0.487 A  
HETATM   16  O   UNL     1      -7.386  10.300  64.261  1.00  0.00    -0.134 OA 
HETATM   17  C   UNL     1      -9.750  10.808  63.943  1.00  0.00    -0.313 C  
ENDROOT
BRANCH   6  18
HETATM   18  C   UNL     1     -10.326   8.511  67.544  1.00  0.00    -0.334 A  
HETATM   19  C   UNL     1     -10.378   8.604  68.941  1.00  0.00    -0.228 A  
HETATM   20  C   UNL     1     -10.993   6.268  69.082  1.00  0.00    -0.442 A  
HETATM   21  C   UNL     1     -10.698   7.479  69.707  1.00  0.00    -0.249 A  
HETATM   22  C   UNL     1     -10.983   6.179  67.692  1.00  0.00    -0.400 A  
HETATM   23  C   UNL     1     -10.655   7.297  66.925  1.00  0.00    -0.375 A  
ENDBRANCH   6  18
TORSDOF 1
ENDMDL
MODEL       47
REMARK 921   NORMALIZED FREE ENERGY PREDICTED BY IDOCK:   -5.59 KCAL/MOL
REMARK 922        TOTAL FREE ENERGY PREDICTED BY IDOCK:   -6.21 KCAL/MOL
REMARK 923 INTER-LIGAND FREE ENERGY PREDICTED BY IDOCK:   -6.04 KCAL/MOL
REMARK 924 INTRA-LIGAND FREE ENERGY PREDICTED BY IDOCK:   -0.17 KCAL/MOL
REMARK 927      BINDING AFFINITY PREDICTED BY RF-SCORE:    0.00 PKD
ROOT
HETATM    1  C   UNL     1      -8.792   8.639  65.498  1.00  0.00    -0.179 C  
HETATM    2  N   UNL     1      -8.848   9.776  66.404  1.00  0.00    -0.144 N  
HETATM    3  C   UNL     1      -9.862  10.770  66.243  1.00  0.00    -0.215 A  
HETATM    4  C   UNL     1     -10.396  11.512  67.318  1.00  0.00    -0.236 A  
HETATM    5  C   UNL     1     -11.348  12.522  67.084  1.00  0.00    -0.381 A  
HETATM    6  C   UNL     1     -10.037  11.230  68.743  1.00  0.00    -0.194 C  
HETATM    7  N   UNL     1      -8.827  11.077  69.165  1.00  0.00    -0.376 NA 
HETATM    8  C   UNL     1     -11.821  12.753  65.797  1.00  0.00    -0.434 A  
HETATM    9  O   UNL     1      -6.950   8.982  67.449  1.00  0.00    -0.076 OA 
HETATM   10  H   UNL     1      -5.762  11.307  68.200  1.00  0.00     0.000 HD 
HETATM   11  H   UNL     1      -8.637  10.905  70.151  1.00  0.00     0.000 HD 
HETATM   12  C   UNL     1     -11.338  12.008  64.731  1.00  0.00    -0.369 A  
HETATM   13 CL   UNL     1     -13.028  13.949  65.530  1.00  0.00    -0.486 Cl 
HETATM   14  C   UNL     1      -7.740  11.155  68.200  1.00  0.00    -0.107 C  
HETATM   15  C   UNL     1     -10.361  11.032  64.952  1.00  0.00    -0.378 A  
HETATM   16  O   UNL     1      -6.471  11.256  68.830  1.00  0.00    -0.054 OA 
HETATM   17  C   UNL     1      -7.809   9.867  67.338  1.00  0.00    -0.098 C  
ENDROOT
BRANCH   6  18
HETATM   18  C   UNL     1     -11.132  11.138  69.771  1.00  0.00    -0.271 A  
HETATM   19  C   UNL     1     -11.815  12.269  70.235  1.00  0.00    -0.324 A  
HETATM   20  C   UNL     1     -13.106  10.883  71.742  1.00  0.00    -0.564 A  
HETATM   21  C   UNL     1     -12.790  12.141  71.228  1.00  0.00    -0.349 A  
HETATM   22  C   UNL     1     -12.459   9.749  71.255  1.00  0.00    -0.461 A  
HETATM   23  C   UNL     1     -11.478   9.874  70.271  1.00  0.00    -0.349 A  
ENDBRANCH   6  18
TORSDOF 1
ENDMDL
MODEL       48
REMARK 921   NORMALIZED FREE ENERGY PREDICTED BY IDOCK:   -5.58 KCAL/MOL
REMARK 922        TOTAL FREE ENERGY PREDICTED BY IDOCK:   -6.20 KCAL/MOL
REMARK 923 INTER-LIGAND FREE ENERGY PREDICTED BY IDOCK:   -5.74 KCAL/MOL
REMARK 924 INTRA-LIGAND FREE ENERGY PREDICTED BY IDOCK:   -0.46 KCAL/MOL
REMARK 927      BINDING AFFINITY PREDICTED BY RF-SCORE:    0.00 PKD
ROOT
HETATM    1  C   UNL     1     -10.028  18.101  66.223  1.00  0.00    -0.342 C  
HETATM    2  N   UNL     1     -10.473  16.914  66.936  1.00  0.00    -0.300 N  
HETATM    3  C   UNL     1     -10.889  15.757  66.209  1.00  0.00    -0.232 A  
HETATM    4  C   UNL     1     -10.745  14.441  66.701  1.00  0.00    -0.292 A  
HETATM    5  C   UNL     1     -11.233  13.347  65.962  1.00  0.00    -0.310 A  
HETATM    6  C   UNL     1     -10.023  14.136  67.976  1.00  0.00    -0.226 C  
HETATM    7  N   UNL     1     -10.227  14.763  69.086  1.00  0.00    -0.271 NA 
HETATM    8  C   UNL     1     -11.802  13.545  64.710  1.00  0.00    -0.381 A  
HETATM    9  O   UNL     1     -10.184  18.053  68.923  1.00  0.00    -0.379 OA 
HETATM   10  H   UNL     1     -12.158  16.959  70.437  1.00  0.00     0.000 HD 
HETATM   11  H   UNL     1      -9.720  14.502  69.932  1.00  0.00     0.000 HD 
HETATM   12  C   UNL     1     -11.919  14.827  64.191  1.00  0.00    -0.282 A  
HETATM   13 CL   UNL     1     -12.341  12.196  63.790  1.00  0.00    -0.617 Cl 
HETATM   14  C   UNL     1     -11.194  15.848  69.104  1.00  0.00    -0.334 C  
HETATM   15  C   UNL     1     -11.474  15.922  64.939  1.00  0.00    -0.162 A  
HETATM   16  O   UNL     1     -11.525  16.250  70.426  1.00  0.00    -0.355 OA 
HETATM   17  C   UNL     1     -10.559  17.033  68.329  1.00  0.00    -0.372 C  
ENDROOT
BRANCH   6  18
HETATM   18  C   UNL     1      -9.011  13.023  67.998  1.00  0.00    -0.199 A  
HETATM   19  C   UNL     1      -7.723  13.177  67.470  1.00  0.00    -0.168 A  
HETATM   20  C   UNL     1      -7.215  10.874  68.015  1.00  0.00    -0.086 A  
HETATM   21  C   UNL     1      -6.833  12.099  67.468  1.00  0.00    -0.127 A  
HETATM   22  C   UNL     1      -8.481  10.726  68.579  1.00  0.00    -0.143 A  
HETATM   23  C   UNL     1      -9.375  11.798  68.575  1.00  0.00    -0.158 A  
ENDBRANCH   6  18
TORSDOF 1
ENDMDL
MODEL       49
REMARK 921   NORMALIZED FREE ENERGY PREDICTED BY IDOCK:   -5.56 KCAL/MOL
REMARK 922        TOTAL FREE ENERGY PREDICTED BY IDOCK:   -6.18 KCAL/MOL
REMARK 923 INTER-LIGAND FREE ENERGY PREDICTED BY IDOCK:   -5.69 KCAL/MOL
REMARK 924 INTRA-LIGAND FREE ENERGY PREDICTED BY IDOCK:   -0.49 KCAL/MOL
REMARK 927      BINDING AFFINITY PREDICTED BY RF-SCORE:    0.00 PKD
ROOT
HETATM    1  C   UNL     1     -11.770  15.087  67.396  1.00  0.00    -0.239 C  
HETATM    2  N   UNL     1     -11.187  14.002  66.621  1.00  0.00    -0.316 N  
HETATM    3  C   UNL     1      -9.856  13.563  66.895  1.00  0.00    -0.257 A  
HETATM    4  C   UNL     1      -9.422  12.235  66.696  1.00  0.00    -0.227 A  
HETATM    5  C   UNL     1      -8.079  11.880  66.924  1.00  0.00    -0.146 A  
HETATM    6  C   UNL     1     -10.360  11.136  66.303  1.00  0.00    -0.249 C  
HETATM    7  N   UNL     1     -11.218  11.231  65.343  1.00  0.00    -0.077 NA 
HETATM    8  C   UNL     1      -7.181  12.822  67.412  1.00  0.00    -0.132 A  
HETATM    9  O   UNL     1     -13.119  13.922  65.361  1.00  0.00    -0.752 OA 
HETATM   10  H   UNL     1     -12.128  13.177  62.943  1.00  0.00     0.000 HD 
HETATM   11  H   UNL     1     -11.821  10.444  65.104  1.00  0.00     0.000 HD 
HETATM   12  C   UNL     1      -7.595  14.125  67.652  1.00  0.00    -0.193 A  
HETATM   13 CL   UNL     1      -5.557  12.365  67.745  1.00  0.00    -0.086 Cl 
HETATM   14  C   UNL     1     -11.307  12.485  64.611  1.00  0.00    -0.318 C  
HETATM   15  C   UNL     1      -8.918  14.492  67.386  1.00  0.00    -0.207 A  
HETATM   16  O   UNL     1     -12.071  12.358  63.421  1.00  0.00    -0.508 OA 
HETATM   17  C   UNL     1     -11.966  13.518  65.563  1.00  0.00    -0.390 C  
ENDROOT
BRANCH   6  18
HETATM   18  C   UNL     1     -10.303   9.824  67.037  1.00  0.00    -0.305 A  
HETATM   19  C   UNL     1      -9.931   8.632  66.404  1.00  0.00    -0.331 A  
HETATM   20  C   UNL     1     -10.297   7.413  68.463  1.00  0.00    -0.221 A  
HETATM   21  C   UNL     1      -9.942   7.428  67.114  1.00  0.00    -0.281 A  
HETATM   22  C   UNL     1     -10.630   8.602  69.110  1.00  0.00    -0.193 A  
HETATM   23  C   UNL     1     -10.629   9.805  68.401  1.00  0.00    -0.264 A  
ENDBRANCH   6  18
TORSDOF 1
ENDMDL
MODEL       50
REMARK 921   NORMALIZED FREE ENERGY PREDICTED BY IDOCK:   -5.54 KCAL/MOL
REMARK 922        TOTAL FREE ENERGY PREDICTED BY IDOCK:   -6.15 KCAL/MOL
REMARK 923 INTER-LIGAND FREE ENERGY PREDICTED BY IDOCK:   -5.69 KCAL/MOL
REMARK 924 INTRA-LIGAND FREE ENERGY PREDICTED BY IDOCK:   -0.46 KCAL/MOL
REMARK 927      BINDING AFFINITY PREDICTED BY RF-SCORE:    0.00 PKD
ROOT
HETATM    1  C   UNL     1      -7.033  19.484  69.489  1.00  0.00    -0.267 C  
HETATM    2  N   UNL     1      -7.050  18.504  68.413  1.00  0.00    -0.262 N  
HETATM    3  C   UNL     1      -6.873  17.117  68.706  1.00  0.00    -0.209 A  
HETATM    4  C   UNL     1      -7.451  16.085  67.937  1.00  0.00    -0.142 A  
HETATM    5  C   UNL     1      -7.187  14.736  68.242  1.00  0.00    -0.115 A  
HETATM    6  C   UNL     1      -8.409  16.357  66.820  1.00  0.00    -0.250 C  
HETATM    7  N   UNL     1      -8.204  17.230  65.892  1.00  0.00    -0.543 NA 
HETATM    8  C   UNL     1      -6.408  14.407  69.344  1.00  0.00    -0.122 A  
HETATM    9  O   UNL     1      -7.296  20.231  66.903  1.00  0.00    -0.258 OA 
HETATM   10  H   UNL     1      -5.954  19.238  64.758  1.00  0.00     0.000 HD 
HETATM   11  H   UNL     1      -8.882  17.363  65.142  1.00  0.00     0.000 HD 
HETATM   12  C   UNL     1      -5.861  15.406  70.137  1.00  0.00    -0.143 A  
HETATM   13 CL   UNL     1      -6.140  12.755  69.743  1.00  0.00    -0.131 Cl 
HETATM   14  C   UNL     1      -6.983  18.021  65.940  1.00  0.00    -0.284 C  
HETATM   15  C   UNL     1      -6.085  16.748  69.814  1.00  0.00    -0.224 A  
HETATM   16  O   UNL     1      -6.752  18.722  64.727  1.00  0.00    -0.455 OA 
HETATM   17  C   UNL     1      -7.140  19.022  67.116  1.00  0.00    -0.203 C  
ENDROOT
BRANCH   6  18
HETATM   18  C   UNL     1      -9.685  15.563  66.737  1.00  0.00    -0.252 A  
HETATM   19  C   UNL     1     -10.600  15.511  67.796  1.00  0.00    -0.281 A  
HETATM   20  C   UNL     1     -12.000  14.001  66.524  1.00  0.00    -0.470 A  
HETATM   21  C   UNL     1     -11.747  14.720  67.693  1.00  0.00    -0.364 A  
HETATM   22  C   UNL     1     -11.114  14.080  65.451  1.00  0.00    -0.318 A  
HETATM   23  C   UNL     1      -9.963  14.862  65.555  1.00  0.00    -0.392 A  
ENDBRANCH   6  18
TORSDOF 1
ENDMDL
MODEL       51
REMARK 921   NORMALIZED FREE ENERGY PREDICTED BY IDOCK:   -5.45 KCAL/MOL
REMARK 922        TOTAL FREE ENERGY PREDICTED BY IDOCK:   -6.06 KCAL/MOL
REMARK 923 INTER-LIGAND FREE ENERGY PREDICTED BY IDOCK:   -5.62 KCAL/MOL
REMARK 924 INTRA-LIGAND FREE ENERGY PREDICTED BY IDOCK:   -0.44 KCAL/MOL
REMARK 927      BINDING AFFINITY PREDICTED BY RF-SCORE:    0.00 PKD
ROOT
HETATM    1  C   UNL     1     -11.014   5.660  72.174  1.00  0.00    -0.250 C  
HETATM    2  N   UNL     1     -11.118   6.539  71.019  1.00  0.00    -0.273 N  
HETATM    3  C   UNL     1     -11.597   7.875  71.178  1.00  0.00    -0.280 A  
HETATM    4  C   UNL     1     -11.187   8.947  70.356  1.00  0.00    -0.259 A  
HETATM    5  C   UNL     1     -11.744  10.228  70.524  1.00  0.00    -0.418 A  
HETATM    6  C   UNL     1     -10.112   8.800  69.325  1.00  0.00    -0.204 C  
HETATM    7  N   UNL     1     -10.064   7.837  68.467  1.00  0.00    -0.194 NA 
HETATM    8  C   UNL     1     -12.656  10.467  71.546  1.00  0.00    -0.439 A  
HETATM    9  O   UNL     1     -10.410   4.795  69.683  1.00  0.00    -0.217 OA 
HETATM   10  H   UNL     1     -11.762   5.322  67.385  1.00  0.00     0.000 HD 
HETATM   11  H   UNL     1      -9.319   7.795  67.772  1.00  0.00     0.000 HD 
HETATM   12  C   UNL     1     -13.043   9.436  72.391  1.00  0.00    -0.458 A  
HETATM   13 CL   UNL     1     -13.285  12.049  71.781  1.00  0.00    -0.510 Cl 
HETATM   14  C   UNL     1     -11.096   6.813  68.513  1.00  0.00    -0.142 C  
HETATM   15  C   UNL     1     -12.525   8.151  72.201  1.00  0.00    -0.364 A  
HETATM   16  O   UNL     1     -11.087   5.991  67.355  1.00  0.00    -0.302 OA 
HETATM   17  C   UNL     1     -10.827   5.957  69.779  1.00  0.00    -0.377 C  
ENDROOT
BRANCH   6  18
HETATM   18  C   UNL     1      -9.024   9.836  69.246  1.00  0.00    -0.177 A  
HETATM   19  C   UNL     1      -9.061  10.886  68.319  1.00  0.00    -0.158 A  
HETATM   20  C   UNL     1      -6.918  11.678  69.118  1.00  0.00    -0.105 A  
HETATM   21  C   UNL     1      -8.002  11.796  68.248  1.00  0.00    -0.147 A  
HETATM   22  C   UNL     1      -6.894  10.661  70.069  1.00  0.00    -0.150 A  
HETATM   23  C   UNL     1      -7.945   9.745  70.136  1.00  0.00    -0.201 A  
ENDBRANCH   6  18
TORSDOF 1
ENDMDL
MODEL       52
REMARK 921   NORMALIZED FREE ENERGY PREDICTED BY IDOCK:   -5.43 KCAL/MOL
REMARK 922        TOTAL FREE ENERGY PREDICTED BY IDOCK:   -6.04 KCAL/MOL
REMARK 923 INTER-LIGAND FREE ENERGY PREDICTED BY IDOCK:   -5.79 KCAL/MOL
REMARK 924 INTRA-LIGAND FREE ENERGY PREDICTED BY IDOCK:   -0.25 KCAL/MOL
REMARK 927      BINDING AFFINITY PREDICTED BY RF-SCORE:    0.00 PKD
ROOT
HETATM    1  C   UNL     1     -11.185  10.799  67.952  1.00  0.00    -0.318 C  
HETATM    2  N   UNL     1     -10.945  12.187  67.587  1.00  0.00    -0.231 N  
HETATM    3  C   UNL     1     -11.078  13.217  68.568  1.00  0.00    -0.266 A  
HETATM    4  C   UNL     1     -10.327  14.412  68.542  1.00  0.00    -0.248 A  
HETATM    5  C   UNL     1     -10.551  15.416  69.503  1.00  0.00    -0.270 A  
HETATM    6  C   UNL     1      -9.229  14.647  67.554  1.00  0.00    -0.192 C  
HETATM    7  N   UNL     1      -9.343  14.435  66.286  1.00  0.00    -0.449 NA 
HETATM    8  C   UNL     1     -11.469  15.212  70.528  1.00  0.00    -0.304 A  
HETATM    9  O   UNL     1     -10.577  11.507  65.413  1.00  0.00    -0.268 OA 
HETATM   10  H   UNL     1     -11.513  13.655  64.035  1.00  0.00     0.000 HD 
HETATM   11  H   UNL     1      -8.568  14.630  65.652  1.00  0.00     0.000 HD 
HETATM   12  C   UNL     1     -12.190  14.029  70.594  1.00  0.00    -0.442 A  
HETATM   13 CL   UNL     1     -11.692  16.420  71.731  1.00  0.00    -0.497 Cl 
HETATM   14  C   UNL     1     -10.603  13.911  65.780  1.00  0.00    -0.297 C  
HETATM   15  C   UNL     1     -12.002  13.045  69.618  1.00  0.00    -0.367 A  
HETATM   16  O   UNL     1     -10.690  13.997  64.365  1.00  0.00    -0.377 OA 
HETATM   17  C   UNL     1     -10.690  12.429  66.232  1.00  0.00    -0.256 C  
ENDROOT
BRANCH   6  18
HETATM   18  C   UNL     1      -7.909  15.185  68.036  1.00  0.00    -0.135 A  
HETATM   19  C   UNL     1      -7.391  14.864  69.298  1.00  0.00    -0.175 A  
HETATM   20  C   UNL     1      -5.479  16.290  68.885  1.00  0.00    -0.116 A  
HETATM   21  C   UNL     1      -6.185  15.428  69.724  1.00  0.00    -0.157 A  
HETATM   22  C   UNL     1      -5.969  16.581  67.613  1.00  0.00    -0.163 A  
HETATM   23  C   UNL     1      -7.177  16.027  67.188  1.00  0.00    -0.257 A  
ENDBRANCH   6  18
TORSDOF 1
ENDMDL
MODEL       53
REMARK 921   NORMALIZED FREE ENERGY PREDICTED BY IDOCK:   -5.39 KCAL/MOL
REMARK 922        TOTAL FREE ENERGY PREDICTED BY IDOCK:   -6.00 KCAL/MOL
REMARK 923 INTER-LIGAND FREE ENERGY PREDICTED BY IDOCK:   -5.54 KCAL/MOL
REMARK 924 INTRA-LIGAND FREE ENERGY PREDICTED BY IDOCK:   -0.46 KCAL/MOL
REMARK 927      BINDING AFFINITY PREDICTED BY RF-SCORE:    0.00 PKD
ROOT
HETATM    1  C   UNL     1      -9.915  10.613  63.159  1.00  0.00    -0.231 C  
HETATM    2  N   UNL     1     -10.385  11.215  64.398  1.00  0.00    -0.321 N  
HETATM    3  C   UNL     1     -10.019  10.642  65.654  1.00  0.00    -0.268 A  
HETATM    4  C   UNL     1      -9.869  11.401  66.836  1.00  0.00    -0.218 A  
HETATM    5  C   UNL     1      -9.568  10.767  68.056  1.00  0.00    -0.172 A  
HETATM    6  C   UNL     1      -9.954  12.895  66.845  1.00  0.00    -0.238 C  
HETATM    7  N   UNL     1     -10.897  13.566  66.274  1.00  0.00    -0.288 NA 
HETATM    8  C   UNL     1      -9.350   9.395  68.098  1.00  0.00    -0.133 A  
HETATM    9  O   UNL     1     -11.563  12.758  63.151  1.00  0.00    -0.445 OA 
HETATM   10  H   UNL     1     -13.713  13.187  64.756  1.00  0.00     0.000 HD 
HETATM   11  H   UNL     1     -10.918  14.584  66.327  1.00  0.00     0.000 HD 
HETATM   12  C   UNL     1      -9.455   8.636  66.941  1.00  0.00    -0.235 A  
HETATM   13 CL   UNL     1      -8.925   8.639  69.583  1.00  0.00    -0.143 Cl 
HETATM   14  C   UNL     1     -11.930  12.838  65.553  1.00  0.00    -0.449 C  
HETATM   15  C   UNL     1      -9.795   9.254  65.733  1.00  0.00    -0.302 A  
HETATM   16  O   UNL     1     -13.039  13.663  65.227  1.00  0.00    -0.735 OA 
HETATM   17  C   UNL     1     -11.274  12.287  64.259  1.00  0.00    -0.350 C  
ENDROOT
BRANCH   6  18
HETATM   18  C   UNL     1      -8.904  13.685  67.577  1.00  0.00    -0.205 A  
HETATM   19  C   UNL     1      -7.538  13.546  67.299  1.00  0.00    -0.074 A  
HETATM   20  C   UNL     1      -7.011  15.142  69.040  1.00  0.00    -0.131 A  
HETATM   21  C   UNL     1      -6.595  14.264  68.039  1.00  0.00    -0.156 A  
HETATM   22  C   UNL     1      -8.370  15.316  69.294  1.00  0.00    -0.243 A  
HETATM   23  C   UNL     1      -9.314  14.594  68.563  1.00  0.00    -0.201 A  
ENDBRANCH   6  18
TORSDOF 1
ENDMDL
MODEL       54
REMARK 921   NORMALIZED FREE ENERGY PREDICTED BY IDOCK:   -5.36 KCAL/MOL
REMARK 922        TOTAL FREE ENERGY PREDICTED BY IDOCK:   -5.97 KCAL/MOL
REMARK 923 INTER-LIGAND FREE ENERGY PREDICTED BY IDOCK:   -5.49 KCAL/MOL
REMARK 924 INTRA-LIGAND FREE ENERGY PREDICTED BY IDOCK:   -0.48 KCAL/MOL
REMARK 927      BINDING AFFINITY PREDICTED BY RF-SCORE:    0.00 PKD
ROOT
HETATM    1  C   UNL     1     -10.222  10.439  69.747  1.00  0.00    -0.184 C  
HETATM    2  N   UNL     1     -10.426   9.860  68.427  1.00  0.00    -0.198 N  
HETATM    3  C   UNL     1     -10.742  10.703  67.318  1.00  0.00    -0.285 A  
HETATM    4  C   UNL     1     -10.370  10.406  65.990  1.00  0.00    -0.262 A  
HETATM    5  C   UNL     1     -10.767  11.247  64.933  1.00  0.00    -0.337 A  
HETATM    6  C   UNL     1      -9.495   9.242  65.644  1.00  0.00    -0.256 C  
HETATM    7  N   UNL     1      -9.679   8.045  66.091  1.00  0.00    -0.447 NA 
HETATM    8  C   UNL     1     -11.473  12.415  65.195  1.00  0.00    -0.334 A  
HETATM    9  O   UNL     1     -10.114   7.766  69.345  1.00  0.00    -0.185 OA 
HETATM   10  H   UNL     1     -11.763   6.269  67.788  1.00  0.00     0.000 HD 
HETATM   11  H   UNL     1      -9.064   7.283  65.809  1.00  0.00     0.000 HD 
HETATM   12  C   UNL     1     -11.817  12.746  66.498  1.00  0.00    -0.471 A  
HETATM   13 CL   UNL     1     -11.902  13.465  63.903  1.00  0.00    -0.491 Cl 
HETATM   14  C   UNL     1     -10.784   7.808  67.008  1.00  0.00    -0.246 C  
HETATM   15  C   UNL     1     -11.462  11.892  67.548  1.00  0.00    -0.396 A  
HETATM   16  O   UNL     1     -11.041   6.423  67.190  1.00  0.00    -0.377 OA 
HETATM   17  C   UNL     1     -10.396   8.462  68.361  1.00  0.00    -0.200 C  
ENDROOT
BRANCH   6  18
HETATM   18  C   UNL     1      -8.340   9.446  64.702  1.00  0.00    -0.161 A  
HETATM   19  C   UNL     1      -8.383   9.022  63.368  1.00  0.00    -0.187 A  
HETATM   20  C   UNL     1      -6.114   9.798  63.038  1.00  0.00    -0.110 A  
HETATM   21  C   UNL     1      -7.267   9.187  62.543  1.00  0.00    -0.096 A  
HETATM   22  C   UNL     1      -6.079  10.258  64.353  1.00  0.00    -0.123 A  
HETATM   23  C   UNL     1      -7.189  10.086  65.182  1.00  0.00    -0.139 A  
ENDBRANCH   6  18
TORSDOF 1
ENDMDL
MODEL       55
REMARK 921   NORMALIZED FREE ENERGY PREDICTED BY IDOCK:   -5.35 KCAL/MOL
REMARK 922        TOTAL FREE ENERGY PREDICTED BY IDOCK:   -5.95 KCAL/MOL
REMARK 923 INTER-LIGAND FREE ENERGY PREDICTED BY IDOCK:   -5.46 KCAL/MOL
REMARK 924 INTRA-LIGAND FREE ENERGY PREDICTED BY IDOCK:   -0.49 KCAL/MOL
REMARK 927      BINDING AFFINITY PREDICTED BY RF-SCORE:    0.00 PKD
ROOT
HETATM    1  C   UNL     1      -9.844  10.993  69.026  1.00  0.00    -0.149 C  
HETATM    2  N   UNL     1      -9.216  11.880  68.058  1.00  0.00    -0.184 N  
HETATM    3  C   UNL     1      -9.965  12.366  66.943  1.00  0.00    -0.215 A  
HETATM    4  C   UNL     1      -9.725  13.617  66.336  1.00  0.00    -0.300 A  
HETATM    5  C   UNL     1     -10.457  14.011  65.200  1.00  0.00    -0.415 A  
HETATM    6  C   UNL     1      -8.747  14.603  66.892  1.00  0.00    -0.224 C  
HETATM    7  N   UNL     1      -7.544  14.301  67.250  1.00  0.00    -0.319 NA 
HETATM    8  C   UNL     1     -11.470  13.198  64.704  1.00  0.00    -0.333 A  
HETATM    9  O   UNL     1      -7.236  11.683  69.227  1.00  0.00    -0.099 OA 
HETATM   10  H   UNL     1      -5.425  11.875  67.210  1.00  0.00     0.000 HD 
HETATM   11  H   UNL     1      -6.911  15.017  67.606  1.00  0.00     0.000 HD 
HETATM   12  C   UNL     1     -11.749  11.981  65.309  1.00  0.00    -0.312 A  
HETATM   13 CL   UNL     1     -12.398  13.715  63.352  1.00  0.00    -0.359 Cl 
HETATM   14  C   UNL     1      -7.112  12.917  67.135  1.00  0.00     0.040 C  
HETATM   15  C   UNL     1     -10.996  11.566  66.413  1.00  0.00    -0.336 A  
HETATM   16  O   UNL     1      -5.707  12.779  67.286  1.00  0.00    -0.291 OA 
HETATM   17  C   UNL     1      -7.850  12.120  68.244  1.00  0.00    -0.153 C  
ENDROOT
BRANCH   6  18
HETATM   18  C   UNL     1      -9.155  16.045  67.031  1.00  0.00    -0.234 A  
HETATM   19  C   UNL     1     -10.222  16.441  67.849  1.00  0.00    -0.268 A  
HETATM   20  C   UNL     1      -9.896  18.742  67.174  1.00  0.00    -0.352 A  
HETATM   21  C   UNL     1     -10.598  17.786  67.908  1.00  0.00    -0.389 A  
HETATM   22  C   UNL     1      -8.809  18.360  66.390  1.00  0.00    -0.262 A  
HETATM   23  C   UNL     1      -8.437  17.017  66.322  1.00  0.00    -0.304 A  
ENDBRANCH   6  18
TORSDOF 1
ENDMDL
MODEL       56
REMARK 921   NORMALIZED FREE ENERGY PREDICTED BY IDOCK:   -5.31 KCAL/MOL
REMARK 922        TOTAL FREE ENERGY PREDICTED BY IDOCK:   -5.91 KCAL/MOL
REMARK 923 INTER-LIGAND FREE ENERGY PREDICTED BY IDOCK:   -5.43 KCAL/MOL
REMARK 924 INTRA-LIGAND FREE ENERGY PREDICTED BY IDOCK:   -0.48 KCAL/MOL
REMARK 927      BINDING AFFINITY PREDICTED BY RF-SCORE:    0.00 PKD
ROOT
HETATM    1  C   UNL     1     -10.521   6.913  73.393  1.00  0.00    -0.331 C  
HETATM    2  N   UNL     1      -9.740   7.485  72.307  1.00  0.00    -0.155 N  
HETATM    3  C   UNL     1     -10.051   7.153  70.952  1.00  0.00    -0.193 A  
HETATM    4  C   UNL     1      -9.833   8.034  69.871  1.00  0.00    -0.186 A  
HETATM    5  C   UNL     1     -10.102   7.624  68.552  1.00  0.00    -0.205 A  
HETATM    6  C   UNL     1      -9.377   9.446  70.067  1.00  0.00    -0.226 C  
HETATM    7  N   UNL     1      -8.390   9.785  70.826  1.00  0.00    -0.383 NA 
HETATM    8  C   UNL     1     -10.648   6.369  68.306  1.00  0.00    -0.256 A  
HETATM    9  O   UNL     1      -8.408   8.533  73.872  1.00  0.00    -0.351 OA 
HETATM   10  H   UNL     1      -6.009   8.529  72.596  1.00  0.00     0.000 HD 
HETATM   11  H   UNL     1      -8.108  10.762  70.909  1.00  0.00     0.000 HD 
HETATM   12  C   UNL     1     -10.905   5.502  69.358  1.00  0.00    -0.236 A  
HETATM   13 CL   UNL     1     -11.028   5.900  66.696  1.00  0.00    -0.311 Cl 
HETATM   14  C   UNL     1      -7.688   8.744  71.560  1.00  0.00    -0.101 C  
HETATM   15  C   UNL     1     -10.601   5.888  70.667  1.00  0.00    -0.334 A  
HETATM   16  O   UNL     1      -6.468   9.210  72.117  1.00  0.00    -0.263 OA 
HETATM   17  C   UNL     1      -8.642   8.265  72.687  1.00  0.00    -0.198 C  
ENDROOT
BRANCH   6  18
HETATM   18  C   UNL     1     -10.079  10.554  69.328  1.00  0.00    -0.244 A  
HETATM   19  C   UNL     1      -9.504  11.192  68.222  1.00  0.00    -0.182 A  
HETATM   20  C   UNL     1     -11.423  12.657  68.059  1.00  0.00    -0.366 A  
HETATM   21  C   UNL     1     -10.171  12.250  67.598  1.00  0.00    -0.208 A  
HETATM   22  C   UNL     1     -12.019  12.000  69.133  1.00  0.00    -0.326 A  
HETATM   23  C   UNL     1     -11.351  10.949  69.764  1.00  0.00    -0.374 A  
ENDBRANCH   6  18
TORSDOF 1
ENDMDL
MODEL       57
REMARK 921   NORMALIZED FREE ENERGY PREDICTED BY IDOCK:   -5.29 KCAL/MOL
REMARK 922        TOTAL FREE ENERGY PREDICTED BY IDOCK:   -5.89 KCAL/MOL
REMARK 923 INTER-LIGAND FREE ENERGY PREDICTED BY IDOCK:   -5.52 KCAL/MOL
REMARK 924 INTRA-LIGAND FREE ENERGY PREDICTED BY IDOCK:   -0.37 KCAL/MOL
REMARK 927      BINDING AFFINITY PREDICTED BY RF-SCORE:    0.00 PKD
ROOT
HETATM    1  C   UNL     1      -7.029   6.984  69.249  1.00  0.00    -0.074 C  
HETATM    2  N   UNL     1      -8.396   6.488  69.305  1.00  0.00    -0.122 N  
HETATM    3  C   UNL     1      -8.903   5.924  70.515  1.00  0.00    -0.144 A  
HETATM    4  C   UNL     1     -10.263   5.988  70.888  1.00  0.00    -0.259 A  
HETATM    5  C   UNL     1     -10.710   5.357  72.064  1.00  0.00    -0.281 A  
HETATM    6  C   UNL     1     -11.273   6.768  70.106  1.00  0.00    -0.335 C  
HETATM    7  N   UNL     1     -11.402   6.697  68.824  1.00  0.00    -0.584 NA 
HETATM    8  C   UNL     1      -9.804   4.721  72.905  1.00  0.00    -0.151 A  
HETATM    9  O   UNL     1      -8.631   7.012  67.070  1.00  0.00    -0.119 OA 
HETATM   10  H   UNL     1     -10.341   5.062  66.259  1.00  0.00     0.000 HD 
HETATM   11  H   UNL     1     -12.120   7.237  68.342  1.00  0.00     0.000 HD 
HETATM   12  C   UNL     1      -8.456   4.680  72.577  1.00  0.00    -0.115 A  
HETATM   13 CL   UNL     1     -10.351   4.005  74.370  1.00  0.00    -0.250 Cl 
HETATM   14  C   UNL     1     -10.499   5.830  68.082  1.00  0.00    -0.217 C  
HETATM   15  C   UNL     1      -8.013   5.269  71.389  1.00  0.00    -0.114 A  
HETATM   16  O   UNL     1     -10.930   5.628  66.744  1.00  0.00    -0.259 OA 
HETATM   17  C   UNL     1      -9.104   6.511  68.098  1.00  0.00    -0.114 C  
ENDROOT
BRANCH   6  18
HETATM   18  C   UNL     1     -12.222   7.678  70.836  1.00  0.00    -0.194 A  
HETATM   19  C   UNL     1     -11.897   9.007  71.137  1.00  0.00    -0.362 A  
HETATM   20  C   UNL     1     -14.021   9.282  72.264  1.00  0.00    -0.439 A  
HETATM   21  C   UNL     1     -12.791   9.801  71.861  1.00  0.00    -0.520 A  
HETATM   22  C   UNL     1     -14.368   7.973  71.933  1.00  0.00    -0.559 A  
HETATM   23  C   UNL     1     -13.474   7.175  71.218  1.00  0.00    -0.309 A  
ENDBRANCH   6  18
TORSDOF 1
ENDMDL
MODEL       58
REMARK 921   NORMALIZED FREE ENERGY PREDICTED BY IDOCK:   -5.28 KCAL/MOL
REMARK 922        TOTAL FREE ENERGY PREDICTED BY IDOCK:   -5.88 KCAL/MOL
REMARK 923 INTER-LIGAND FREE ENERGY PREDICTED BY IDOCK:   -5.40 KCAL/MOL
REMARK 924 INTRA-LIGAND FREE ENERGY PREDICTED BY IDOCK:   -0.49 KCAL/MOL
REMARK 927      BINDING AFFINITY PREDICTED BY RF-SCORE:    0.00 PKD
ROOT
HETATM    1  C   UNL     1     -11.783  12.947  67.500  1.00  0.00    -0.367 C  
HETATM    2  N   UNL     1     -10.774  12.072  68.077  1.00  0.00    -0.204 N  
HETATM    3  C   UNL     1     -11.119  11.193  69.149  1.00  0.00    -0.248 A  
HETATM    4  C   UNL     1     -10.489   9.948  69.362  1.00  0.00    -0.250 A  
HETATM    5  C   UNL     1     -10.831   9.156  70.474  1.00  0.00    -0.306 A  
HETATM    6  C   UNL     1      -9.490   9.381  68.403  1.00  0.00    -0.141 C  
HETATM    7  N   UNL     1      -8.496  10.048  67.920  1.00  0.00    -0.117 NA 
HETATM    8  C   UNL     1     -11.842   9.562  71.338  1.00  0.00    -0.389 A  
HETATM    9  O   UNL     1      -9.214  13.005  66.656  1.00  0.00    -0.245 OA 
HETATM   10  H   UNL     1      -6.974  12.875  68.190  1.00  0.00     0.000 HD 
HETATM   11  H   UNL     1      -7.832   9.608  67.283  1.00  0.00     0.000 HD 
HETATM   12  C   UNL     1     -12.502  10.764  71.125  1.00  0.00    -0.519 A  
HETATM   13 CL   UNL     1     -12.294   8.559  72.659  1.00  0.00    -0.384 Cl 
HETATM   14  C   UNL     1      -8.344  11.443  68.304  1.00  0.00    -0.152 C  
HETATM   15  C   UNL     1     -12.136  11.575  70.046  1.00  0.00    -0.408 A  
HETATM   16  O   UNL     1      -7.074  11.964  67.939  1.00  0.00    -0.081 OA 
HETATM   17  C   UNL     1      -9.472  12.234  67.590  1.00  0.00    -0.188 C  
ENDROOT
BRANCH   6  18
HETATM   18  C   UNL     1      -9.614   7.943  67.977  1.00  0.00    -0.168 A  
HETATM   19  C   UNL     1     -10.748   7.458  67.313  1.00  0.00    -0.379 A  
HETATM   20  C   UNL     1      -9.793   5.234  67.288  1.00  0.00    -0.183 A  
HETATM   21  C   UNL     1     -10.840   6.103  66.982  1.00  0.00    -0.435 A  
HETATM   22  C   UNL     1      -8.645   5.718  67.912  1.00  0.00    -0.101 A  
HETATM   23  C   UNL     1      -8.553   7.068  68.252  1.00  0.00    -0.129 A  
ENDBRANCH   6  18
TORSDOF 1
ENDMDL
MODEL       59
REMARK 921   NORMALIZED FREE ENERGY PREDICTED BY IDOCK:   -5.28 KCAL/MOL
REMARK 922        TOTAL FREE ENERGY PREDICTED BY IDOCK:   -5.88 KCAL/MOL
REMARK 923 INTER-LIGAND FREE ENERGY PREDICTED BY IDOCK:   -5.38 KCAL/MOL
REMARK 924 INTRA-LIGAND FREE ENERGY PREDICTED BY IDOCK:   -0.50 KCAL/MOL
REMARK 927      BINDING AFFINITY PREDICTED BY RF-SCORE:    0.00 PKD
ROOT
HETATM    1  C   UNL     1      -7.130   8.804  69.824  1.00  0.00    -0.054 C  
HETATM    2  N   UNL     1      -8.335   9.079  69.057  1.00  0.00    -0.122 N  
HETATM    3  C   UNL     1      -9.545   9.433  69.729  1.00  0.00    -0.201 A  
HETATM    4  C   UNL     1     -10.526  10.276  69.164  1.00  0.00    -0.246 A  
HETATM    5  C   UNL     1     -11.726  10.535  69.853  1.00  0.00    -0.372 A  
HETATM    6  C   UNL     1     -10.323  10.979  67.859  1.00  0.00    -0.186 C  
HETATM    7  N   UNL     1      -9.891  10.401  66.789  1.00  0.00    -0.187 NA 
HETATM    8  C   UNL     1     -11.928  10.016  71.126  1.00  0.00    -0.392 A  
HETATM    9  O   UNL     1      -7.173   8.570  67.129  1.00  0.00    -0.078 OA 
HETATM   10  H   UNL     1      -9.149   7.499  65.602  1.00  0.00     0.000 HD 
HETATM   11  H   UNL     1      -9.788  10.923  65.919  1.00  0.00     0.000 HD 
HETATM   12  C   UNL     1     -10.960   9.217  71.717  1.00  0.00    -0.429 A  
HETATM   13 CL   UNL     1     -13.372  10.388  71.984  1.00  0.00    -0.514 Cl 
HETATM   14  C   UNL     1      -9.552   8.987  66.851  1.00  0.00    -0.185 C  
HETATM   15  C   UNL     1      -9.784   8.921  71.019  1.00  0.00    -0.320 A  
HETATM   16  O   UNL     1      -9.370   8.422  65.561  1.00  0.00    -0.077 OA 
HETATM   17  C   UNL     1      -8.242   8.873  67.676  1.00  0.00    -0.110 C  
ENDROOT
BRANCH   6  18
HETATM   18  C   UNL     1     -10.658  12.442  67.753  1.00  0.00    -0.236 A  
HETATM   19  C   UNL     1      -9.951  13.421  68.464  1.00  0.00    -0.193 A  
HETATM   20  C   UNL     1     -11.396  15.137  67.555  1.00  0.00    -0.325 A  
HETATM   21  C   UNL     1     -10.330  14.763  68.373  1.00  0.00    -0.233 A  
HETATM   22  C   UNL     1     -12.078  14.173  66.814  1.00  0.00    -0.474 A  
HETATM   23  C   UNL     1     -11.708  12.831  66.909  1.00  0.00    -0.447 A  
ENDBRANCH   6  18
TORSDOF 1
ENDMDL
MODEL       60
REMARK 921   NORMALIZED FREE ENERGY PREDICTED BY IDOCK:   -5.28 KCAL/MOL
REMARK 922        TOTAL FREE ENERGY PREDICTED BY IDOCK:   -5.87 KCAL/MOL
REMARK 923 INTER-LIGAND FREE ENERGY PREDICTED BY IDOCK:   -5.58 KCAL/MOL
REMARK 924 INTRA-LIGAND FREE ENERGY PREDICTED BY IDOCK:   -0.29 KCAL/MOL
REMARK 927      BINDING AFFINITY PREDICTED BY RF-SCORE:    0.00 PKD
ROOT
HETATM    1  C   UNL     1      -7.921   7.540  67.111  1.00  0.00    -0.117 C  
HETATM    2  N   UNL     1      -8.247   8.593  68.059  1.00  0.00    -0.115 N  
HETATM    3  C   UNL     1      -9.233   9.572  67.729  1.00  0.00    -0.124 A  
HETATM    4  C   UNL     1     -10.046  10.207  68.693  1.00  0.00    -0.186 A  
HETATM    5  C   UNL     1     -10.956  11.210  68.309  1.00  0.00    -0.278 A  
HETATM    6  C   UNL     1     -10.035   9.813  70.136  1.00  0.00    -0.263 C  
HETATM    7  N   UNL     1      -8.958   9.654  70.831  1.00  0.00    -0.360 NA 
HETATM    8  C   UNL     1     -11.111  11.539  66.967  1.00  0.00    -0.307 A  
HETATM    9  O   UNL     1      -6.628   7.759  69.477  1.00  0.00    -0.037 OA 
HETATM   10  H   UNL     1      -5.764  10.040  70.674  1.00  0.00     0.000 HD 
HETATM   11  H   UNL     1      -9.007   9.403  71.818  1.00  0.00     0.000 HD 
HETATM   12  C   UNL     1     -10.349  10.899  65.999  1.00  0.00    -0.304 A  
HETATM   13 CL   UNL     1     -12.268  12.723  66.502  1.00  0.00    -0.326 Cl 
HETATM   14  C   UNL     1      -7.674   9.840  70.174  1.00  0.00    -0.177 C  
HETATM   15  C   UNL     1      -9.413   9.932  66.379  1.00  0.00    -0.234 A  
HETATM   16  O   UNL     1      -6.603   9.918  71.103  1.00  0.00    -0.304 OA 
HETATM   17  C   UNL     1      -7.472   8.629  69.225  1.00  0.00    -0.082 C  
ENDROOT
BRANCH   6  18
HETATM   18  C   UNL     1     -11.342   9.607  70.852  1.00  0.00    -0.431 A  
HETATM   19  C   UNL     1     -12.066  10.672  71.401  1.00  0.00    -0.342 A  
HETATM   20  C   UNL     1     -13.731   9.124  72.233  1.00  0.00    -0.548 A  
HETATM   21  C   UNL     1     -13.251  10.427  72.101  1.00  0.00    -0.418 A  
HETATM   22  C   UNL     1     -13.036   8.064  71.654  1.00  0.00    -0.354 A  
HETATM   23  C   UNL     1     -11.848   8.304  70.962  1.00  0.00    -0.276 A  
ENDBRANCH   6  18
TORSDOF 1
ENDMDL
MODEL       61
REMARK 921   NORMALIZED FREE ENERGY PREDICTED BY IDOCK:   -5.21 KCAL/MOL
REMARK 922        TOTAL FREE ENERGY PREDICTED BY IDOCK:   -5.81 KCAL/MOL
REMARK 923 INTER-LIGAND FREE ENERGY PREDICTED BY IDOCK:   -5.41 KCAL/MOL
REMARK 924 INTRA-LIGAND FREE ENERGY PREDICTED BY IDOCK:   -0.40 KCAL/MOL
REMARK 927      BINDING AFFINITY PREDICTED BY RF-SCORE:    0.00 PKD
ROOT
HETATM    1  C   UNL     1     -12.275  15.410  69.091  1.00  0.00    -0.160 C  
HETATM    2  N   UNL     1     -11.085  14.654  68.730  1.00  0.00    -0.248 N  
HETATM    3  C   UNL     1     -11.054  13.238  68.920  1.00  0.00    -0.261 A  
HETATM    4  C   UNL     1     -10.302  12.365  68.104  1.00  0.00    -0.231 A  
HETATM    5  C   UNL     1     -10.263  10.986  68.382  1.00  0.00    -0.198 A  
HETATM    6  C   UNL     1      -9.573  12.836  66.885  1.00  0.00    -0.235 C  
HETATM    7  N   UNL     1      -8.804  13.872  66.861  1.00  0.00    -0.344 NA 
HETATM    8  C   UNL     1     -11.018  10.460  69.425  1.00  0.00    -0.251 A  
HETATM    9  O   UNL     1     -10.055  16.634  68.148  1.00  0.00    -0.249 OA 
HETATM   10  H   UNL     1      -7.473  16.082  68.789  1.00  0.00     0.000 HD 
HETATM   11  H   UNL     1      -8.315  14.138  66.006  1.00  0.00     0.000 HD 
HETATM   12  C   UNL     1     -11.794  11.296  70.215  1.00  0.00    -0.446 A  
HETATM   13 CL   UNL     1     -11.010   8.766  69.719  1.00  0.00    -0.191 Cl 
HETATM   14  C   UNL     1      -8.650  14.651  68.079  1.00  0.00    -0.162 C  
HETATM   15  C   UNL     1     -11.803  12.672  69.969  1.00  0.00    -0.358 A  
HETATM   16  O   UNL     1      -7.573  15.574  67.993  1.00  0.00    -0.117 OA 
HETATM   17  C   UNL     1      -9.986  15.408  68.303  1.00  0.00    -0.214 C  
ENDROOT
BRANCH   6  18
HETATM   18  C   UNL     1      -9.709  12.060  65.603  1.00  0.00    -0.241 A  
HETATM   19  C   UNL     1      -8.797  11.062  65.237  1.00  0.00    -0.139 A  
HETATM   20  C   UNL     1      -9.994  10.716  63.162  1.00  0.00    -0.286 A  
HETATM   21  C   UNL     1      -8.934  10.402  64.012  1.00  0.00    -0.249 A  
HETATM   22  C   UNL     1     -10.928  11.679  63.538  1.00  0.00    -0.485 A  
HETATM   23  C   UNL     1     -10.789  12.346  64.756  1.00  0.00    -0.340 A  
ENDBRANCH   6  18
TORSDOF 1
ENDMDL
MODEL       62
REMARK 921   NORMALIZED FREE ENERGY PREDICTED BY IDOCK:   -5.15 KCAL/MOL
REMARK 922        TOTAL FREE ENERGY PREDICTED BY IDOCK:   -5.74 KCAL/MOL
REMARK 923 INTER-LIGAND FREE ENERGY PREDICTED BY IDOCK:   -5.25 KCAL/MOL
REMARK 924 INTRA-LIGAND FREE ENERGY PREDICTED BY IDOCK:   -0.50 KCAL/MOL
REMARK 927      BINDING AFFINITY PREDICTED BY RF-SCORE:    0.00 PKD
ROOT
HETATM    1  C   UNL     1     -11.327  15.855  64.347  1.00  0.00    -0.267 C  
HETATM    2  N   UNL     1     -10.990  16.165  65.728  1.00  0.00    -0.172 N  
HETATM    3  C   UNL     1     -11.025  15.138  66.720  1.00  0.00    -0.321 A  
HETATM    4  C   UNL     1     -10.186  15.130  67.856  1.00  0.00    -0.232 A  
HETATM    5  C   UNL     1     -10.314  14.122  68.830  1.00  0.00    -0.230 A  
HETATM    6  C   UNL     1      -9.093  16.133  68.052  1.00  0.00    -0.190 C  
HETATM    7  N   UNL     1      -9.249  17.407  67.905  1.00  0.00    -0.251 NA 
HETATM    8  C   UNL     1     -11.224  13.086  68.650  1.00  0.00    -0.277 A  
HETATM    9  O   UNL     1     -10.719  18.375  65.120  1.00  0.00    -0.562 OA 
HETATM   10  H   UNL     1     -11.516  19.637  67.391  1.00  0.00     0.000 HD 
HETATM   11  H   UNL     1      -8.474  18.049  68.070  1.00  0.00     0.000 HD 
HETATM   12  C   UNL     1     -12.031  13.054  67.522  1.00  0.00    -0.360 A  
HETATM   13 CL   UNL     1     -11.330  11.827  69.816  1.00  0.00    -0.288 Cl 
HETATM   14  C   UNL     1     -10.555  17.904  67.500  1.00  0.00    -0.376 C  
HETATM   15  C   UNL     1     -11.938  14.076  66.572  1.00  0.00    -0.470 A  
HETATM   16  O   UNL     1     -10.663  19.312  67.655  1.00  0.00    -0.452 OA 
HETATM   17  C   UNL     1     -10.744  17.514  66.010  1.00  0.00    -0.116 C  
ENDROOT
BRANCH   6  18
HETATM   18  C   UNL     1      -7.727  15.659  68.467  1.00  0.00    -0.131 A  
HETATM   19  C   UNL     1      -7.188  15.954  69.726  1.00  0.00     0.003 A  
HETATM   20  C   UNL     1      -5.145  14.800  69.131  1.00  0.00    -0.086 A  
HETATM   21  C   UNL     1      -5.894  15.535  70.049  1.00  0.00    -0.144 A  
HETATM   22  C   UNL     1      -5.691  14.468  67.892  1.00  0.00    -0.123 A  
HETATM   23  C   UNL     1      -6.979  14.892  67.563  1.00  0.00    -0.203 A  
ENDBRANCH   6  18
TORSDOF 1
ENDMDL
MODEL       63
REMARK 921   NORMALIZED FREE ENERGY PREDICTED BY IDOCK:   -5.15 KCAL/MOL
REMARK 922        TOTAL FREE ENERGY PREDICTED BY IDOCK:   -5.74 KCAL/MOL
REMARK 923 INTER-LIGAND FREE ENERGY PREDICTED BY IDOCK:   -5.95 KCAL/MOL
REMARK 924 INTRA-LIGAND FREE ENERGY PREDICTED BY IDOCK:    0.21 KCAL/MOL
REMARK 927      BINDING AFFINITY PREDICTED BY RF-SCORE:    0.00 PKD
ROOT
HETATM    1  C   UNL     1      -7.016  14.940  68.678  1.00  0.00    -0.108 C  
HETATM    2  N   UNL     1      -8.429  14.758  68.384  1.00  0.00    -0.150 N  
HETATM    3  C   UNL     1      -8.905  13.494  67.919  1.00  0.00    -0.190 A  
HETATM    4  C   UNL     1     -10.206  13.013  68.183  1.00  0.00    -0.239 A  
HETATM    5  C   UNL     1     -10.636  11.786  67.642  1.00  0.00    -0.237 A  
HETATM    6  C   UNL     1     -11.158  13.730  69.086  1.00  0.00    -0.240 C  
HETATM    7  N   UNL     1     -11.405  14.996  69.014  1.00  0.00    -0.273 NA 
HETATM    8  C   UNL     1      -9.760  11.005  66.897  1.00  0.00    -0.188 A  
HETATM    9  O   UNL     1      -8.778  16.980  68.900  1.00  0.00    -0.263 OA 
HETATM   10  H   UNL     1     -10.810  17.592  67.202  1.00  0.00     0.000 HD 
HETATM   11  H   UNL     1     -12.079  15.432  69.643  1.00  0.00     0.000 HD 
HETATM   12  C   UNL     1      -8.465  11.441  66.658  1.00  0.00    -0.171 A  
HETATM   13 CL   UNL     1     -10.276   9.481  66.290  1.00  0.00    -0.325 Cl 
HETATM   14  C   UNL     1     -10.701  15.785  68.015  1.00  0.00    -0.296 C  
HETATM   15  C   UNL     1      -8.046  12.679  67.157  1.00  0.00    -0.141 A  
HETATM   16  O   UNL     1     -11.269  17.076  67.855  1.00  0.00    -0.222 OA 
HETATM   17  C   UNL     1      -9.228  15.902  68.488  1.00  0.00    -0.200 C  
ENDROOT
BRANCH   6  18
HETATM   18  C   UNL     1     -11.904  12.951  70.136  1.00  0.00    -0.319 A  
HETATM   19  C   UNL     1     -11.857  11.553  70.198  1.00  0.00    -0.440 A  
HETATM   20  C   UNL     1     -13.383  11.577  72.077  1.00  0.00    -0.397 A  
HETATM   21  C   UNL     1     -12.606  10.869  71.160  1.00  0.00    -0.532 A  
HETATM   22  C   UNL     1     -13.402  12.970  72.046  1.00  0.00    -0.588 A  
HETATM   23  C   UNL     1     -12.662  13.655  71.082  1.00  0.00    -0.432 A  
ENDBRANCH   6  18
TORSDOF 1
ENDMDL
MODEL       64
REMARK 921   NORMALIZED FREE ENERGY PREDICTED BY IDOCK:   -5.15 KCAL/MOL
REMARK 922        TOTAL FREE ENERGY PREDICTED BY IDOCK:   -5.74 KCAL/MOL
REMARK 923 INTER-LIGAND FREE ENERGY PREDICTED BY IDOCK:   -5.25 KCAL/MOL
REMARK 924 INTRA-LIGAND FREE ENERGY PREDICTED BY IDOCK:   -0.49 KCAL/MOL
REMARK 927      BINDING AFFINITY PREDICTED BY RF-SCORE:    0.00 PKD
ROOT
HETATM    1  C   UNL     1      -7.483   4.630  71.427  1.00  0.00    -0.076 C  
HETATM    2  N   UNL     1      -7.936   6.012  71.475  1.00  0.00    -0.112 N  
HETATM    3  C   UNL     1      -8.485   6.625  70.307  1.00  0.00    -0.135 A  
HETATM    4  C   UNL     1      -9.465   7.640  70.355  1.00  0.00    -0.164 A  
HETATM    5  C   UNL     1      -9.920   8.248  69.170  1.00  0.00    -0.196 A  
HETATM    6  C   UNL     1     -10.109   8.073  71.635  1.00  0.00    -0.184 C  
HETATM    7  N   UNL     1      -9.455   8.351  72.712  1.00  0.00    -0.268 NA 
HETATM    8  C   UNL     1      -9.457   7.808  67.935  1.00  0.00    -0.144 A  
HETATM    9  O   UNL     1      -7.223   6.124  73.667  1.00  0.00    -0.084 OA 
HETATM   10  H   UNL     1      -6.457   8.726  73.829  1.00  0.00     0.000 HD 
HETATM   11  H   UNL     1      -9.943   8.660  73.553  1.00  0.00     0.000 HD 
HETATM   12  C   UNL     1      -8.523   6.785  67.864  1.00  0.00    -0.119 A  
HETATM   13 CL   UNL     1     -10.064   8.517  66.491  1.00  0.00    -0.354 Cl 
HETATM   14  C   UNL     1      -8.007   8.213  72.701  1.00  0.00    -0.146 C  
HETATM   15  C   UNL     1      -8.036   6.206  69.040  1.00  0.00    -0.108 A  
HETATM   16  O   UNL     1      -7.403   8.816  73.836  1.00  0.00    -0.391 OA 
HETATM   17  C   UNL     1      -7.698   6.692  72.675  1.00  0.00    -0.101 C  
ENDROOT
BRANCH   6  18
HETATM   18  C   UNL     1     -11.605   8.224  71.689  1.00  0.00    -0.337 A  
HETATM   19  C   UNL     1     -12.221   9.461  71.916  1.00  0.00    -0.440 A  
HETATM   20  C   UNL     1     -14.396   8.401  71.849  1.00  0.00    -0.561 A  
HETATM   21  C   UNL     1     -13.613   9.545  72.009  1.00  0.00    -0.492 A  
HETATM   22  C   UNL     1     -13.792   7.174  71.583  1.00  0.00    -0.418 A  
HETATM   23  C   UNL     1     -12.401   7.086  71.499  1.00  0.00    -0.420 A  
ENDBRANCH   6  18
TORSDOF 1
ENDMDL
MODEL       65
REMARK 921   NORMALIZED FREE ENERGY PREDICTED BY IDOCK:   -5.13 KCAL/MOL
REMARK 922        TOTAL FREE ENERGY PREDICTED BY IDOCK:   -5.72 KCAL/MOL
REMARK 923 INTER-LIGAND FREE ENERGY PREDICTED BY IDOCK:   -5.25 KCAL/MOL
REMARK 924 INTRA-LIGAND FREE ENERGY PREDICTED BY IDOCK:   -0.47 KCAL/MOL
REMARK 927      BINDING AFFINITY PREDICTED BY RF-SCORE:    0.00 PKD
ROOT
HETATM    1  C   UNL     1     -12.342  14.842  68.582  1.00  0.00     0.040 C  
HETATM    2  N   UNL     1     -11.835  13.481  68.490  1.00  0.00    -0.348 N  
HETATM    3  C   UNL     1     -11.480  12.935  67.219  1.00  0.00    -0.336 A  
HETATM    4  C   UNL     1     -10.468  11.965  67.049  1.00  0.00    -0.253 A  
HETATM    5  C   UNL     1     -10.209  11.420  65.778  1.00  0.00    -0.295 A  
HETATM    6  C   UNL     1      -9.589  11.518  68.175  1.00  0.00    -0.187 C  
HETATM    7  N   UNL     1     -10.029  11.173  69.339  1.00  0.00    -0.428 NA 
HETATM    8  C   UNL     1     -10.901  11.882  64.664  1.00  0.00    -0.311 A  
HETATM    9  O   UNL     1     -12.141  13.260  70.767  1.00  0.00    -0.341 OA 
HETATM   10  H   UNL     1     -12.763  10.621  70.951  1.00  0.00     0.000 HD 
HETATM   11  H   UNL     1      -9.388  10.857  70.066  1.00  0.00     0.000 HD 
HETATM   12  C   UNL     1     -11.872  12.863  64.802  1.00  0.00    -0.409 A  
HETATM   13 CL   UNL     1     -10.535  11.253  63.106  1.00  0.00    -0.353 Cl 
HETATM   14  C   UNL     1     -11.460  11.244  69.590  1.00  0.00    -0.309 C  
HETATM   15  C   UNL     1     -12.164  13.377  66.070  1.00  0.00    -0.491 A  
HETATM   16  O   UNL     1     -11.828  10.575  70.787  1.00  0.00    -0.316 OA 
HETATM   17  C   UNL     1     -11.828  12.749  69.683  1.00  0.00    -0.317 C  
ENDROOT
BRANCH   6  18
HETATM   18  C   UNL     1      -8.103  11.434  67.958  1.00  0.00    -0.134 A  
HETATM   19  C   UNL     1      -7.399  10.230  68.084  1.00  0.00    -0.085 A  
HETATM   20  C   UNL     1      -5.324  11.382  67.609  1.00  0.00    -0.050 A  
HETATM   21  C   UNL     1      -6.011  10.209  67.922  1.00  0.00    -0.041 A  
HETATM   22  C   UNL     1      -6.024  12.576  67.442  1.00  0.00    -0.147 A  
HETATM   23  C   UNL     1      -7.409  12.602  67.612  1.00  0.00    -0.139 A  
ENDBRANCH   6  18
TORSDOF 1
ENDMDL
MODEL       66
REMARK 921   NORMALIZED FREE ENERGY PREDICTED BY IDOCK:   -5.05 KCAL/MOL
REMARK 922        TOTAL FREE ENERGY PREDICTED BY IDOCK:   -5.64 KCAL/MOL
REMARK 923 INTER-LIGAND FREE ENERGY PREDICTED BY IDOCK:   -5.17 KCAL/MOL
REMARK 924 INTRA-LIGAND FREE ENERGY PREDICTED BY IDOCK:   -0.47 KCAL/MOL
REMARK 927      BINDING AFFINITY PREDICTED BY RF-SCORE:    0.00 PKD
ROOT
HETATM    1  C   UNL     1     -11.704  11.649  69.925  1.00  0.00    -0.337 C  
HETATM    2  N   UNL     1     -11.871  10.266  70.347  1.00  0.00    -0.289 N  
HETATM    3  C   UNL     1     -11.126   9.229  69.706  1.00  0.00    -0.150 A  
HETATM    4  C   UNL     1     -10.729   8.044  70.363  1.00  0.00    -0.233 A  
HETATM    5  C   UNL     1     -10.050   7.032  69.658  1.00  0.00    -0.194 A  
HETATM    6  C   UNL     1     -10.942   7.829  71.828  1.00  0.00    -0.239 C  
HETATM    7  N   UNL     1     -12.062   8.047  72.432  1.00  0.00    -0.477 NA 
HETATM    8  C   UNL     1      -9.706   7.218  68.324  1.00  0.00    -0.147 A  
HETATM    9  O   UNL     1     -13.480  10.963  71.848  1.00  0.00    -0.345 OA 
HETATM   10  H   UNL     1     -15.139   8.811  71.863  1.00  0.00     0.000 HD 
HETATM   11  H   UNL     1     -12.159   7.866  73.431  1.00  0.00     0.000 HD 
HETATM   12  C   UNL     1     -10.053   8.391  67.670  1.00  0.00    -0.268 A  
HETATM   13 CL   UNL     1      -8.825   6.000  67.489  1.00  0.00    -0.111 Cl 
HETATM   14  C   UNL     1     -13.182   8.557  71.657  1.00  0.00    -0.343 C  
HETATM   15  C   UNL     1     -10.765   9.383  68.354  1.00  0.00    -0.213 A  
HETATM   16  O   UNL     1     -14.408   8.478  72.370  1.00  0.00    -0.432 OA 
HETATM   17  C   UNL     1     -12.857  10.035  71.313  1.00  0.00    -0.402 C  
ENDROOT
BRANCH   6  18
HETATM   18  C   UNL     1      -9.808   7.306  72.667  1.00  0.00    -0.207 A  
HETATM   19  C   UNL     1      -9.897   6.097  73.369  1.00  0.00    -0.171 A  
HETATM   20  C   UNL     1      -7.675   6.443  74.265  1.00  0.00    -0.094 A  
HETATM   21  C   UNL     1      -8.836   5.675  74.176  1.00  0.00    -0.122 A  
HETATM   22  C   UNL     1      -7.564   7.627  73.538  1.00  0.00    -0.142 A  
HETATM   23  C   UNL     1      -8.625   8.055  72.738  1.00  0.00    -0.252 A  
ENDBRANCH   6  18
TORSDOF 1
ENDMDL
MODEL       67
REMARK 921   NORMALIZED FREE ENERGY PREDICTED BY IDOCK:   -5.05 KCAL/MOL
REMARK 922        TOTAL FREE ENERGY PREDICTED BY IDOCK:   -5.63 KCAL/MOL
REMARK 923 INTER-LIGAND FREE ENERGY PREDICTED BY IDOCK:   -5.28 KCAL/MOL
REMARK 924 INTRA-LIGAND FREE ENERGY PREDICTED BY IDOCK:   -0.35 KCAL/MOL
REMARK 927      BINDING AFFINITY PREDICTED BY RF-SCORE:    0.00 PKD
ROOT
HETATM    1  C   UNL     1      -6.964   9.164  67.403  1.00  0.00    -0.078 C  
HETATM    2  N   UNL     1      -8.124   8.623  68.095  1.00  0.00    -0.114 N  
HETATM    3  C   UNL     1      -8.130   8.538  69.521  1.00  0.00    -0.111 A  
HETATM    4  C   UNL     1      -9.305   8.634  70.297  1.00  0.00    -0.180 A  
HETATM    5  C   UNL     1      -9.252   8.479  71.695  1.00  0.00    -0.304 A  
HETATM    6  C   UNL     1     -10.636   8.964  69.698  1.00  0.00    -0.226 C  
HETATM    7  N   UNL     1     -11.116   8.387  68.647  1.00  0.00    -0.361 NA 
HETATM    8  C   UNL     1      -8.030   8.297  72.333  1.00  0.00    -0.140 A  
HETATM    9  O   UNL     1      -9.101   8.211  66.046  1.00  0.00    -0.183 OA 
HETATM   10  H   UNL     1     -10.535   5.970  66.598  1.00  0.00     0.000 HD 
HETATM   11  H   UNL     1     -12.038   8.637  68.290  1.00  0.00     0.000 HD 
HETATM   12  C   UNL     1      -6.858   8.238  71.593  1.00  0.00    -0.069 A  
HETATM   13 CL   UNL     1      -7.968   8.169  74.046  1.00  0.00    -0.273 Cl 
HETATM   14  C   UNL     1     -10.311   7.374  67.982  1.00  0.00    -0.199 C  
HETATM   15  C   UNL     1      -6.910   8.349  70.199  1.00  0.00    -0.042 A  
HETATM   16  O   UNL     1     -11.061   6.632  67.032  1.00  0.00    -0.403 OA 
HETATM   17  C   UNL     1      -9.142   8.115  67.280  1.00  0.00    -0.138 C  
ENDROOT
BRANCH   6  18
HETATM   18  C   UNL     1     -11.498  10.009  70.353  1.00  0.00    -0.389 A  
HETATM   19  C   UNL     1     -12.408   9.692  71.369  1.00  0.00    -0.468 A  
HETATM   20  C   UNL     1     -13.117  12.005  71.466  1.00  0.00    -0.362 A  
HETATM   21  C   UNL     1     -13.225  10.688  71.914  1.00  0.00    -0.528 A  
HETATM   22  C   UNL     1     -12.185  12.333  70.483  1.00  0.00    -0.387 A  
HETATM   23  C   UNL     1     -11.375  11.340  69.931  1.00  0.00    -0.329 A  
ENDBRANCH   6  18
TORSDOF 1
ENDMDL
MODEL       68
REMARK 921   NORMALIZED FREE ENERGY PREDICTED BY IDOCK:   -5.04 KCAL/MOL
REMARK 922        TOTAL FREE ENERGY PREDICTED BY IDOCK:   -5.62 KCAL/MOL
REMARK 923 INTER-LIGAND FREE ENERGY PREDICTED BY IDOCK:   -5.53 KCAL/MOL
REMARK 924 INTRA-LIGAND FREE ENERGY PREDICTED BY IDOCK:   -0.10 KCAL/MOL
REMARK 927      BINDING AFFINITY PREDICTED BY RF-SCORE:    0.00 PKD
ROOT
HETATM    1  C   UNL     1      -6.968  15.817  68.110  1.00  0.00    -0.118 C  
HETATM    2  N   UNL     1      -8.398  15.642  67.911  1.00  0.00    -0.144 N  
HETATM    3  C   UNL     1      -9.001  14.367  68.139  1.00  0.00    -0.185 A  
HETATM    4  C   UNL     1     -10.334  14.209  68.575  1.00  0.00    -0.249 A  
HETATM    5  C   UNL     1     -10.889  12.924  68.721  1.00  0.00    -0.277 A  
HETATM    6  C   UNL     1     -11.195  15.371  68.961  1.00  0.00    -0.291 C  
HETATM    7  N   UNL     1     -11.324  16.440  68.248  1.00  0.00    -0.313 NA 
HETATM    8  C   UNL     1     -10.108  11.795  68.501  1.00  0.00    -0.207 A  
HETATM    9  O   UNL     1      -8.526  17.838  67.215  1.00  0.00    -0.225 OA 
HETATM   10  H   UNL     1     -10.530  17.686  65.386  1.00  0.00     0.000 HD 
HETATM   11  H   UNL     1     -11.939  17.195  68.549  1.00  0.00     0.000 HD 
HETATM   12  C   UNL     1      -8.784  11.928  68.110  1.00  0.00    -0.173 A  
HETATM   13 CL   UNL     1     -10.778  10.229  68.740  1.00  0.00    -0.228 Cl 
HETATM   14  C   UNL     1     -10.572  16.542  67.007  1.00  0.00    -0.255 C  
HETATM   15  C   UNL     1      -8.240  13.203  67.922  1.00  0.00    -0.162 A  
HETATM   16  O   UNL     1     -11.020  17.619  66.197  1.00  0.00    -0.033 OA 
HETATM   17  C   UNL     1      -9.084  16.748  67.396  1.00  0.00    -0.216 C  
ENDROOT
BRANCH   6  18
HETATM   18  C   UNL     1     -11.986  15.307  70.239  1.00  0.00    -0.367 A  
HETATM   19  C   UNL     1     -11.645  16.067  71.365  1.00  0.00    -0.520 A  
HETATM   20  C   UNL     1     -13.469  15.069  72.603  1.00  0.00    -0.562 A  
HETATM   21  C   UNL     1     -12.379  15.937  72.547  1.00  0.00    -0.575 A  
HETATM   22  C   UNL     1     -13.838  14.339  71.475  1.00  0.00    -0.428 A  
HETATM   23  C   UNL     1     -13.102  14.460  70.295  1.00  0.00     0.002 A  
ENDBRANCH   6  18
TORSDOF 1
ENDMDL
MODEL       69
REMARK 921   NORMALIZED FREE ENERGY PREDICTED BY IDOCK:   -5.03 KCAL/MOL
REMARK 922        TOTAL FREE ENERGY PREDICTED BY IDOCK:   -5.62 KCAL/MOL
REMARK 923 INTER-LIGAND FREE ENERGY PREDICTED BY IDOCK:   -5.12 KCAL/MOL
REMARK 924 INTRA-LIGAND FREE ENERGY PREDICTED BY IDOCK:   -0.50 KCAL/MOL
REMARK 927      BINDING AFFINITY PREDICTED BY RF-SCORE:    0.00 PKD
ROOT
HETATM    1  C   UNL     1      -7.172   9.807  66.270  1.00  0.00    -0.099 C  
HETATM    2  N   UNL     1      -7.761  11.100  66.583  1.00  0.00    -0.152 N  
HETATM    3  C   UNL     1      -9.049  11.443  66.068  1.00  0.00    -0.208 A  
HETATM    4  C   UNL     1      -9.947  12.300  66.739  1.00  0.00    -0.217 A  
HETATM    5  C   UNL     1     -11.176  12.649  66.148  1.00  0.00    -0.350 A  
HETATM    6  C   UNL     1      -9.680  12.824  68.116  1.00  0.00    -0.223 C  
HETATM    7  N   UNL     1      -8.560  13.354  68.479  1.00  0.00    -0.316 NA 
HETATM    8  C   UNL     1     -11.547  12.098  64.927  1.00  0.00    -0.316 A  
HETATM    9  O   UNL     1      -5.842  11.645  67.742  1.00  0.00    -0.045 OA 
HETATM   10  H   UNL     1      -5.720  14.326  67.309  1.00  0.00     0.000 HD 
HETATM   11  H   UNL     1      -8.437  13.712  69.426  1.00  0.00     0.000 HD 
HETATM   12  C   UNL     1     -10.695  11.223  64.268  1.00  0.00    -0.416 A  
HETATM   13 CL   UNL     1     -13.076  12.484  64.241  1.00  0.00    -0.252 Cl 
HETATM   14  C   UNL     1      -7.479  13.428  67.509  1.00  0.00    -0.162 C  
HETATM   15  C   UNL     1      -9.455  10.906  64.831  1.00  0.00    -0.277 A  
HETATM   16  O   UNL     1      -6.427  14.277  67.943  1.00  0.00    -0.136 OA 
HETATM   17  C   UNL     1      -6.952  11.982  67.309  1.00  0.00    -0.146 C  
ENDROOT
BRANCH   6  18
HETATM   18  C   UNL     1     -10.771  12.762  69.150  1.00  0.00    -0.061 A  
HETATM   19  C   UNL     1     -11.209  11.550  69.698  1.00  0.00    -0.276 A  
HETATM   20  C   UNL     1     -12.859  12.733  71.016  1.00  0.00    -0.262 A  
HETATM   21  C   UNL     1     -12.261  11.537  70.619  1.00  0.00    -0.473 A  
HETATM   22  C   UNL     1     -12.401  13.946  70.504  1.00  0.00    -0.439 A  
HETATM   23  C   UNL     1     -11.357  13.961  69.578  1.00  0.00    -0.293 A  
ENDBRANCH   6  18
TORSDOF 1
ENDMDL
MODEL       70
REMARK 921   NORMALIZED FREE ENERGY PREDICTED BY IDOCK:   -5.02 KCAL/MOL
REMARK 922        TOTAL FREE ENERGY PREDICTED BY IDOCK:   -5.61 KCAL/MOL
REMARK 923 INTER-LIGAND FREE ENERGY PREDICTED BY IDOCK:   -5.12 KCAL/MOL
REMARK 924 INTRA-LIGAND FREE ENERGY PREDICTED BY IDOCK:   -0.49 KCAL/MOL
REMARK 927      BINDING AFFINITY PREDICTED BY RF-SCORE:    0.00 PKD
ROOT
HETATM    1  C   UNL     1      -8.380   6.272  70.679  1.00  0.00    -0.133 C  
HETATM    2  N   UNL     1      -9.371   6.863  69.793  1.00  0.00    -0.147 N  
HETATM    3  C   UNL     1     -10.242   7.888  70.277  1.00  0.00    -0.200 A  
HETATM    4  C   UNL     1     -10.763   8.911  69.457  1.00  0.00    -0.206 A  
HETATM    5  C   UNL     1     -11.667   9.855  69.981  1.00  0.00    -0.186 A  
HETATM    6  C   UNL     1     -10.344   9.088  68.031  1.00  0.00    -0.224 C  
HETATM    7  N   UNL     1     -10.290   8.126  67.172  1.00  0.00    -0.294 NA 
HETATM    8  C   UNL     1     -12.003   9.827  71.329  1.00  0.00    -0.386 A  
HETATM    9  O   UNL     1      -8.693   5.410  68.134  1.00  0.00    -0.106 OA 
HETATM   10  H   UNL     1     -11.031   5.012  66.808  1.00  0.00     0.000 HD 
HETATM   11  H   UNL     1     -10.015   8.304  66.206  1.00  0.00     0.000 HD 
HETATM   12  C   UNL     1     -11.472   8.853  72.162  1.00  0.00    -0.387 A  
HETATM   13 CL   UNL     1     -13.061  11.020  71.973  1.00  0.00    -0.564 Cl 
HETATM   14  C   UNL     1     -10.631   6.781  67.611  1.00  0.00    -0.259 C  
HETATM   15  C   UNL     1     -10.607   7.887  71.637  1.00  0.00    -0.267 A  
HETATM   16  O   UNL     1     -10.808   5.890  66.520  1.00  0.00    -0.269 OA 
HETATM   17  C   UNL     1      -9.469   6.295  68.518  1.00  0.00    -0.123 C  
ENDROOT
BRANCH   6  18
HETATM   18  C   UNL     1      -9.979  10.461  67.537  1.00  0.00    -0.215 A  
HETATM   19  C   UNL     1      -8.779  11.087  67.897  1.00  0.00    -0.133 A  
HETATM   20  C   UNL     1      -9.415  13.051  66.633  1.00  0.00    -0.256 A  
HETATM   21  C   UNL     1      -8.506  12.385  67.454  1.00  0.00    -0.179 A  
HETATM   22  C   UNL     1     -10.592  12.419  66.238  1.00  0.00    -0.277 A  
HETATM   23  C   UNL     1     -10.872  11.127  66.685  1.00  0.00    -0.308 A  
ENDBRANCH   6  18
TORSDOF 1
ENDMDL
MODEL       71
REMARK 921   NORMALIZED FREE ENERGY PREDICTED BY IDOCK:   -5.00 KCAL/MOL
REMARK 922        TOTAL FREE ENERGY PREDICTED BY IDOCK:   -5.58 KCAL/MOL
REMARK 923 INTER-LIGAND FREE ENERGY PREDICTED BY IDOCK:   -5.10 KCAL/MOL
REMARK 924 INTRA-LIGAND FREE ENERGY PREDICTED BY IDOCK:   -0.48 KCAL/MOL
REMARK 927      BINDING AFFINITY PREDICTED BY RF-SCORE:    0.00 PKD
ROOT
HETATM    1  C   UNL     1     -10.557  11.020  67.157  1.00  0.00    -0.250 C  
HETATM    2  N   UNL     1     -10.918  10.239  68.330  1.00  0.00    -0.254 N  
HETATM    3  C   UNL     1     -10.584   8.851  68.395  1.00  0.00    -0.143 A  
HETATM    4  C   UNL     1     -10.312   8.177  69.604  1.00  0.00    -0.221 A  
HETATM    5  C   UNL     1     -10.051   6.793  69.606  1.00  0.00    -0.197 A  
HETATM    6  C   UNL     1     -10.222   8.889  70.917  1.00  0.00    -0.240 C  
HETATM    7  N   UNL     1     -11.097   9.741  71.336  1.00  0.00    -0.326 NA 
HETATM    8  C   UNL     1      -9.993   6.090  68.408  1.00  0.00    -0.145 A  
HETATM    9  O   UNL     1     -11.944  12.110  69.208  1.00  0.00    -0.300 OA 
HETATM   10  H   UNL     1     -13.982  10.974  70.603  1.00  0.00     0.000 HD 
HETATM   11  H   UNL     1     -10.997  10.185  72.248  1.00  0.00     0.000 HD 
HETATM   12  C   UNL     1     -10.219   6.742  67.204  1.00  0.00    -0.291 A  
HETATM   13 CL   UNL     1      -9.615   4.413  68.416  1.00  0.00    -0.211 Cl 
HETATM   14  C   UNL     1     -12.228  10.054  70.476  1.00  0.00    -0.222 C  
HETATM   15  C   UNL     1     -10.521   8.108  67.200  1.00  0.00    -0.396 A  
HETATM   16  O   UNL     1     -13.243  10.770  71.165  1.00  0.00    -0.324 OA 
HETATM   17  C   UNL     1     -11.679  10.904  69.299  1.00  0.00    -0.324 C  
ENDROOT
BRANCH   6  18
HETATM   18  C   UNL     1      -9.066   8.596  71.834  1.00  0.00    -0.326 A  
HETATM   19  C   UNL     1      -9.246   8.029  73.102  1.00  0.00    -0.347 A  
HETATM   20  C   UNL     1      -6.863   8.154  73.507  1.00  0.00    -0.144 A  
HETATM   21  C   UNL     1      -8.146   7.822  73.940  1.00  0.00    -0.246 A  
HETATM   22  C   UNL     1      -6.672   8.681  72.230  1.00  0.00    -0.068 A  
HETATM   23  C   UNL     1      -7.769   8.898  71.395  1.00  0.00    -0.126 A  
ENDBRANCH   6  18
TORSDOF 1
ENDMDL
MODEL       72
REMARK 921   NORMALIZED FREE ENERGY PREDICTED BY IDOCK:   -4.98 KCAL/MOL
REMARK 922        TOTAL FREE ENERGY PREDICTED BY IDOCK:   -5.56 KCAL/MOL
REMARK 923 INTER-LIGAND FREE ENERGY PREDICTED BY IDOCK:   -5.07 KCAL/MOL
REMARK 924 INTRA-LIGAND FREE ENERGY PREDICTED BY IDOCK:   -0.50 KCAL/MOL
REMARK 927      BINDING AFFINITY PREDICTED BY RF-SCORE:    0.00 PKD
ROOT
HETATM    1  C   UNL     1     -12.109  14.016  66.675  1.00  0.00    -0.456 C  
HETATM    2  N   UNL     1     -10.832  13.525  67.170  1.00  0.00    -0.282 N  
HETATM    3  C   UNL     1     -10.795  12.451  68.111  1.00  0.00    -0.221 A  
HETATM    4  C   UNL     1      -9.733  11.524  68.186  1.00  0.00    -0.192 A  
HETATM    5  C   UNL     1      -9.727  10.525  69.178  1.00  0.00    -0.226 A  
HETATM    6  C   UNL     1      -8.611  11.509  67.196  1.00  0.00    -0.155 C  
HETATM    7  N   UNL     1      -7.956  12.561  66.834  1.00  0.00    -0.381 NA 
HETATM    8  C   UNL     1     -10.801  10.401  70.053  1.00  0.00    -0.289 A  
HETATM    9  O   UNL     1      -9.772  15.156  65.928  1.00  0.00    -0.309 OA 
HETATM   10  H   UNL     1      -7.625  15.694  67.506  1.00  0.00     0.000 HD 
HETATM   11  H   UNL     1      -7.186  12.491  66.169  1.00  0.00     0.000 HD 
HETATM   12  C   UNL     1     -11.873  11.278  69.972  1.00  0.00    -0.448 A  
HETATM   13 CL   UNL     1     -10.811   9.141  71.222  1.00  0.00    -0.373 Cl 
HETATM   14  C   UNL     1      -8.341  13.846  67.395  1.00  0.00    -0.198 C  
HETATM   15  C   UNL     1     -11.864  12.298  69.015  1.00  0.00    -0.358 A  
HETATM   16  O   UNL     1      -7.374  14.854  67.139  1.00  0.00    -0.179 OA 
HETATM   17  C   UNL     1      -9.699  14.232  66.749  1.00  0.00    -0.275 C  
ENDROOT
BRANCH   6  18
HETATM   18  C   UNL     1      -8.184  10.199  66.590  1.00  0.00    -0.123 A  
HETATM   19  C   UNL     1      -6.972   9.584  66.925  1.00  0.00    -0.081 A  
HETATM   20  C   UNL     1      -7.434   7.800  65.356  1.00  0.00    -0.081 A  
HETATM   21  C   UNL     1      -6.594   8.393  66.298  1.00  0.00    -0.058 A  
HETATM   22  C   UNL     1      -8.660   8.386  65.048  1.00  0.00    -0.133 A  
HETATM   23  C   UNL     1      -9.036   9.579  65.665  1.00  0.00    -0.250 A  
ENDBRANCH   6  18
TORSDOF 1
ENDMDL
MODEL       73
REMARK 921   NORMALIZED FREE ENERGY PREDICTED BY IDOCK:   -4.98 KCAL/MOL
REMARK 922        TOTAL FREE ENERGY PREDICTED BY IDOCK:   -5.56 KCAL/MOL
REMARK 923 INTER-LIGAND FREE ENERGY PREDICTED BY IDOCK:   -5.10 KCAL/MOL
REMARK 924 INTRA-LIGAND FREE ENERGY PREDICTED BY IDOCK:   -0.46 KCAL/MOL
REMARK 927      BINDING AFFINITY PREDICTED BY RF-SCORE:    0.00 PKD
ROOT
HETATM    1  C   UNL     1     -10.492  13.516  67.046  1.00  0.00    -0.265 C  
HETATM    2  N   UNL     1      -9.917  12.543  67.962  1.00  0.00    -0.213 N  
HETATM    3  C   UNL     1     -10.736  11.930  68.959  1.00  0.00    -0.156 A  
HETATM    4  C   UNL     1     -10.511  10.626  69.450  1.00  0.00    -0.252 A  
HETATM    5  C   UNL     1     -11.317  10.102  70.479  1.00  0.00    -0.416 A  
HETATM    6  C   UNL     1      -9.469   9.720  68.873  1.00  0.00    -0.161 C  
HETATM    7  N   UNL     1      -8.250  10.080  68.644  1.00  0.00    -0.106 NA 
HETATM    8  C   UNL     1     -12.385  10.840  70.976  1.00  0.00    -0.404 A  
HETATM    9  O   UNL     1      -7.860  12.896  66.979  1.00  0.00    -0.117 OA 
HETATM   10  H   UNL     1      -6.202  12.524  69.100  1.00  0.00     0.000 HD 
HETATM   11  H   UNL     1      -7.574   9.416  68.266  1.00  0.00     0.000 HD 
HETATM   12  C   UNL     1     -12.648  12.109  70.480  1.00  0.00    -0.184 A  
HETATM   13 CL   UNL     1     -13.400  10.168  72.190  1.00  0.00    -0.510 Cl 
HETATM   14  C   UNL     1      -7.864  11.451  68.935  1.00  0.00    -0.096 C  
HETATM   15  C   UNL     1     -11.825  12.651  69.487  1.00  0.00    -0.376 A  
HETATM   16  O   UNL     1      -6.455  11.628  68.910  1.00  0.00    -0.059 OA 
HETATM   17  C   UNL     1      -8.535  12.348  67.860  1.00  0.00    -0.166 C  
ENDROOT
BRANCH   6  18
HETATM   18  C   UNL     1      -9.829   8.295  68.554  1.00  0.00    -0.188 A  
HETATM   19  C   UNL     1      -9.490   7.234  69.403  1.00  0.00    -0.154 A  
HETATM   20  C   UNL     1     -10.473   5.663  67.846  1.00  0.00    -0.274 A  
HETATM   21  C   UNL     1      -9.802   5.920  69.041  1.00  0.00    -0.193 A  
HETATM   22  C   UNL     1     -10.849   6.718  67.016  1.00  0.00    -0.453 A  
HETATM   23  C   UNL     1     -10.532   8.030  67.370  1.00  0.00    -0.357 A  
ENDBRANCH   6  18
TORSDOF 1
ENDMDL
MODEL       74
REMARK 921   NORMALIZED FREE ENERGY PREDICTED BY IDOCK:   -4.98 KCAL/MOL
REMARK 922        TOTAL FREE ENERGY PREDICTED BY IDOCK:   -5.56 KCAL/MOL
REMARK 923 INTER-LIGAND FREE ENERGY PREDICTED BY IDOCK:   -5.27 KCAL/MOL
REMARK 924 INTRA-LIGAND FREE ENERGY PREDICTED BY IDOCK:   -0.28 KCAL/MOL
REMARK 927      BINDING AFFINITY PREDICTED BY RF-SCORE:    0.00 PKD
ROOT
HETATM    1  C   UNL     1     -11.008   6.505  67.285  1.00  0.00    -0.400 C  
HETATM    2  N   UNL     1     -10.409   7.799  67.575  1.00  0.00    -0.241 N  
HETATM    3  C   UNL     1      -9.666   8.485  66.565  1.00  0.00    -0.260 A  
HETATM    4  C   UNL     1      -9.583   9.892  66.488  1.00  0.00    -0.243 A  
HETATM    5  C   UNL     1      -8.782  10.506  65.506  1.00  0.00    -0.197 A  
HETATM    6  C   UNL     1     -10.374  10.793  67.383  1.00  0.00    -0.211 C  
HETATM    7  N   UNL     1     -10.450  10.649  68.664  1.00  0.00    -0.180 NA 
HETATM    8  C   UNL     1      -8.118   9.733  64.560  1.00  0.00    -0.146 A  
HETATM    9  O   UNL     1     -11.181   7.624  69.742  1.00  0.00    -0.167 OA 
HETATM   10  H   UNL     1      -9.222   8.932  71.097  1.00  0.00     0.000 HD 
HETATM   11  H   UNL     1     -10.989  11.304  69.230  1.00  0.00     0.000 HD 
HETATM   12  C   UNL     1      -8.218   8.349  64.595  1.00  0.00    -0.157 A  
HETATM   13 CL   UNL     1      -7.191  10.494  63.329  1.00  0.00    -0.036 Cl 
HETATM   14  C   UNL     1      -9.749   9.534  69.281  1.00  0.00    -0.176 C  
HETATM   15  C   UNL     1      -8.978   7.732  65.594  1.00  0.00    -0.050 A  
HETATM   16  O   UNL     1      -9.680   9.660  70.694  1.00  0.00    -0.257 OA 
HETATM   17  C   UNL     1     -10.525   8.245  68.896  1.00  0.00    -0.191 C  
ENDROOT
BRANCH   6  18
HETATM   18  C   UNL     1     -11.117  11.956  66.784  1.00  0.00    -0.359 A  
HETATM   19  C   UNL     1     -11.171  13.207  67.411  1.00  0.00    -0.319 A  
HETATM   20  C   UNL     1     -12.584  14.046  65.635  1.00  0.00    -0.542 A  
HETATM   21  C   UNL     1     -11.915  14.245  66.842  1.00  0.00    -0.467 A  
HETATM   22  C   UNL     1     -12.501  12.816  64.985  1.00  0.00    -0.572 A  
HETATM   23  C   UNL     1     -11.767  11.776  65.555  1.00  0.00    -0.105 A  
ENDBRANCH   6  18
TORSDOF 1
ENDMDL
MODEL       75
REMARK 921   NORMALIZED FREE ENERGY PREDICTED BY IDOCK:   -4.97 KCAL/MOL
REMARK 922        TOTAL FREE ENERGY PREDICTED BY IDOCK:   -5.55 KCAL/MOL
REMARK 923 INTER-LIGAND FREE ENERGY PREDICTED BY IDOCK:   -5.16 KCAL/MOL
REMARK 924 INTRA-LIGAND FREE ENERGY PREDICTED BY IDOCK:   -0.39 KCAL/MOL
REMARK 927      BINDING AFFINITY PREDICTED BY RF-SCORE:    0.00 PKD
ROOT
HETATM    1  C   UNL     1      -5.373  17.280  66.125  1.00  0.00    -0.052 C  
HETATM    2  N   UNL     1      -6.460  16.762  66.942  1.00  0.00    -0.196 N  
HETATM    3  C   UNL     1      -7.670  17.509  67.079  1.00  0.00    -0.212 A  
HETATM    4  C   UNL     1      -8.931  16.908  67.284  1.00  0.00    -0.212 A  
HETATM    5  C   UNL     1     -10.077  17.703  67.475  1.00  0.00    -0.337 A  
HETATM    6  C   UNL     1      -9.128  15.425  67.245  1.00  0.00    -0.206 C  
HETATM    7  N   UNL     1      -8.381  14.582  67.876  1.00  0.00    -0.149 NA 
HETATM    8  C   UNL     1      -9.989  19.088  67.397  1.00  0.00    -0.342 A  
HETATM    9  O   UNL     1      -5.131  14.957  67.489  1.00  0.00    -0.325 OA 
HETATM   10  H   UNL     1      -5.979  14.437  70.018  1.00  0.00     0.000 HD 
HETATM   11  H   UNL     1      -8.571  13.581  67.830  1.00  0.00     0.000 HD 
HETATM   12  C   UNL     1      -8.766  19.698  67.158  1.00  0.00    -0.367 A  
HETATM   13 CL   UNL     1     -11.405  20.048  67.572  1.00  0.00     0.226 Cl 
HETATM   14  C   UNL     1      -7.261  15.092  68.653  1.00  0.00    -0.118 C  
HETATM   15  C   UNL     1      -7.616  18.914  67.010  1.00  0.00    -0.239 A  
HETATM   16  O   UNL     1      -6.710  14.104  69.510  1.00  0.00    -0.125 OA 
HETATM   17  C   UNL     1      -6.192  15.577  67.638  1.00  0.00    -0.149 C  
ENDROOT
BRANCH   6  18
HETATM   18  C   UNL     1     -10.272  14.857  66.450  1.00  0.00    -0.292 A  
HETATM   19  C   UNL     1     -10.565  15.292  65.151  1.00  0.00    -0.453 A  
HETATM   20  C   UNL     1     -12.467  13.798  65.070  1.00  0.00    -0.449 A  
HETATM   21  C   UNL     1     -11.669  14.771  64.470  1.00  0.00    -0.398 A  
HETATM   22  C   UNL     1     -12.158  13.331  66.346  1.00  0.00    -0.454 A  
HETATM   23  C   UNL     1     -11.062  13.856  67.033  1.00  0.00    -0.311 A  
ENDBRANCH   6  18
TORSDOF 1
ENDMDL
MODEL       76
REMARK 921   NORMALIZED FREE ENERGY PREDICTED BY IDOCK:   -4.97 KCAL/MOL
REMARK 922        TOTAL FREE ENERGY PREDICTED BY IDOCK:   -5.55 KCAL/MOL
REMARK 923 INTER-LIGAND FREE ENERGY PREDICTED BY IDOCK:   -5.14 KCAL/MOL
REMARK 924 INTRA-LIGAND FREE ENERGY PREDICTED BY IDOCK:   -0.40 KCAL/MOL
REMARK 927      BINDING AFFINITY PREDICTED BY RF-SCORE:    0.00 PKD
ROOT
HETATM    1  C   UNL     1     -10.917   6.239  67.954  1.00  0.00    -0.327 C  
HETATM    2  N   UNL     1     -10.480   7.497  68.539  1.00  0.00    -0.197 N  
HETATM    3  C   UNL     1      -9.497   8.291  67.873  1.00  0.00    -0.146 A  
HETATM    4  C   UNL     1      -9.446   9.699  67.967  1.00  0.00    -0.146 A  
HETATM    5  C   UNL     1      -8.413  10.419  67.337  1.00  0.00    -0.121 A  
HETATM    6  C   UNL     1     -10.501  10.494  68.671  1.00  0.00    -0.191 C  
HETATM    7  N   UNL     1     -10.948  10.214  69.849  1.00  0.00    -0.273 NA 
HETATM    8  C   UNL     1      -7.470   9.755  66.560  1.00  0.00    -0.095 A  
HETATM    9  O   UNL     1     -11.854   7.086  70.347  1.00  0.00    -0.306 OA 
HETATM   10  H   UNL     1     -10.435   8.250  72.351  1.00  0.00     0.000 HD 
HETATM   11  H   UNL     1     -11.655  10.801  70.291  1.00  0.00     0.000 HD 
HETATM   12  C   UNL     1      -7.524   8.376  66.423  1.00  0.00    -0.083 A  
HETATM   13 CL   UNL     1      -6.248  10.650  65.746  1.00  0.00    -0.131 Cl 
HETATM   14  C   UNL     1     -10.422   9.042  70.531  1.00  0.00    -0.223 C  
HETATM   15  C   UNL     1      -8.524   7.651  67.082  1.00  0.00    -0.121 A  
HETATM   16  O   UNL     1     -10.779   9.016  71.905  1.00  0.00    -0.347 OA 
HETATM   17  C   UNL     1     -10.999   7.798  69.804  1.00  0.00    -0.158 C  
ENDROOT
BRANCH   6  18
HETATM   18  C   UNL     1     -11.074  11.712  67.998  1.00  0.00    -0.299 A  
HETATM   19  C   UNL     1     -11.509  11.691  66.666  1.00  0.00    -0.280 A  
HETATM   20  C   UNL     1     -12.059  14.044  66.800  1.00  0.00    -0.480 A  
HETATM   21  C   UNL     1     -11.988  12.860  66.067  1.00  0.00    -0.505 A  
HETATM   22  C   UNL     1     -11.666  14.062  68.137  1.00  0.00    -0.387 A  
HETATM   23  C   UNL     1     -11.179  12.899  68.735  1.00  0.00    -0.323 A  
ENDBRANCH   6  18
TORSDOF 1
ENDMDL
MODEL       77
REMARK 921   NORMALIZED FREE ENERGY PREDICTED BY IDOCK:   -4.94 KCAL/MOL
REMARK 922        TOTAL FREE ENERGY PREDICTED BY IDOCK:   -5.52 KCAL/MOL
REMARK 923 INTER-LIGAND FREE ENERGY PREDICTED BY IDOCK:   -5.02 KCAL/MOL
REMARK 924 INTRA-LIGAND FREE ENERGY PREDICTED BY IDOCK:   -0.50 KCAL/MOL
REMARK 927      BINDING AFFINITY PREDICTED BY RF-SCORE:    0.00 PKD
ROOT
HETATM    1  C   UNL     1     -11.854  12.617  65.748  1.00  0.00    -0.444 C  
HETATM    2  N   UNL     1     -10.745  11.710  65.495  1.00  0.00    -0.276 N  
HETATM    3  C   UNL     1      -9.776  11.465  66.515  1.00  0.00    -0.200 A  
HETATM    4  C   UNL     1      -9.078  10.245  66.642  1.00  0.00    -0.163 A  
HETATM    5  C   UNL     1      -8.089  10.088  67.632  1.00  0.00    -0.110 A  
HETATM    6  C   UNL     1      -9.389   9.051  65.795  1.00  0.00    -0.236 C  
HETATM    7  N   UNL     1      -9.520   9.094  64.511  1.00  0.00    -0.327 NA 
HETATM    8  C   UNL     1      -7.836  11.112  68.537  1.00  0.00    -0.136 A  
HETATM    9  O   UNL     1     -11.515  11.439  63.337  1.00  0.00    -0.316 OA 
HETATM   10  H   UNL     1      -9.178  11.079  61.996  1.00  0.00     0.000 HD 
HETATM   11  H   UNL     1      -9.714   8.247  63.978  1.00  0.00     0.000 HD 
HETATM   12  C   UNL     1      -8.537  12.307  68.454  1.00  0.00    -0.136 A  
HETATM   13 CL   UNL     1      -6.667  10.890  69.778  1.00  0.00    -0.135 Cl 
HETATM   14  C   UNL     1      -9.386  10.379  63.842  1.00  0.00    -0.279 C  
HETATM   15  C   UNL     1      -9.491  12.483  67.446  1.00  0.00    -0.184 A  
HETATM   16  O   UNL     1      -9.267  10.239  62.433  1.00  0.00    -0.254 OA 
HETATM   17  C   UNL     1     -10.651  11.206  64.193  1.00  0.00    -0.368 C  
ENDROOT
BRANCH   6  18
HETATM   18  C   UNL     1      -9.540   7.705  66.449  1.00  0.00    -0.223 A  
HETATM   19  C   UNL     1      -8.588   6.690  66.291  1.00  0.00    -0.139 A  
HETATM   20  C   UNL     1      -9.938   5.202  67.641  1.00  0.00    -0.203 A  
HETATM   21  C   UNL     1      -8.795   5.438  66.877  1.00  0.00    -0.111 A  
HETATM   22  C   UNL     1     -10.870   6.220  67.835  1.00  0.00    -0.417 A  
HETATM   23  C   UNL     1     -10.670   7.469  67.244  1.00  0.00    -0.365 A  
ENDBRANCH   6  18
TORSDOF 1
ENDMDL
MODEL       78
REMARK 921   NORMALIZED FREE ENERGY PREDICTED BY IDOCK:   -4.88 KCAL/MOL
REMARK 922        TOTAL FREE ENERGY PREDICTED BY IDOCK:   -5.46 KCAL/MOL
REMARK 923 INTER-LIGAND FREE ENERGY PREDICTED BY IDOCK:   -5.02 KCAL/MOL
REMARK 924 INTRA-LIGAND FREE ENERGY PREDICTED BY IDOCK:   -0.44 KCAL/MOL
REMARK 927      BINDING AFFINITY PREDICTED BY RF-SCORE:    0.00 PKD
ROOT
HETATM    1  C   UNL     1      -9.485   9.123  66.776  1.00  0.00    -0.175 C  
HETATM    2  N   UNL     1      -9.170   9.333  68.181  1.00  0.00    -0.131 N  
HETATM    3  C   UNL     1     -10.176   9.811  69.076  1.00  0.00    -0.203 A  
HETATM    4  C   UNL     1     -10.210   9.482  70.448  1.00  0.00    -0.337 A  
HETATM    5  C   UNL     1     -11.193  10.038  71.290  1.00  0.00    -0.270 A  
HETATM    6  C   UNL     1      -9.267   8.495  71.060  1.00  0.00    -0.182 C  
HETATM    7  N   UNL     1      -7.989   8.508  70.871  1.00  0.00    -0.098 NA 
HETATM    8  C   UNL     1     -12.179  10.864  70.764  1.00  0.00    -0.383 A  
HETATM    9  O   UNL     1      -6.990   8.718  67.739  1.00  0.00    -0.073 OA 
HETATM   10  H   UNL     1      -5.646  10.262  69.527  1.00  0.00     0.000 HD 
HETATM   11  H   UNL     1      -7.389   7.822  71.328  1.00  0.00     0.000 HD 
HETATM   12  C   UNL     1     -12.187  11.169  69.411  1.00  0.00    -0.329 A  
HETATM   13 CL   UNL     1     -13.410  11.489  71.790  1.00  0.00    -0.450 Cl 
HETATM   14  C   UNL     1      -7.427   9.521  69.992  1.00  0.00    -0.126 C  
HETATM   15  C   UNL     1     -11.188  10.654  68.577  1.00  0.00    -0.342 A  
HETATM   16  O   UNL     1      -6.013   9.600  70.101  1.00  0.00    -0.042 OA 
HETATM   17  C   UNL     1      -7.832   9.138  68.544  1.00  0.00    -0.101 C  
ENDROOT
BRANCH   6  18
HETATM   18  C   UNL     1      -9.809   7.429  71.972  1.00  0.00    -0.191 A  
HETATM   19  C   UNL     1      -9.765   7.550  73.367  1.00  0.00    -0.346 A  
HETATM   20  C   UNL     1     -10.773   5.361  73.597  1.00  0.00    -0.337 A  
HETATM   21  C   UNL     1     -10.236   6.511  74.175  1.00  0.00    -0.380 A  
HETATM   22  C   UNL     1     -10.857   5.252  72.210  1.00  0.00    -0.269 A  
HETATM   23  C   UNL     1     -10.380   6.284  71.400  1.00  0.00    -0.251 A  
ENDBRANCH   6  18
TORSDOF 1
ENDMDL
MODEL       79
REMARK 921   NORMALIZED FREE ENERGY PREDICTED BY IDOCK:   -4.84 KCAL/MOL
REMARK 922        TOTAL FREE ENERGY PREDICTED BY IDOCK:   -5.42 KCAL/MOL
REMARK 923 INTER-LIGAND FREE ENERGY PREDICTED BY IDOCK:   -4.92 KCAL/MOL
REMARK 924 INTRA-LIGAND FREE ENERGY PREDICTED BY IDOCK:   -0.50 KCAL/MOL
REMARK 927      BINDING AFFINITY PREDICTED BY RF-SCORE:    0.00 PKD
ROOT
HETATM    1  C   UNL     1     -12.948  11.582  71.724  1.00  0.00    -0.394 C  
HETATM    2  N   UNL     1     -12.594  10.293  71.148  1.00  0.00    -0.365 N  
HETATM    3  C   UNL     1     -11.840  10.236  69.937  1.00  0.00    -0.193 A  
HETATM    4  C   UNL     1     -10.951   9.183  69.628  1.00  0.00    -0.168 A  
HETATM    5  C   UNL     1     -10.285   9.153  68.388  1.00  0.00    -0.230 A  
HETATM    6  C   UNL     1     -10.623   8.098  70.605  1.00  0.00    -0.215 C  
HETATM    7  N   UNL     1     -11.509   7.444  71.279  1.00  0.00    -0.265 NA 
HETATM    8  C   UNL     1     -10.444  10.195  67.482  1.00  0.00    -0.253 A  
HETATM    9  O   UNL     1     -13.769   9.260  72.844  1.00  0.00    -0.327 OA 
HETATM   10  H   UNL     1     -14.694   7.050  71.561  1.00  0.00     0.000 HD 
HETATM   11  H   UNL     1     -11.232   6.700  71.919  1.00  0.00     0.000 HD 
HETATM   12  C   UNL     1     -11.283  11.259  67.782  1.00  0.00    -0.354 A  
HETATM   13 CL   UNL     1      -9.580  10.178  65.996  1.00  0.00    -0.247 Cl 
HETATM   14  C   UNL     1     -12.911   7.793  71.106  1.00  0.00    -0.156 C  
HETATM   15  C   UNL     1     -11.981  11.273  68.994  1.00  0.00    -0.393 A  
HETATM   16  O   UNL     1     -13.778   6.823  71.675  1.00  0.00    -0.241 OA 
HETATM   17  C   UNL     1     -13.122   9.168  71.792  1.00  0.00    -0.392 C  
ENDROOT
BRANCH   6  18
HETATM   18  C   UNL     1      -9.185   7.710  70.817  1.00  0.00    -0.157 A  
HETATM   19  C   UNL     1      -8.680   6.471  70.402  1.00  0.00    -0.147 A  
HETATM   20  C   UNL     1      -6.512   7.040  71.317  1.00  0.00    -0.041 A  
HETATM   21  C   UNL     1      -7.349   6.134  70.665  1.00  0.00    -0.086 A  
HETATM   22  C   UNL     1      -6.998   8.290  71.696  1.00  0.00    -0.079 A  
HETATM   23  C   UNL     1      -8.328   8.626  71.443  1.00  0.00    -0.217 A  
ENDBRANCH   6  18
TORSDOF 1
ENDMDL
MODEL       80
REMARK 921   NORMALIZED FREE ENERGY PREDICTED BY IDOCK:   -4.82 KCAL/MOL
REMARK 922        TOTAL FREE ENERGY PREDICTED BY IDOCK:   -5.39 KCAL/MOL
REMARK 923 INTER-LIGAND FREE ENERGY PREDICTED BY IDOCK:   -4.91 KCAL/MOL
REMARK 924 INTRA-LIGAND FREE ENERGY PREDICTED BY IDOCK:   -0.49 KCAL/MOL
REMARK 927      BINDING AFFINITY PREDICTED BY RF-SCORE:    0.00 PKD
ROOT
HETATM    1  C   UNL     1      -7.455  10.473  67.109  1.00  0.00    -0.097 C  
HETATM    2  N   UNL     1      -8.788   9.968  67.404  1.00  0.00    -0.128 N  
HETATM    3  C   UNL     1      -9.110   8.603  67.134  1.00  0.00    -0.133 A  
HETATM    4  C   UNL     1     -10.053   7.868  67.885  1.00  0.00    -0.240 A  
HETATM    5  C   UNL     1     -10.373   6.544  67.528  1.00  0.00    -0.252 A  
HETATM    6  C   UNL     1     -10.703   8.418  69.115  1.00  0.00    -0.106 C  
HETATM    7  N   UNL     1     -11.237   9.591  69.184  1.00  0.00    -0.447 NA 
HETATM    8  C   UNL     1      -9.714   5.925  66.471  1.00  0.00    -0.155 A  
HETATM    9  O   UNL     1      -9.395  12.089  68.079  1.00  0.00    -0.182 OA 
HETATM   10  H   UNL     1     -12.016  12.130  67.360  1.00  0.00     0.000 HD 
HETATM   11  H   UNL     1     -11.684   9.910  70.043  1.00  0.00     0.000 HD 
HETATM   12  C   UNL     1      -8.756   6.617  65.744  1.00  0.00    -0.126 A  
HETATM   13 CL   UNL     1     -10.069   4.289  66.081  1.00  0.00    -0.233 Cl 
HETATM   14  C   UNL     1     -11.187  10.447  68.009  1.00  0.00    -0.272 C  
HETATM   15  C   UNL     1      -8.465   7.946  66.068  1.00  0.00    -0.145 A  
HETATM   16  O   UNL     1     -12.048  11.571  68.128  1.00  0.00    -0.604 OA 
HETATM   17  C   UNL     1      -9.716  10.915  67.853  1.00  0.00    -0.165 C  
ENDROOT
BRANCH   6  18
HETATM   18  C   UNL     1     -10.772   7.566  70.353  1.00  0.00    -0.248 A  
HETATM   19  C   UNL     1     -11.964   6.967  70.779  1.00  0.00    -0.424 A  
HETATM   20  C   UNL     1     -10.827   6.056  72.712  1.00  0.00    -0.284 A  
HETATM   21  C   UNL     1     -11.991   6.225  71.964  1.00  0.00    -0.353 A  
HETATM   22  C   UNL     1      -9.628   6.615  72.272  1.00  0.00    -0.150 A  
HETATM   23  C   UNL     1      -9.599   7.364  71.095  1.00  0.00    -0.162 A  
ENDBRANCH   6  18
TORSDOF 1
ENDMDL
MODEL       81
REMARK 921   NORMALIZED FREE ENERGY PREDICTED BY IDOCK:   -4.80 KCAL/MOL
REMARK 922        TOTAL FREE ENERGY PREDICTED BY IDOCK:   -5.38 KCAL/MOL
REMARK 923 INTER-LIGAND FREE ENERGY PREDICTED BY IDOCK:   -4.91 KCAL/MOL
REMARK 924 INTRA-LIGAND FREE ENERGY PREDICTED BY IDOCK:   -0.46 KCAL/MOL
REMARK 927      BINDING AFFINITY PREDICTED BY RF-SCORE:    0.00 PKD
ROOT
HETATM    1  C   UNL     1      -9.118   5.769  69.977  1.00  0.00    -0.142 C  
HETATM    2  N   UNL     1      -9.573   7.151  70.012  1.00  0.00    -0.165 N  
HETATM    3  C   UNL     1      -8.639   8.215  69.822  1.00  0.00    -0.133 A  
HETATM    4  C   UNL     1      -8.986   9.454  69.241  1.00  0.00    -0.154 A  
HETATM    5  C   UNL     1      -8.033  10.486  69.139  1.00  0.00    -0.145 A  
HETATM    6  C   UNL     1     -10.337   9.713  68.652  1.00  0.00    -0.203 C  
HETATM    7  N   UNL     1     -11.448   9.434  69.248  1.00  0.00    -0.423 NA 
HETATM    8  C   UNL     1      -6.723  10.271  69.551  1.00  0.00    -0.073 A  
HETATM    9  O   UNL     1     -11.699   6.395  70.494  1.00  0.00    -0.386 OA 
HETATM   10  H   UNL     1     -12.620   8.410  72.068  1.00  0.00     0.000 HD 
HETATM   11  H   UNL     1     -12.342   9.649  68.809  1.00  0.00     0.000 HD 
HETATM   12  C   UNL     1      -6.351   9.048  70.090  1.00  0.00    -0.043 A  
HETATM   13 CL   UNL     1      -5.553  11.518  69.368  1.00  0.00    -0.053 Cl 
HETATM   14  C   UNL     1     -11.394   8.806  70.559  1.00  0.00    -0.227 C  
HETATM   15  C   UNL     1      -7.304   8.034  70.232  1.00  0.00    -0.060 A  
HETATM   16  O   UNL     1     -12.655   8.819  71.211  1.00  0.00    -0.306 OA 
HETATM   17  C   UNL     1     -10.920   7.345  70.341  1.00  0.00    -0.251 C  
ENDROOT
BRANCH   6  18
HETATM   18  C   UNL     1     -10.436  10.357  67.296  1.00  0.00    -0.304 A  
HETATM   19  C   UNL     1     -11.098  11.575  67.097  1.00  0.00    -0.355 A  
HETATM   20  C   UNL     1     -10.637  11.449  64.724  1.00  0.00    -0.377 A  
HETATM   21  C   UNL     1     -11.208  12.111  65.810  1.00  0.00    -0.384 A  
HETATM   22  C   UNL     1      -9.942  10.257  64.921  1.00  0.00    -0.393 A  
HETATM   23  C   UNL     1      -9.838   9.715  66.203  1.00  0.00    -0.334 A  
ENDBRANCH   6  18
TORSDOF 1
ENDMDL
MODEL       82
REMARK 921   NORMALIZED FREE ENERGY PREDICTED BY IDOCK:   -4.76 KCAL/MOL
REMARK 922        TOTAL FREE ENERGY PREDICTED BY IDOCK:   -5.32 KCAL/MOL
REMARK 923 INTER-LIGAND FREE ENERGY PREDICTED BY IDOCK:   -4.84 KCAL/MOL
REMARK 924 INTRA-LIGAND FREE ENERGY PREDICTED BY IDOCK:   -0.48 KCAL/MOL
REMARK 927      BINDING AFFINITY PREDICTED BY RF-SCORE:    0.00 PKD
ROOT
HETATM    1  C   UNL     1      -9.076   8.542  69.742  1.00  0.00    -0.153 C  
HETATM    2  N   UNL     1      -8.533   9.739  69.120  1.00  0.00    -0.133 N  
HETATM    3  C   UNL     1      -8.997  10.149  67.833  1.00  0.00    -0.128 A  
HETATM    4  C   UNL     1      -9.042  11.498  67.420  1.00  0.00    -0.166 A  
HETATM    5  C   UNL     1      -9.450  11.832  66.115  1.00  0.00    -0.240 A  
HETATM    6  C   UNL     1      -8.728  12.631  68.347  1.00  0.00    -0.118 C  
HETATM    7  N   UNL     1      -7.686  12.671  69.108  1.00  0.00    -0.318 NA 
HETATM    8  C   UNL     1      -9.877  10.839  65.240  1.00  0.00    -0.272 A  
HETATM    9  O   UNL     1      -7.118   9.983  70.926  1.00  0.00    -0.337 OA 
HETATM   10  H   UNL     1      -4.945  11.098  69.734  1.00  0.00     0.000 HD 
HETATM   11  H   UNL     1      -7.510  13.477  69.708  1.00  0.00     0.000 HD 
HETATM   12  C   UNL     1      -9.877   9.510  65.639  1.00  0.00    -0.343 A  
HETATM   13 CL   UNL     1     -10.430  11.263  63.668  1.00  0.00    -0.439 Cl 
HETATM   14  C   UNL     1      -6.770  11.541  69.092  1.00  0.00    -0.108 C  
HETATM   15  C   UNL     1      -9.433   9.169  66.920  1.00  0.00    -0.222 A  
HETATM   16  O   UNL     1      -5.544  11.836  69.745  1.00  0.00    -0.072 OA 
HETATM   17  C   UNL     1      -7.489  10.367  69.809  1.00  0.00    -0.149 C  
ENDROOT
BRANCH   6  18
HETATM   18  C   UNL     1      -9.652  13.817  68.396  1.00  0.00    -0.206 A  
HETATM   19  C   UNL     1      -9.237  15.101  68.020  1.00  0.00    -0.185 A  
HETATM   20  C   UNL     1     -11.417  15.983  68.590  1.00  0.00    -0.377 A  
HETATM   21  C   UNL     1     -10.116  16.182  68.130  1.00  0.00    -0.237 A  
HETATM   22  C   UNL     1     -11.850  14.702  68.928  1.00  0.00    -0.344 A  
HETATM   23  C   UNL     1     -10.972  13.622  68.827  1.00  0.00    -0.292 A  
ENDBRANCH   6  18
TORSDOF 1
ENDMDL
MODEL       83
REMARK 921   NORMALIZED FREE ENERGY PREDICTED BY IDOCK:   -4.73 KCAL/MOL
REMARK 922        TOTAL FREE ENERGY PREDICTED BY IDOCK:   -5.30 KCAL/MOL
REMARK 923 INTER-LIGAND FREE ENERGY PREDICTED BY IDOCK:   -5.16 KCAL/MOL
REMARK 924 INTRA-LIGAND FREE ENERGY PREDICTED BY IDOCK:   -0.14 KCAL/MOL
REMARK 927      BINDING AFFINITY PREDICTED BY RF-SCORE:    0.00 PKD
ROOT
HETATM    1  C   UNL     1     -10.157  10.353  64.989  1.00  0.00    -0.309 C  
HETATM    2  N   UNL     1      -9.680  10.381  66.363  1.00  0.00    -0.192 N  
HETATM    3  C   UNL     1     -10.411  11.099  67.359  1.00  0.00    -0.220 A  
HETATM    4  C   UNL     1     -10.436  10.726  68.720  1.00  0.00    -0.221 A  
HETATM    5  C   UNL     1     -11.125  11.511  69.663  1.00  0.00    -0.211 A  
HETATM    6  C   UNL     1      -9.800   9.465  69.217  1.00  0.00    -0.174 C  
HETATM    7  N   UNL     1      -8.602   9.094  68.911  1.00  0.00    -0.129 NA 
HETATM    8  C   UNL     1     -11.844  12.627  69.251  1.00  0.00    -0.302 A  
HETATM    9  O   UNL     1      -7.843   9.150  65.705  1.00  0.00    -0.096 OA 
HETATM   10  H   UNL     1      -5.945  10.109  67.398  1.00  0.00     0.000 HD 
HETATM   11  H   UNL     1      -8.209   8.234  69.293  1.00  0.00     0.000 HD 
HETATM   12  C   UNL     1     -11.866  12.990  67.912  1.00  0.00    -0.389 A  
HETATM   13 CL   UNL     1     -12.732  13.547  70.402  1.00  0.00    -0.236 Cl 
HETATM   14  C   UNL     1      -7.825   9.929  68.008  1.00  0.00    -0.086 C  
HETATM   15  C   UNL     1     -11.148  12.237  66.978  1.00  0.00    -0.339 A  
HETATM   16  O   UNL     1      -6.453   9.563  67.987  1.00  0.00    -0.060 OA 
HETATM   17  C   UNL     1      -8.445   9.766  66.595  1.00  0.00    -0.124 C  
ENDROOT
BRANCH   6  18
HETATM   18  C   UNL     1     -10.571   8.571  70.149  1.00  0.00    -0.238 A  
HETATM   19  C   UNL     1     -11.143   7.366  69.722  1.00  0.00    -0.169 A  
HETATM   20  C   UNL     1     -12.056   7.004  71.934  1.00  0.00    -0.358 A  
HETATM   21  C   UNL     1     -11.894   6.593  70.611  1.00  0.00    -0.443 A  
HETATM   22  C   UNL     1     -11.456   8.182  72.376  1.00  0.00    -0.462 A  
HETATM   23  C   UNL     1     -10.713   8.961  71.488  1.00  0.00    -0.398 A  
ENDBRANCH   6  18
TORSDOF 1
ENDMDL
MODEL       84
REMARK 921   NORMALIZED FREE ENERGY PREDICTED BY IDOCK:   -4.73 KCAL/MOL
REMARK 922        TOTAL FREE ENERGY PREDICTED BY IDOCK:   -5.30 KCAL/MOL
REMARK 923 INTER-LIGAND FREE ENERGY PREDICTED BY IDOCK:   -4.83 KCAL/MOL
REMARK 924 INTRA-LIGAND FREE ENERGY PREDICTED BY IDOCK:   -0.47 KCAL/MOL
REMARK 927      BINDING AFFINITY PREDICTED BY RF-SCORE:    0.00 PKD
ROOT
HETATM    1  C   UNL     1     -13.104   9.738  71.289  1.00  0.00    -0.381 C  
HETATM    2  N   UNL     1     -11.799   9.621  70.657  1.00  0.00    -0.270 N  
HETATM    3  C   UNL     1     -10.904   8.581  71.053  1.00  0.00    -0.241 A  
HETATM    4  C   UNL     1      -9.963   7.995  70.179  1.00  0.00    -0.191 A  
HETATM    5  C   UNL     1      -9.066   7.017  70.648  1.00  0.00    -0.158 A  
HETATM    6  C   UNL     1      -9.911   8.325  68.720  1.00  0.00    -0.173 C  
HETATM    7  N   UNL     1      -9.922   9.528  68.253  1.00  0.00    -0.156 NA 
HETATM    8  C   UNL     1      -9.141   6.570  71.962  1.00  0.00    -0.140 A  
HETATM    9  O   UNL     1     -12.272  11.516  69.428  1.00  0.00    -0.289 OA 
HETATM   10  H   UNL     1      -9.795  12.608  69.187  1.00  0.00     0.000 HD 
HETATM   11  H   UNL     1      -9.866   9.698  67.249  1.00  0.00     0.000 HD 
HETATM   12  C   UNL     1     -10.084   7.105  72.828  1.00  0.00    -0.230 A  
HETATM   13 CL   UNL     1      -8.080   5.333  72.509  1.00  0.00    -0.102 Cl 
HETATM   14  C   UNL     1     -10.018  10.636  69.190  1.00  0.00    -0.211 C  
HETATM   15  C   UNL     1     -10.950   8.107  72.379  1.00  0.00    -0.414 A  
HETATM   16  O   UNL     1      -9.733  11.884  68.575  1.00  0.00    -0.205 OA 
HETATM   17  C   UNL     1     -11.466  10.632  69.748  1.00  0.00    -0.302 C  
ENDROOT
BRANCH   6  18
HETATM   18  C   UNL     1      -9.816   7.207  67.717  1.00  0.00    -0.175 A  
HETATM   19  C   UNL     1     -10.919   6.412  67.381  1.00  0.00    -0.463 A  
HETATM   20  C   UNL     1      -9.532   5.098  65.896  1.00  0.00    -0.168 A  
HETATM   21  C   UNL     1     -10.771   5.352  66.482  1.00  0.00    -0.309 A  
HETATM   22  C   UNL     1      -8.439   5.911  66.194  1.00  0.00    -0.132 A  
HETATM   23  C   UNL     1      -8.581   6.964  67.099  1.00  0.00    -0.121 A  
ENDBRANCH   6  18
TORSDOF 1
ENDMDL
MODEL       85
REMARK 921   NORMALIZED FREE ENERGY PREDICTED BY IDOCK:   -4.73 KCAL/MOL
REMARK 922        TOTAL FREE ENERGY PREDICTED BY IDOCK:   -5.29 KCAL/MOL
REMARK 923 INTER-LIGAND FREE ENERGY PREDICTED BY IDOCK:   -4.80 KCAL/MOL
REMARK 924 INTRA-LIGAND FREE ENERGY PREDICTED BY IDOCK:   -0.50 KCAL/MOL
REMARK 927      BINDING AFFINITY PREDICTED BY RF-SCORE:    0.00 PKD
ROOT
HETATM    1  C   UNL     1     -11.466   6.275  69.708  1.00  0.00    -0.379 C  
HETATM    2  N   UNL     1     -10.413   7.274  69.613  1.00  0.00    -0.225 N  
HETATM    3  C   UNL     1      -9.829   7.579  68.346  1.00  0.00    -0.164 A  
HETATM    4  C   UNL     1      -9.309   8.850  68.019  1.00  0.00    -0.153 A  
HETATM    5  C   UNL     1      -8.688   9.068  66.774  1.00  0.00    -0.134 A  
HETATM    6  C   UNL     1      -9.444  10.030  68.930  1.00  0.00    -0.172 C  
HETATM    7  N   UNL     1      -9.170  10.001  70.191  1.00  0.00    -0.384 NA 
HETATM    8  C   UNL     1      -8.640   8.050  65.828  1.00  0.00    -0.153 A  
HETATM    9  O   UNL     1     -10.503   7.523  71.905  1.00  0.00    -0.199 OA 
HETATM   10  H   UNL     1      -7.907   8.100  72.465  1.00  0.00     0.000 HD 
HETATM   11  H   UNL     1      -9.262  10.839  70.763  1.00  0.00     0.000 HD 
HETATM   12  C   UNL     1      -9.179   6.804  66.114  1.00  0.00    -0.120 A  
HETATM   13 CL   UNL     1      -7.933   8.345  64.289  1.00  0.00    -0.144 Cl 
HETATM   14  C   UNL     1      -8.729   8.745  70.777  1.00  0.00    -0.189 C  
HETATM   15  C   UNL     1      -9.759   6.570  67.365  1.00  0.00    -0.150 A  
HETATM   16  O   UNL     1      -8.195   8.921  72.082  1.00  0.00    -0.373 OA 
HETATM   17  C   UNL     1      -9.966   7.810  70.827  1.00  0.00    -0.181 C  
ENDROOT
BRANCH   6  18
HETATM   18  C   UNL     1      -9.901  11.346  68.363  1.00  0.00    -0.205 A  
HETATM   19  C   UNL     1      -9.044  12.449  68.257  1.00  0.00    -0.183 A  
HETATM   20  C   UNL     1     -10.856  13.783  67.366  1.00  0.00    -0.285 A  
HETATM   21  C   UNL     1      -9.527  13.668  67.771  1.00  0.00    -0.221 A  
HETATM   22  C   UNL     1     -11.704  12.678  67.430  1.00  0.00    -0.432 A  
HETATM   23  C   UNL     1     -11.227  11.463  67.924  1.00  0.00    -0.352 A  
ENDBRANCH   6  18
TORSDOF 1
ENDMDL
MODEL       86
REMARK 921   NORMALIZED FREE ENERGY PREDICTED BY IDOCK:   -4.69 KCAL/MOL
REMARK 922        TOTAL FREE ENERGY PREDICTED BY IDOCK:   -5.26 KCAL/MOL
REMARK 923 INTER-LIGAND FREE ENERGY PREDICTED BY IDOCK:   -4.93 KCAL/MOL
REMARK 924 INTRA-LIGAND FREE ENERGY PREDICTED BY IDOCK:   -0.32 KCAL/MOL
REMARK 927      BINDING AFFINITY PREDICTED BY RF-SCORE:    0.00 PKD
ROOT
HETATM    1  C   UNL     1      -8.851   8.059  72.797  1.00  0.00    -0.214 C  
HETATM    2  N   UNL     1      -9.822   7.977  71.716  1.00  0.00    -0.172 N  
HETATM    3  C   UNL     1      -9.535   8.573  70.450  1.00  0.00    -0.165 A  
HETATM    4  C   UNL     1     -10.037   8.075  69.229  1.00  0.00    -0.198 A  
HETATM    5  C   UNL     1      -9.769   8.746  68.021  1.00  0.00    -0.183 A  
HETATM    6  C   UNL     1     -10.811   6.797  69.141  1.00  0.00    -0.258 C  
HETATM    7  N   UNL     1     -11.796   6.497  69.920  1.00  0.00    -0.615 NA 
HETATM    8  C   UNL     1      -8.951   9.870  68.011  1.00  0.00    -0.121 A  
HETATM    9  O   UNL     1     -11.258   6.875  73.148  1.00  0.00    -0.230 OA 
HETATM   10  H   UNL     1     -13.666   7.739  72.231  1.00  0.00     0.000 HD 
HETATM   11  H   UNL     1     -12.302   5.619  69.805  1.00  0.00     0.000 HD 
HETATM   12  C   UNL     1      -8.415  10.354  69.196  1.00  0.00    -0.168 A  
HETATM   13 CL   UNL     1      -8.581  10.648  66.523  1.00  0.00    -0.138 Cl 
HETATM   14  C   UNL     1     -12.167   7.439  70.965  1.00  0.00    -0.282 C  
HETATM   15  C   UNL     1      -8.713   9.716  70.404  1.00  0.00    -0.213 A  
HETATM   16  O   UNL     1     -13.423   7.123  71.549  1.00  0.00    -0.383 OA 
HETATM   17  C   UNL     1     -11.049   7.385  72.039  1.00  0.00    -0.242 C  
ENDROOT
BRANCH   6  18
HETATM   18  C   UNL     1     -10.456   5.795  68.077  1.00  0.00    -0.286 A  
HETATM   19  C   UNL     1     -10.991   5.860  66.785  1.00  0.00    -0.280 A  
HETATM   20  C   UNL     1      -9.798   3.843  66.179  1.00  0.00    -0.131 A  
HETATM   21  C   UNL     1     -10.671   4.877  65.843  1.00  0.00    -0.233 A  
HETATM   22  C   UNL     1      -9.230   3.795  67.451  1.00  0.00    -0.212 A  
HETATM   23  C   UNL     1      -9.554   4.769  68.396  1.00  0.00    -0.210 A  
ENDBRANCH   6  18
TORSDOF 1
ENDMDL
MODEL       87
REMARK 921   NORMALIZED FREE ENERGY PREDICTED BY IDOCK:   -4.66 KCAL/MOL
REMARK 922        TOTAL FREE ENERGY PREDICTED BY IDOCK:   -5.23 KCAL/MOL
REMARK 923 INTER-LIGAND FREE ENERGY PREDICTED BY IDOCK:   -5.24 KCAL/MOL
REMARK 924 INTRA-LIGAND FREE ENERGY PREDICTED BY IDOCK:    0.01 KCAL/MOL
REMARK 927      BINDING AFFINITY PREDICTED BY RF-SCORE:    0.00 PKD
ROOT
HETATM    1  C   UNL     1     -11.641  12.441  63.914  1.00  0.00    -0.441 C  
HETATM    2  N   UNL     1     -11.136  12.759  65.240  1.00  0.00    -0.282 N  
HETATM    3  C   UNL     1      -9.892  12.212  65.682  1.00  0.00    -0.237 A  
HETATM    4  C   UNL     1      -9.037  12.871  66.591  1.00  0.00    -0.181 A  
HETATM    5  C   UNL     1      -7.854  12.249  67.036  1.00  0.00    -0.108 A  
HETATM    6  C   UNL     1      -9.298  14.263  67.073  1.00  0.00    -0.241 C  
HETATM    7  N   UNL     1     -10.440  14.670  67.516  1.00  0.00    -0.246 NA 
HETATM    8  C   UNL     1      -7.484  11.008  66.532  1.00  0.00    -0.145 A  
HETATM    9  O   UNL     1     -13.052  13.984  65.629  1.00  0.00    -0.639 OA 
HETATM   10  H   UNL     1     -13.377  13.602  68.300  1.00  0.00     0.000 HD 
HETATM   11  H   UNL     1     -10.559  15.626  67.850  1.00  0.00     0.000 HD 
HETATM   12  C   UNL     1      -8.292  10.360  65.608  1.00  0.00    -0.163 A  
HETATM   13 CL   UNL     1      -6.008  10.284  67.036  1.00  0.00    -0.050 Cl 
HETATM   14  C   UNL     1     -11.554  13.734  67.527  1.00  0.00    -0.354 C  
HETATM   15  C   UNL     1      -9.489  10.954  65.195  1.00  0.00    -0.268 A  
HETATM   16  O   UNL     1     -12.650  14.214  68.292  1.00  0.00     0.069 OA 
HETATM   17  C   UNL     1     -11.983  13.524  66.051  1.00  0.00    -0.409 C  
ENDROOT
BRANCH   6  18
HETATM   18  C   UNL     1      -8.174  15.263  67.073  1.00  0.00    -0.267 A  
HETATM   19  C   UNL     1      -6.994  15.056  67.799  1.00  0.00    -0.193 A  
HETATM   20  C   UNL     1      -6.162  17.212  67.079  1.00  0.00    -0.212 A  
HETATM   21  C   UNL     1      -5.997  16.036  67.810  1.00  0.00    -0.162 A  
HETATM   22  C   UNL     1      -7.316  17.407  66.322  1.00  0.00    -0.347 A  
HETATM   23  C   UNL     1      -8.317  16.434  66.316  1.00  0.00    -0.362 A  
ENDBRANCH   6  18
TORSDOF 1
ENDMDL
MODEL       88
REMARK 921   NORMALIZED FREE ENERGY PREDICTED BY IDOCK:   -4.64 KCAL/MOL
REMARK 922        TOTAL FREE ENERGY PREDICTED BY IDOCK:   -5.20 KCAL/MOL
REMARK 923 INTER-LIGAND FREE ENERGY PREDICTED BY IDOCK:   -4.74 KCAL/MOL
REMARK 924 INTRA-LIGAND FREE ENERGY PREDICTED BY IDOCK:   -0.46 KCAL/MOL
REMARK 927      BINDING AFFINITY PREDICTED BY RF-SCORE:    0.00 PKD
ROOT
HETATM    1  C   UNL     1     -11.030  13.911  67.734  1.00  0.00    -0.256 C  
HETATM    2  N   UNL     1     -11.110  12.570  68.291  1.00  0.00    -0.240 N  
HETATM    3  C   UNL     1     -10.567  11.463  67.570  1.00  0.00    -0.213 A  
HETATM    4  C   UNL     1     -10.038  10.315  68.199  1.00  0.00    -0.175 A  
HETATM    5  C   UNL     1      -9.575   9.230  67.430  1.00  0.00    -0.190 A  
HETATM    6  C   UNL     1      -9.882  10.214  69.684  1.00  0.00    -0.225 C  
HETATM    7  N   UNL     1     -10.812  10.515  70.528  1.00  0.00    -0.419 NA 
HETATM    8  C   UNL     1      -9.572   9.307  66.042  1.00  0.00    -0.270 A  
HETATM    9  O   UNL     1     -12.280  13.431  70.085  1.00  0.00    -0.331 OA 
HETATM   10  H   UNL     1     -13.920  11.347  70.680  1.00  0.00     0.000 HD 
HETATM   11  H   UNL     1     -10.659  10.410  71.530  1.00  0.00     0.000 HD 
HETATM   12  C   UNL     1     -10.051  10.442  65.404  1.00  0.00    -0.354 A  
HETATM   13 CL   UNL     1      -8.949   8.001  65.113  1.00  0.00     0.062 Cl 
HETATM   14  C   UNL     1     -12.081  11.009  70.016  1.00  0.00    -0.364 C  
HETATM   15  C   UNL     1     -10.552  11.505  66.163  1.00  0.00    -0.314 A  
HETATM   16  O   UNL     1     -13.091  11.026  71.015  1.00  0.00    -0.313 OA 
HETATM   17  C   UNL     1     -11.827  12.445  69.487  1.00  0.00    -0.303 C  
ENDROOT
BRANCH   6  18
HETATM   18  C   UNL     1      -8.584   9.711  70.254  1.00  0.00    -0.234 A  
HETATM   19  C   UNL     1      -8.521   8.582  71.080  1.00  0.00    -0.191 A  
HETATM   20  C   UNL     1      -6.133   8.889  71.332  1.00  0.00    -0.061 A  
HETATM   21  C   UNL     1      -7.298   8.182  71.628  1.00  0.00    -0.088 A  
HETATM   22  C   UNL     1      -6.182   9.989  70.478  1.00  0.00    -0.109 A  
HETATM   23  C   UNL     1      -7.403  10.397  69.937  1.00  0.00    -0.149 A  
ENDBRANCH   6  18
TORSDOF 1
ENDMDL
MODEL       89
REMARK 921   NORMALIZED FREE ENERGY PREDICTED BY IDOCK:   -4.64 KCAL/MOL
REMARK 922        TOTAL FREE ENERGY PREDICTED BY IDOCK:   -5.20 KCAL/MOL
REMARK 923 INTER-LIGAND FREE ENERGY PREDICTED BY IDOCK:   -4.69 KCAL/MOL
REMARK 924 INTRA-LIGAND FREE ENERGY PREDICTED BY IDOCK:   -0.50 KCAL/MOL
REMARK 927      BINDING AFFINITY PREDICTED BY RF-SCORE:    0.00 PKD
ROOT
HETATM    1  C   UNL     1     -10.161   9.005  71.591  1.00  0.00    -0.335 C  
HETATM    2  N   UNL     1     -10.379   8.773  70.171  1.00  0.00    -0.201 N  
HETATM    3  C   UNL     1     -10.755   9.856  69.319  1.00  0.00    -0.224 A  
HETATM    4  C   UNL     1     -10.408   9.922  67.953  1.00  0.00    -0.256 A  
HETATM    5  C   UNL     1     -10.863  10.986  67.151  1.00  0.00    -0.336 A  
HETATM    6  C   UNL     1      -9.500   8.923  67.307  1.00  0.00    -0.154 C  
HETATM    7  N   UNL     1      -9.628   7.645  67.437  1.00  0.00    -0.141 NA 
HETATM    8  C   UNL     1     -11.605  12.018  67.714  1.00  0.00    -0.330 A  
HETATM    9  O   UNL     1      -9.966   6.530  70.519  1.00  0.00    -0.182 OA 
HETATM   10  H   UNL     1     -11.599   5.408  68.658  1.00  0.00     0.000 HD 
HETATM   11  H   UNL     1      -8.992   7.006  66.959  1.00  0.00     0.000 HD 
HETATM   12  C   UNL     1     -11.926  11.993  69.064  1.00  0.00    -0.321 A  
HETATM   13 CL   UNL     1     -12.107  13.344  66.740  1.00  0.00    -0.437 Cl 
HETATM   14  C   UNL     1     -10.698   7.136  68.281  1.00  0.00    -0.153 C  
HETATM   15  C   UNL     1     -11.512  10.916  69.855  1.00  0.00    -0.402 A  
HETATM   16  O   UNL     1     -10.900   5.741  68.108  1.00  0.00    -0.241 OA 
HETATM   17  C   UNL     1     -10.299   7.441  69.749  1.00  0.00    -0.222 C  
ENDROOT
BRANCH   6  18
HETATM   18  C   UNL     1      -8.378   9.408  66.430  1.00  0.00    -0.116 A  
HETATM   19  C   UNL     1      -7.305  10.151  66.937  1.00  0.00    -0.092 A  
HETATM   20  C   UNL     1      -6.370  10.336  64.712  1.00  0.00    -0.114 A  
HETATM   21  C   UNL     1      -6.311  10.624  66.075  1.00  0.00    -0.132 A  
HETATM   22  C   UNL     1      -7.414   9.563  64.207  1.00  0.00    -0.119 A  
HETATM   23  C   UNL     1      -8.413   9.097  65.063  1.00  0.00    -0.187 A  
ENDBRANCH   6  18
TORSDOF 1
ENDMDL
MODEL       90
REMARK 921   NORMALIZED FREE ENERGY PREDICTED BY IDOCK:   -4.62 KCAL/MOL
REMARK 922        TOTAL FREE ENERGY PREDICTED BY IDOCK:   -5.18 KCAL/MOL
REMARK 923 INTER-LIGAND FREE ENERGY PREDICTED BY IDOCK:   -4.72 KCAL/MOL
REMARK 924 INTRA-LIGAND FREE ENERGY PREDICTED BY IDOCK:   -0.45 KCAL/MOL
REMARK 927      BINDING AFFINITY PREDICTED BY RF-SCORE:    0.00 PKD
ROOT
HETATM    1  C   UNL     1      -7.229  10.677  69.811  1.00  0.00    -0.131 C  
HETATM    2  N   UNL     1      -8.462  10.027  69.395  1.00  0.00    -0.157 N  
HETATM    3  C   UNL     1      -8.982  10.253  68.083  1.00  0.00    -0.130 A  
HETATM    4  C   UNL     1      -9.735   9.293  67.374  1.00  0.00    -0.208 A  
HETATM    5  C   UNL     1     -10.272   9.601  66.110  1.00  0.00    -0.276 A  
HETATM    6  C   UNL     1      -9.945   7.902  67.884  1.00  0.00    -0.178 C  
HETATM    7  N   UNL     1     -10.319   7.626  69.088  1.00  0.00    -0.211 NA 
HETATM    8  C   UNL     1     -10.010  10.831  65.518  1.00  0.00    -0.263 A  
HETATM    9  O   UNL     1      -8.639   9.107  71.504  1.00  0.00    -0.339 OA 
HETATM   10  H   UNL     1     -11.338   9.022  71.807  1.00  0.00     0.000 HD 
HETATM   11  H   UNL     1     -10.466   6.659  69.379  1.00  0.00     0.000 HD 
HETATM   12  C   UNL     1      -9.240  11.775  66.182  1.00  0.00    -0.218 A  
HETATM   13 CL   UNL     1     -10.621  11.175  63.948  1.00  0.00    -0.434 Cl 
HETATM   14  C   UNL     1     -10.527   8.723  70.021  1.00  0.00    -0.212 C  
HETATM   15  C   UNL     1      -8.739  11.491  67.456  1.00  0.00    -0.145 A  
HETATM   16  O   UNL     1     -11.202   8.305  71.198  1.00  0.00    -0.247 OA 
HETATM   17  C   UNL     1      -9.124   9.283  70.378  1.00  0.00    -0.247 C  
ENDROOT
BRANCH   6  18
HETATM   18  C   UNL     1      -9.737   6.739  66.953  1.00  0.00    -0.215 A  
HETATM   19  C   UNL     1      -8.543   6.556  66.245  1.00  0.00    -0.141 A  
HETATM   20  C   UNL     1      -9.463   4.586  65.182  1.00  0.00    -0.166 A  
HETATM   21  C   UNL     1      -8.413   5.488  65.352  1.00  0.00    -0.146 A  
HETATM   22  C   UNL     1     -10.640   4.739  65.913  1.00  0.00    -0.290 A  
HETATM   23  C   UNL     1     -10.775   5.809  66.799  1.00  0.00    -0.369 A  
ENDBRANCH   6  18
TORSDOF 1
ENDMDL
MODEL       91
REMARK 921   NORMALIZED FREE ENERGY PREDICTED BY IDOCK:   -4.61 KCAL/MOL
REMARK 922        TOTAL FREE ENERGY PREDICTED BY IDOCK:   -5.17 KCAL/MOL
REMARK 923 INTER-LIGAND FREE ENERGY PREDICTED BY IDOCK:   -5.24 KCAL/MOL
REMARK 924 INTRA-LIGAND FREE ENERGY PREDICTED BY IDOCK:    0.07 KCAL/MOL
REMARK 927      BINDING AFFINITY PREDICTED BY RF-SCORE:    0.00 PKD
ROOT
HETATM    1  C   UNL     1      -7.093  13.568  67.890  1.00  0.00    -0.140 C  
HETATM    2  N   UNL     1      -8.546  13.502  67.920  1.00  0.00    -0.170 N  
HETATM    3  C   UNL     1      -9.198  12.344  68.445  1.00  0.00    -0.145 A  
HETATM    4  C   UNL     1     -10.458  12.387  69.079  1.00  0.00    -0.033 A  
HETATM    5  C   UNL     1     -11.076  11.201  69.519  1.00  0.00    -0.311 A  
HETATM    6  C   UNL     1     -11.165  13.673  69.373  1.00  0.00    -0.196 C  
HETATM    7  N   UNL     1     -11.322  14.621  68.511  1.00  0.00    -0.270 NA 
HETATM    8  C   UNL     1     -10.420   9.982  69.393  1.00  0.00    -0.232 A  
HETATM    9  O   UNL     1      -8.618  15.560  66.880  1.00  0.00    -0.213 OA 
HETATM   10  H   UNL     1     -10.881  15.310  65.396  1.00  0.00     0.000 HD 
HETATM   11  H   UNL     1     -11.829  15.471  68.759  1.00  0.00     0.000 HD 
HETATM   12  C   UNL     1      -9.163   9.922  68.808  1.00  0.00    -0.147 A  
HETATM   13 CL   UNL     1     -11.157   8.546  69.987  1.00  0.00    -0.202 Cl 
HETATM   14  C   UNL     1     -10.761  14.450  67.180  1.00  0.00    -0.283 C  
HETATM   15  C   UNL     1      -8.563  11.092  68.331  1.00  0.00    -0.149 A  
HETATM   16  O   UNL     1     -11.247  15.422  66.265  1.00  0.00    -0.282 OA 
HETATM   17  C   UNL     1      -9.220  14.572  67.321  1.00  0.00    -0.207 C  
ENDROOT
BRANCH   6  18
HETATM   18  C   UNL     1     -11.756  13.890  70.739  1.00  0.00    -0.142 A  
HETATM   19  C   UNL     1     -12.653  12.982  71.315  1.00  0.00    -0.373 A  
HETATM   20  C   UNL     1     -12.868  14.411  73.257  1.00  0.00    -0.413 A  
HETATM   21  C   UNL     1     -13.216  13.251  72.566  1.00  0.00    -0.484 A  
HETATM   22  C   UNL     1     -11.946  15.300  72.707  1.00  0.00    -0.522 A  
HETATM   23  C   UNL     1     -11.388  15.039  71.455  1.00  0.00    -0.327 A  
ENDBRANCH   6  18
TORSDOF 1
ENDMDL
MODEL       92
REMARK 921   NORMALIZED FREE ENERGY PREDICTED BY IDOCK:   -4.60 KCAL/MOL
REMARK 922        TOTAL FREE ENERGY PREDICTED BY IDOCK:   -5.15 KCAL/MOL
REMARK 923 INTER-LIGAND FREE ENERGY PREDICTED BY IDOCK:   -4.79 KCAL/MOL
REMARK 924 INTRA-LIGAND FREE ENERGY PREDICTED BY IDOCK:   -0.36 KCAL/MOL
REMARK 927      BINDING AFFINITY PREDICTED BY RF-SCORE:    0.00 PKD
ROOT
HETATM    1  C   UNL     1      -5.390  17.850  70.508  1.00  0.00    -0.273 C  
HETATM    2  N   UNL     1      -6.344  17.613  69.436  1.00  0.00    -0.246 N  
HETATM    3  C   UNL     1      -6.461  16.311  68.858  1.00  0.00    -0.141 A  
HETATM    4  C   UNL     1      -7.664  15.811  68.316  1.00  0.00    -0.132 A  
HETATM    5  C   UNL     1      -7.697  14.544  67.703  1.00  0.00    -0.194 A  
HETATM    6  C   UNL     1      -8.959  16.553  68.417  1.00  0.00    -0.219 C  
HETATM    7  N   UNL     1      -9.096  17.805  68.131  1.00  0.00    -0.267 NA 
HETATM    8  C   UNL     1      -6.560  13.745  67.685  1.00  0.00    -0.168 A  
HETATM    9  O   UNL     1      -6.904  19.850  69.497  1.00  0.00    -0.336 OA 
HETATM   10  H   UNL     1      -7.495  20.307  66.884  1.00  0.00     0.000 HD 
HETATM   11  H   UNL     1     -10.007  18.258  68.200  1.00  0.00     0.000 HD 
HETATM   12  C   UNL     1      -5.376  14.202  68.247  1.00  0.00    -0.113 A  
HETATM   13 CL   UNL     1      -6.627  12.174  66.988  1.00  0.00    -0.125 Cl 
HETATM   14  C   UNL     1      -7.922  18.554  67.710  1.00  0.00    -0.250 C  
HETATM   15  C   UNL     1      -5.327  15.477  68.819  1.00  0.00    -0.100 A  
HETATM   16  O   UNL     1      -8.262  19.818  67.160  1.00  0.00    -0.277 OA 
HETATM   17  C   UNL     1      -7.030  18.739  68.966  1.00  0.00    -0.295 C  
ENDROOT
BRANCH   6  18
HETATM   18  C   UNL     1     -10.196  15.816  68.853  1.00  0.00    -0.219 A  
HETATM   19  C   UNL     1     -10.548  15.685  70.203  1.00  0.00    -0.348 A  
HETATM   20  C   UNL     1     -12.477  14.363  69.581  1.00  0.00    -0.207 A  
HETATM   21  C   UNL     1     -11.679  14.948  70.563  1.00  0.00    -0.344 A  
HETATM   22  C   UNL     1     -12.156  14.524  68.234  1.00  0.00    -0.234 A  
HETATM   23  C   UNL     1     -11.022  15.251  67.871  1.00  0.00    -0.306 A  
ENDBRANCH   6  18
TORSDOF 1
ENDMDL
MODEL       93
REMARK 921   NORMALIZED FREE ENERGY PREDICTED BY IDOCK:   -4.55 KCAL/MOL
REMARK 922        TOTAL FREE ENERGY PREDICTED BY IDOCK:   -5.10 KCAL/MOL
REMARK 923 INTER-LIGAND FREE ENERGY PREDICTED BY IDOCK:   -4.77 KCAL/MOL
REMARK 924 INTRA-LIGAND FREE ENERGY PREDICTED BY IDOCK:   -0.33 KCAL/MOL
REMARK 927      BINDING AFFINITY PREDICTED BY RF-SCORE:    0.00 PKD
ROOT
HETATM    1  C   UNL     1     -11.872  13.619  64.291  1.00  0.00    -0.425 C  
HETATM    2  N   UNL     1     -11.302  12.642  65.206  1.00  0.00    -0.305 N  
HETATM    3  C   UNL     1     -10.316  11.719  64.742  1.00  0.00    -0.288 A  
HETATM    4  C   UNL     1      -9.299  11.194  65.568  1.00  0.00    -0.247 A  
HETATM    5  C   UNL     1      -8.395  10.239  65.066  1.00  0.00    -0.169 A  
HETATM    6  C   UNL     1      -9.086  11.662  66.974  1.00  0.00    -0.179 C  
HETATM    7  N   UNL     1     -10.033  11.781  67.844  1.00  0.00    -0.177 NA 
HETATM    8  C   UNL     1      -8.454   9.852  63.732  1.00  0.00    -0.181 A  
HETATM    9  O   UNL     1     -12.706  13.434  66.857  1.00  0.00    -0.064 OA 
HETATM   10  H   UNL     1     -13.164  11.164  68.279  1.00  0.00     0.000 HD 
HETATM   11  H   UNL     1      -9.830  12.087  68.795  1.00  0.00     0.000 HD 
HETATM   12  C   UNL     1      -9.422  10.385  62.893  1.00  0.00    -0.354 A  
HETATM   13 CL   UNL     1      -7.308   8.729  63.114  1.00  0.00    -0.098 Cl 
HETATM   14  C   UNL     1     -11.394  11.471  67.436  1.00  0.00    -0.298 C  
HETATM   15  C   UNL     1     -10.349  11.302  63.397  1.00  0.00    -0.449 A  
HETATM   16  O   UNL     1     -12.275  11.367  68.545  1.00  0.00    -0.557 OA 
HETATM   17  C   UNL     1     -11.854  12.613  66.492  1.00  0.00    -0.396 C  
ENDROOT
BRANCH   6  18
HETATM   18  C   UNL     1      -7.694  11.996  67.434  1.00  0.00    -0.162 A  
HETATM   19  C   UNL     1      -6.825  11.024  67.947  1.00  0.00    -0.068 A  
HETATM   20  C   UNL     1      -5.143  12.720  68.338  1.00  0.00    -0.066 A  
HETATM   21  C   UNL     1      -5.558  11.391  68.409  1.00  0.00    -0.045 A  
HETATM   22  C   UNL     1      -5.987  13.686  67.791  1.00  0.00    -0.128 A  
HETATM   23  C   UNL     1      -7.256  13.325  67.337  1.00  0.00    -0.119 A  
ENDBRANCH   6  18
TORSDOF 1
ENDMDL
MODEL       94
REMARK 921   NORMALIZED FREE ENERGY PREDICTED BY IDOCK:   -4.51 KCAL/MOL
REMARK 922        TOTAL FREE ENERGY PREDICTED BY IDOCK:   -5.07 KCAL/MOL
REMARK 923 INTER-LIGAND FREE ENERGY PREDICTED BY IDOCK:   -4.75 KCAL/MOL
REMARK 924 INTRA-LIGAND FREE ENERGY PREDICTED BY IDOCK:   -0.32 KCAL/MOL
REMARK 927      BINDING AFFINITY PREDICTED BY RF-SCORE:    0.00 PKD
ROOT
HETATM    1  C   UNL     1      -7.503   8.432  67.759  1.00  0.00    -0.098 C  
HETATM    2  N   UNL     1      -8.289   7.569  68.629  1.00  0.00    -0.128 N  
HETATM    3  C   UNL     1      -8.250   7.756  70.045  1.00  0.00    -0.121 A  
HETATM    4  C   UNL     1      -9.338   7.460  70.894  1.00  0.00    -0.155 A  
HETATM    5  C   UNL     1      -9.214   7.607  72.289  1.00  0.00    -0.189 A  
HETATM    6  C   UNL     1     -10.676   7.046  70.368  1.00  0.00    -0.234 C  
HETATM    7  N   UNL     1     -10.846   6.133  69.471  1.00  0.00    -0.322 NA 
HETATM    8  C   UNL     1      -8.040   8.109  72.838  1.00  0.00    -0.167 A  
HETATM    9  O   UNL     1      -8.982   6.395  66.768  1.00  0.00    -0.122 OA 
HETATM   10  H   UNL     1      -9.241   3.895  67.800  1.00  0.00     0.000 HD 
HETATM   11  H   UNL     1     -11.783   5.875  69.161  1.00  0.00     0.000 HD 
HETATM   12  C   UNL     1      -6.972   8.443  72.018  1.00  0.00    -0.100 A  
HETATM   13 CL   UNL     1      -7.920   8.341  74.538  1.00  0.00    -0.307 Cl 
HETATM   14  C   UNL     1      -9.672   5.481  68.912  1.00  0.00    -0.144 C  
HETATM   15  C   UNL     1      -7.074   8.259  70.635  1.00  0.00    -0.042 A  
HETATM   16  O   UNL     1     -10.008   4.321  68.165  1.00  0.00    -0.085 OA 
HETATM   17  C   UNL     1      -8.969   6.521  67.999  1.00  0.00    -0.116 C  
ENDROOT
BRANCH   6  18
HETATM   18  C   UNL     1     -11.915   7.699  70.917  1.00  0.00    -0.252 A  
HETATM   19  C   UNL     1     -11.967   9.066  71.215  1.00  0.00    -0.374 A  
HETATM   20  C   UNL     1     -14.240   8.818  72.006  1.00  0.00    -0.493 A  
HETATM   21  C   UNL     1     -13.124   9.619  71.771  1.00  0.00    -0.514 A  
HETATM   22  C   UNL     1     -14.210   7.465  71.674  1.00  0.00    -0.583 A  
HETATM   23  C   UNL     1     -13.053   6.907  71.128  1.00  0.00    -0.202 A  
ENDBRANCH   6  18
TORSDOF 1
ENDMDL
MODEL       95
REMARK 921   NORMALIZED FREE ENERGY PREDICTED BY IDOCK:   -4.51 KCAL/MOL
REMARK 922        TOTAL FREE ENERGY PREDICTED BY IDOCK:   -5.06 KCAL/MOL
REMARK 923 INTER-LIGAND FREE ENERGY PREDICTED BY IDOCK:   -4.57 KCAL/MOL
REMARK 924 INTRA-LIGAND FREE ENERGY PREDICTED BY IDOCK:   -0.49 KCAL/MOL
REMARK 927      BINDING AFFINITY PREDICTED BY RF-SCORE:    0.00 PKD
ROOT
HETATM    1  C   UNL     1     -11.313   8.673  72.045  1.00  0.00    -0.362 C  
HETATM    2  N   UNL     1     -11.038   8.944  70.642  1.00  0.00    -0.255 N  
HETATM    3  C   UNL     1     -11.160  10.274  70.135  1.00  0.00    -0.319 A  
HETATM    4  C   UNL     1     -10.382  10.768  69.065  1.00  0.00    -0.235 A  
HETATM    5  C   UNL     1     -10.594  12.068  68.569  1.00  0.00    -0.252 A  
HETATM    6  C   UNL     1      -9.268   9.978  68.452  1.00  0.00    -0.131 C  
HETATM    7  N   UNL     1      -9.375   8.743  68.092  1.00  0.00    -0.140 NA 
HETATM    8  C   UNL     1     -11.527  12.904  69.174  1.00  0.00    -0.306 A  
HETATM    9  O   UNL     1     -10.663   6.690  70.324  1.00  0.00    -0.220 OA 
HETATM   10  H   UNL     1     -11.536   6.376  67.770  1.00  0.00     0.000 HD 
HETATM   11  H   UNL     1      -8.589   8.256  67.662  1.00  0.00     0.000 HD 
HETATM   12  C   UNL     1     -12.274  12.452  70.252  1.00  0.00    -0.345 A  
HETATM   13 CL   UNL     1     -11.736  14.511  68.600  1.00  0.00    -0.348 Cl 
HETATM   14  C   UNL     1     -10.640   8.060  68.315  1.00  0.00    -0.101 C  
HETATM   15  C   UNL     1     -12.098  11.146  70.721  1.00  0.00    -0.458 A  
HETATM   16  O   UNL     1     -10.710   6.822  67.624  1.00  0.00    -0.228 OA 
HETATM   17  C   UNL     1     -10.764   7.827  69.845  1.00  0.00    -0.245 C  
ENDROOT
BRANCH   6  18
HETATM   18  C   UNL     1      -7.942  10.646  68.208  1.00  0.00    -0.116 A  
HETATM   19  C   UNL     1      -7.447  10.867  66.917  1.00  0.00    -0.128 A  
HETATM   20  C   UNL     1      -5.429  11.828  67.846  1.00  0.00    -0.051 A  
HETATM   21  C   UNL     1      -6.187  11.445  66.740  1.00  0.00    -0.141 A  
HETATM   22  C   UNL     1      -5.934  11.648  69.133  1.00  0.00    -0.064 A  
HETATM   23  C   UNL     1      -7.188  11.062  69.314  1.00  0.00    -0.124 A  
ENDBRANCH   6  18
TORSDOF 1
ENDMDL
MODEL       96
REMARK 921   NORMALIZED FREE ENERGY PREDICTED BY IDOCK:   -4.46 KCAL/MOL
REMARK 922        TOTAL FREE ENERGY PREDICTED BY IDOCK:   -5.01 KCAL/MOL
REMARK 923 INTER-LIGAND FREE ENERGY PREDICTED BY IDOCK:   -4.69 KCAL/MOL
REMARK 924 INTRA-LIGAND FREE ENERGY PREDICTED BY IDOCK:   -0.33 KCAL/MOL
REMARK 927      BINDING AFFINITY PREDICTED BY RF-SCORE:    0.00 PKD
ROOT
HETATM    1  C   UNL     1      -9.435   7.508  69.612  1.00  0.00    -0.156 C  
HETATM    2  N   UNL     1      -8.821   8.697  69.040  1.00  0.00    -0.137 N  
HETATM    3  C   UNL     1      -8.775   8.865  67.623  1.00  0.00    -0.124 A  
HETATM    4  C   UNL     1      -8.796  10.128  66.993  1.00  0.00    -0.144 A  
HETATM    5  C   UNL     1      -8.684  10.229  65.593  1.00  0.00    -0.176 A  
HETATM    6  C   UNL     1      -9.000  11.400  67.754  1.00  0.00    -0.147 C  
HETATM    7  N   UNL     1      -8.359  11.706  68.832  1.00  0.00    -0.360 NA 
HETATM    8  C   UNL     1      -8.618   9.081  64.812  1.00  0.00    -0.175 A  
HETATM    9  O   UNL     1      -8.276   9.390  71.173  1.00  0.00    -0.314 OA 
HETATM   10  H   UNL     1      -5.942  10.702  70.710  1.00  0.00     0.000 HD 
HETATM   11  H   UNL     1      -8.524  12.596  69.301  1.00  0.00     0.000 HD 
HETATM   12  C   UNL     1      -8.635   7.828  65.408  1.00  0.00    -0.092 A  
HETATM   13 CL   UNL     1      -8.542   9.213  63.099  1.00  0.00    -0.203 Cl 
HETATM   14  C   UNL     1      -7.397  10.752  69.361  1.00  0.00    -0.128 C  
HETATM   15  C   UNL     1      -8.703   7.723  66.801  1.00  0.00    -0.143 A  
HETATM   16  O   UNL     1      -6.571  11.325  70.365  1.00  0.00    -0.248 OA 
HETATM   17  C   UNL     1      -8.211   9.569  69.950  1.00  0.00    -0.161 C  
ENDROOT
BRANCH   6  18
HETATM   18  C   UNL     1      -9.989  12.412  67.241  1.00  0.00    -0.209 A  
HETATM   19  C   UNL     1     -11.222  12.036  66.693  1.00  0.00    -0.380 A  
HETATM   20  C   UNL     1     -11.740  14.357  66.243  1.00  0.00    -0.394 A  
HETATM   21  C   UNL     1     -12.088  13.008  66.183  1.00  0.00    -0.473 A  
HETATM   22  C   UNL     1     -10.533  14.741  66.824  1.00  0.00    -0.282 A  
HETATM   23  C   UNL     1      -9.662  13.772  67.325  1.00  0.00    -0.242 A  
ENDBRANCH   6  18
TORSDOF 1
ENDMDL
MODEL       97
REMARK 921   NORMALIZED FREE ENERGY PREDICTED BY IDOCK:   -4.46 KCAL/MOL
REMARK 922        TOTAL FREE ENERGY PREDICTED BY IDOCK:   -5.01 KCAL/MOL
REMARK 923 INTER-LIGAND FREE ENERGY PREDICTED BY IDOCK:   -4.58 KCAL/MOL
REMARK 924 INTRA-LIGAND FREE ENERGY PREDICTED BY IDOCK:   -0.44 KCAL/MOL
REMARK 927      BINDING AFFINITY PREDICTED BY RF-SCORE:    0.00 PKD
ROOT
HETATM    1  C   UNL     1      -9.640  10.467  62.593  1.00  0.00    -0.238 C  
HETATM    2  N   UNL     1      -9.015  10.278  63.893  1.00  0.00    -0.215 N  
HETATM    3  C   UNL     1      -9.705  10.669  65.081  1.00  0.00    -0.271 A  
HETATM    4  C   UNL     1      -9.531  10.025  66.325  1.00  0.00    -0.241 A  
HETATM    5  C   UNL     1     -10.193  10.500  67.473  1.00  0.00    -0.245 A  
HETATM    6  C   UNL     1      -8.702   8.789  66.478  1.00  0.00    -0.120 C  
HETATM    7  N   UNL     1      -7.512   8.655  65.995  1.00  0.00    -0.084 NA 
HETATM    8  C   UNL     1     -11.078  11.567  67.379  1.00  0.00    -0.282 A  
HETATM    9  O   UNL     1      -7.136   9.469  62.825  1.00  0.00    -0.102 OA 
HETATM   10  H   UNL     1      -5.180  10.311  64.514  1.00  0.00     0.000 HD 
HETATM   11  H   UNL     1      -6.982   7.797  66.145  1.00  0.00     0.000 HD 
HETATM   12  C   UNL     1     -11.294  12.191  66.158  1.00  0.00    -0.414 A  
HETATM   13 CL   UNL     1     -11.928  12.102  68.775  1.00  0.00    -0.334 Cl 
HETATM   14  C   UNL     1      -6.944   9.756  65.232  1.00  0.00    -0.111 C  
HETATM   15  C   UNL     1     -10.606  11.750  65.023  1.00  0.00    -0.338 A  
HETATM   16  O   UNL     1      -5.551   9.592  65.012  1.00  0.00    -0.055 OA 
HETATM   17  C   UNL     1      -7.699   9.802  63.877  1.00  0.00    -0.136 C  
ENDROOT
BRANCH   6  18
HETATM   18  C   UNL     1      -9.254   7.626  67.257  1.00  0.00    -0.154 A  
HETATM   19  C   UNL     1     -10.515   7.080  66.986  1.00  0.00    -0.386 A  
HETATM   20  C   UNL     1     -10.236   5.509  68.806  1.00  0.00    -0.270 A  
HETATM   21  C   UNL     1     -11.008   6.032  67.769  1.00  0.00    -0.333 A  
HETATM   22  C   UNL     1      -8.964   6.021  69.056  1.00  0.00    -0.124 A  
HETATM   23  C   UNL     1      -8.473   7.073  68.281  1.00  0.00    -0.123 A  
ENDBRANCH   6  18
TORSDOF 1
ENDMDL
MODEL       98
REMARK 921   NORMALIZED FREE ENERGY PREDICTED BY IDOCK:   -4.45 KCAL/MOL
REMARK 922        TOTAL FREE ENERGY PREDICTED BY IDOCK:   -5.00 KCAL/MOL
REMARK 923 INTER-LIGAND FREE ENERGY PREDICTED BY IDOCK:   -4.77 KCAL/MOL
REMARK 924 INTRA-LIGAND FREE ENERGY PREDICTED BY IDOCK:   -0.23 KCAL/MOL
REMARK 927      BINDING AFFINITY PREDICTED BY RF-SCORE:    0.00 PKD
ROOT
HETATM    1  C   UNL     1      -9.306   7.432  65.883  1.00  0.00     0.101 C  
HETATM    2  N   UNL     1      -9.422   7.512  67.332  1.00  0.00    -0.138 N  
HETATM    3  C   UNL     1      -8.669   8.487  68.056  1.00  0.00    -0.142 A  
HETATM    4  C   UNL     1      -9.113   9.065  69.264  1.00  0.00    -0.145 A  
HETATM    5  C   UNL     1      -8.296   9.974  69.963  1.00  0.00    -0.137 A  
HETATM    6  C   UNL     1     -10.475   8.803  69.826  1.00  0.00    -0.219 C  
HETATM    7  N   UNL     1     -10.990   7.625  69.947  1.00  0.00    -0.347 NA 
HETATM    8  C   UNL     1      -7.069  10.361  69.434  1.00  0.00    -0.102 A  
HETATM    9  O   UNL     1     -10.855   5.704  67.274  1.00  0.00    -0.250 OA 
HETATM   10  H   UNL     1     -10.264   4.501  69.638  1.00  0.00     0.000 HD 
HETATM   11  H   UNL     1     -11.916   7.500  70.355  1.00  0.00     0.000 HD 
HETATM   12  C   UNL     1      -6.631   9.834  68.228  1.00  0.00    -0.056 A  
HETATM   13 CL   UNL     1      -6.105  11.516  70.266  1.00  0.00    -0.162 Cl 
HETATM   14  C   UNL     1     -10.218   6.480  69.489  1.00  0.00    -0.186 C  
HETATM   15  C   UNL     1      -7.421   8.898  67.551  1.00  0.00    -0.085 A  
HETATM   16  O   UNL     1     -10.768   5.250  69.937  1.00  0.00    -0.291 OA 
HETATM   17  C   UNL     1     -10.214   6.530  67.938  1.00  0.00    -0.168 C  
ENDROOT
BRANCH   6  18
HETATM   18  C   UNL     1     -11.307   9.961  70.308  1.00  0.00    -0.357 A  
HETATM   19  C   UNL     1     -12.150   9.859  71.421  1.00  0.00    -0.501 A  
HETATM   20  C   UNL     1     -12.877  12.144  71.091  1.00  0.00    -0.313 A  
HETATM   21  C   UNL     1     -12.943  10.946  71.802  1.00  0.00    -0.557 A  
HETATM   22  C   UNL     1     -12.009  12.265  70.007  1.00  0.00    -0.379 A  
HETATM   23  C   UNL     1     -11.224  11.179  69.619  1.00  0.00    -0.333 A  
ENDBRANCH   6  18
TORSDOF 1
ENDMDL
MODEL       99
REMARK 921   NORMALIZED FREE ENERGY PREDICTED BY IDOCK:   -4.35 KCAL/MOL
REMARK 922        TOTAL FREE ENERGY PREDICTED BY IDOCK:   -4.89 KCAL/MOL
REMARK 923 INTER-LIGAND FREE ENERGY PREDICTED BY IDOCK:   -5.20 KCAL/MOL
REMARK 924 INTRA-LIGAND FREE ENERGY PREDICTED BY IDOCK:    0.32 KCAL/MOL
REMARK 927      BINDING AFFINITY PREDICTED BY RF-SCORE:    0.00 PKD
ROOT
HETATM    1  C   UNL     1      -6.625   8.772  69.251  1.00  0.00    -0.049 C  
HETATM    2  N   UNL     1      -8.054   8.615  69.028  1.00  0.00    -0.118 N  
HETATM    3  C   UNL     1      -8.858   7.939  69.995  1.00  0.00    -0.141 A  
HETATM    4  C   UNL     1     -10.219   8.241  70.217  1.00  0.00    -0.199 A  
HETATM    5  C   UNL     1     -10.974   7.495  71.142  1.00  0.00    -0.264 A  
HETATM    6  C   UNL     1     -10.906   9.389  69.545  1.00  0.00    -0.213 C  
HETATM    7  N   UNL     1     -10.833   9.631  68.279  1.00  0.00    -0.406 NA 
HETATM    8  C   UNL     1     -10.369   6.496  71.895  1.00  0.00    -0.200 A  
HETATM    9  O   UNL     1      -7.805   9.652  66.981  1.00  0.00    -0.098 OA 
HETATM   10  H   UNL     1      -9.718   8.387  65.524  1.00  0.00     0.000 HD 
HETATM   11  H   UNL     1     -11.336  10.417  67.869  1.00  0.00     0.000 HD 
HETATM   12  C   UNL     1      -9.023   6.208  71.720  1.00  0.00    -0.141 A  
HETATM   13 CL   UNL     1     -11.285   5.630  73.064  1.00  0.00    -0.326 Cl 
HETATM   14  C   UNL     1     -10.016   8.757  67.451  1.00  0.00    -0.208 C  
HETATM   15  C   UNL     1      -8.278   6.918  70.773  1.00  0.00    -0.122 A  
HETATM   16  O   UNL     1     -10.252   8.958  66.065  1.00  0.00    -0.199 OA 
HETATM   17  C   UNL     1      -8.534   9.066  67.793  1.00  0.00    -0.117 C  
ENDROOT
BRANCH   6  18
HETATM   18  C   UNL     1     -11.757  10.319  70.367  1.00  0.00    -0.404 A  
HETATM   19  C   UNL     1     -11.762  11.704  70.158  1.00  0.00    -0.381 A  
HETATM   20  C   UNL     1     -13.315  11.984  71.992  1.00  0.00    -0.447 A  
HETATM   21  C   UNL     1     -12.530  12.534  70.979  1.00  0.00    -0.353 A  
HETATM   22  C   UNL     1     -13.346  10.604  72.179  1.00  0.00    -0.335 A  
HETATM   23  C   UNL     1     -12.573   9.773  71.367  1.00  0.00    -0.482 A  
ENDBRANCH   6  18
TORSDOF 1
ENDMDL
MODEL      100
REMARK 921   NORMALIZED FREE ENERGY PREDICTED BY IDOCK:   -4.32 KCAL/MOL
REMARK 922        TOTAL FREE ENERGY PREDICTED BY IDOCK:   -4.86 KCAL/MOL
REMARK 923 INTER-LIGAND FREE ENERGY PREDICTED BY IDOCK:   -4.39 KCAL/MOL
REMARK 924 INTRA-LIGAND FREE ENERGY PREDICTED BY IDOCK:   -0.47 KCAL/MOL
REMARK 927      BINDING AFFINITY PREDICTED BY RF-SCORE:    0.00 PKD
ROOT
HETATM    1  C   UNL     1      -6.340  16.621  68.623  1.00  0.00    -0.148 C  
HETATM    2  N   UNL     1      -7.792  16.527  68.641  1.00  0.00    -0.213 N  
HETATM    3  C   UNL     1      -8.571  17.327  67.750  1.00  0.00    -0.225 A  
HETATM    4  C   UNL     1      -9.824  16.921  67.242  1.00  0.00    -0.265 A  
HETATM    5  C   UNL     1     -10.572  17.783  66.417  1.00  0.00    -0.218 A  
HETATM    6  C   UNL     1     -10.387  15.557  67.492  1.00  0.00    -0.271 C  
HETATM    7  N   UNL     1     -10.433  14.999  68.655  1.00  0.00    -0.232 NA 
HETATM    8  C   UNL     1     -10.053  19.016  66.041  1.00  0.00    -0.347 A  
HETATM    9  O   UNL     1      -7.629  15.024  70.384  1.00  0.00     0.256 OA 
HETATM   10  H   UNL     1      -9.893  15.598  71.774  1.00  0.00     0.000 HD 
HETATM   11  H   UNL     1     -10.845  14.074  68.773  1.00  0.00     0.000 HD 
HETATM   12  C   UNL     1      -8.806  19.418  66.497  1.00  0.00    -0.382 A  
HETATM   13 CL   UNL     1     -10.948  20.036  64.985  1.00  0.00     0.165 Cl 
HETATM   14  C   UNL     1      -9.883  15.719  69.793  1.00  0.00    -0.218 C  
HETATM   15  C   UNL     1      -8.077  18.584  67.351  1.00  0.00    -0.248 A  
HETATM   16  O   UNL     1     -10.252  15.127  71.030  1.00  0.00     0.224 OA 
HETATM   17  C   UNL     1      -8.339  15.705  69.633  1.00  0.00    -0.070 C  
ENDROOT
BRANCH   6  18
HETATM   18  C   UNL     1     -10.962  14.778  66.340  1.00  0.00    -0.331 A  
HETATM   19  C   UNL     1     -10.217  14.491  65.190  1.00  0.00    -0.420 A  
HETATM   20  C   UNL     1     -12.136  13.386  64.212  1.00  0.00    -0.479 A  
HETATM   21  C   UNL     1     -10.809  13.807  64.124  1.00  0.00    -0.105 A  
HETATM   22  C   UNL     1     -12.871  13.633  65.370  1.00  0.00    -0.440 A  
HETATM   23  C   UNL     1     -12.285  14.323  66.432  1.00  0.00    -0.426 A  
ENDBRANCH   6  18
TORSDOF 1
ENDMDL
MODEL      101
REMARK 921   NORMALIZED FREE ENERGY PREDICTED BY IDOCK:   -4.31 KCAL/MOL
REMARK 922        TOTAL FREE ENERGY PREDICTED BY IDOCK:   -4.86 KCAL/MOL
REMARK 923 INTER-LIGAND FREE ENERGY PREDICTED BY IDOCK:   -4.37 KCAL/MOL
REMARK 924 INTRA-LIGAND FREE ENERGY PREDICTED BY IDOCK:   -0.49 KCAL/MOL
REMARK 927      BINDING AFFINITY PREDICTED BY RF-SCORE:    0.00 PKD
ROOT
HETATM    1  C   UNL     1      -7.144   6.812  72.178  1.00  0.00    -0.075 C  
HETATM    2  N   UNL     1      -8.165   6.826  71.142  1.00  0.00    -0.118 N  
HETATM    3  C   UNL     1      -9.445   7.402  71.407  1.00  0.00    -0.152 A  
HETATM    4  C   UNL     1     -10.238   8.014  70.413  1.00  0.00    -0.201 A  
HETATM    5  C   UNL     1     -11.519   8.507  70.727  1.00  0.00    -0.281 A  
HETATM    6  C   UNL     1      -9.748   8.230  69.016  1.00  0.00    -0.167 C  
HETATM    7  N   UNL     1      -9.176   7.317  68.305  1.00  0.00    -0.134 NA 
HETATM    8  C   UNL     1     -11.988   8.455  72.034  1.00  0.00    -0.357 A  
HETATM    9  O   UNL     1      -6.717   5.677  69.760  1.00  0.00    -0.048 OA 
HETATM   10  H   UNL     1      -8.461   4.176  68.316  1.00  0.00     0.000 HD 
HETATM   11  H   UNL     1      -8.877   7.511  67.349  1.00  0.00     0.000 HD 
HETATM   12  C   UNL     1     -11.208   7.892  73.034  1.00  0.00    -0.346 A  
HETATM   13 CL   UNL     1     -13.529   9.114  72.419  1.00  0.00    -0.520 Cl 
HETATM   14  C   UNL     1      -8.966   6.005  68.897  1.00  0.00    -0.123 C  
HETATM   15  C   UNL     1      -9.953   7.362  72.720  1.00  0.00    -0.263 A  
HETATM   16  O   UNL     1      -8.598   5.033  67.929  1.00  0.00    -0.104 OA 
HETATM   17  C   UNL     1      -7.840   6.161  69.953  1.00  0.00    -0.109 C  
ENDROOT
BRANCH   6  18
HETATM   18  C   UNL     1      -9.943   9.574  68.368  1.00  0.00    -0.184 A  
HETATM   19  C   UNL     1     -10.762   9.748  67.246  1.00  0.00    -0.296 A  
HETATM   20  C   UNL     1     -10.189  12.098  67.180  1.00  0.00    -0.226 A  
HETATM   21  C   UNL     1     -10.873  11.006  66.647  1.00  0.00    -0.284 A  
HETATM   22  C   UNL     1      -9.403  11.941  68.321  1.00  0.00    -0.193 A  
HETATM   23  C   UNL     1      -9.284  10.684  68.915  1.00  0.00    -0.189 A  
ENDBRANCH   6  18
TORSDOF 1
ENDMDL
MODEL      102
REMARK 921   NORMALIZED FREE ENERGY PREDICTED BY IDOCK:   -4.28 KCAL/MOL
REMARK 922        TOTAL FREE ENERGY PREDICTED BY IDOCK:   -4.82 KCAL/MOL
REMARK 923 INTER-LIGAND FREE ENERGY PREDICTED BY IDOCK:   -4.39 KCAL/MOL
REMARK 924 INTRA-LIGAND FREE ENERGY PREDICTED BY IDOCK:   -0.43 KCAL/MOL
REMARK 927      BINDING AFFINITY PREDICTED BY RF-SCORE:    0.00 PKD
ROOT
HETATM    1  C   UNL     1      -6.637  10.776  69.352  1.00  0.00    -0.085 C  
HETATM    2  N   UNL     1      -7.957  11.288  69.016  1.00  0.00    -0.105 N  
HETATM    3  C   UNL     1      -8.087  12.524  68.312  1.00  0.00    -0.165 A  
HETATM    4  C   UNL     1      -9.154  12.805  67.433  1.00  0.00    -0.192 A  
HETATM    5  C   UNL     1      -9.258  14.067  66.818  1.00  0.00    -0.280 A  
HETATM    6  C   UNL     1     -10.177  11.779  67.060  1.00  0.00    -0.214 C  
HETATM    7  N   UNL     1     -10.791  11.031  67.914  1.00  0.00    -0.217 NA 
HETATM    8  C   UNL     1      -8.273  15.027  67.019  1.00  0.00    -0.213 A  
HETATM    9  O   UNL     1      -8.889   9.485  70.116  1.00  0.00    -0.201 OA 
HETATM   10  H   UNL     1     -11.174  10.594  71.083  1.00  0.00     0.000 HD 
HETATM   11  H   UNL     1     -11.495  10.359  67.608  1.00  0.00     0.000 HD 
HETATM   12  C   UNL     1      -7.194  14.758  67.850  1.00  0.00    -0.169 A  
HETATM   13 CL   UNL     1      -8.377  16.544  66.216  1.00  0.00    -0.355 Cl 
HETATM   14  C   UNL     1     -10.456  11.167  69.324  1.00  0.00    -0.151 C  
HETATM   15  C   UNL     1      -7.109  13.521  68.497  1.00  0.00    -0.108 A  
HETATM   16  O   UNL     1     -11.392  10.505  70.163  1.00  0.00    -0.279 OA 
HETATM   17  C   UNL     1      -9.042  10.556  69.513  1.00  0.00    -0.040 C  
ENDROOT
BRANCH   6  18
HETATM   18  C   UNL     1     -10.549  11.604  65.612  1.00  0.00    -0.324 A  
HETATM   19  C   UNL     1      -9.767  10.850  64.729  1.00  0.00    -0.323 A  
HETATM   20  C   UNL     1     -11.276  11.393  62.916  1.00  0.00     0.361 A  
HETATM   21  C   UNL     1     -10.125  10.757  63.380  1.00  0.00    -0.345 A  
HETATM   22  C   UNL     1     -12.081  12.111  63.798  1.00  0.00    -0.620 A  
HETATM   23  C   UNL     1     -11.721  12.213  65.143  1.00  0.00    -0.366 A  
ENDBRANCH   6  18
TORSDOF 1
ENDMDL
MODEL      103
REMARK 921   NORMALIZED FREE ENERGY PREDICTED BY IDOCK:   -4.28 KCAL/MOL
REMARK 922        TOTAL FREE ENERGY PREDICTED BY IDOCK:   -4.82 KCAL/MOL
REMARK 923 INTER-LIGAND FREE ENERGY PREDICTED BY IDOCK:   -4.34 KCAL/MOL
REMARK 924 INTRA-LIGAND FREE ENERGY PREDICTED BY IDOCK:   -0.48 KCAL/MOL
REMARK 927      BINDING AFFINITY PREDICTED BY RF-SCORE:    0.00 PKD
ROOT
HETATM    1  C   UNL     1     -12.023  15.353  71.406  1.00  0.00    -0.378 C  
HETATM    2  N   UNL     1     -11.562  14.737  70.171  1.00  0.00    -0.276 N  
HETATM    3  C   UNL     1     -10.840  15.511  69.211  1.00  0.00    -0.252 A  
HETATM    4  C   UNL     1      -9.863  14.964  68.352  1.00  0.00    -0.216 A  
HETATM    5  C   UNL     1      -9.233  15.768  67.385  1.00  0.00    -0.208 A  
HETATM    6  C   UNL     1      -9.404  13.543  68.462  1.00  0.00    -0.108 C  
HETATM    7  N   UNL     1     -10.203  12.534  68.555  1.00  0.00    -0.289 NA 
HETATM    8  C   UNL     1      -9.518  17.127  67.310  1.00  0.00    -0.245 A  
HETATM    9  O   UNL     1     -12.582  12.772  70.821  1.00  0.00    -0.310 OA 
HETATM   10  H   UNL     1     -13.326  11.754  68.414  1.00  0.00     0.000 HD 
HETATM   11  H   UNL     1      -9.838  11.583  68.609  1.00  0.00     0.000 HD 
HETATM   12  C   UNL     1     -10.447  17.693  68.171  1.00  0.00    -0.386 A  
HETATM   13 CL   UNL     1      -8.699  18.113  66.164  1.00  0.00    -0.181 Cl 
HETATM   14  C   UNL     1     -11.636  12.782  68.582  1.00  0.00    -0.314 C  
HETATM   15  C   UNL     1     -11.108  16.890  69.106  1.00  0.00    -0.041 A  
HETATM   16  O   UNL     1     -12.389  11.592  68.397  1.00  0.00    -0.461 OA 
HETATM   17  C   UNL     1     -11.960  13.411  69.962  1.00  0.00    -0.337 C  
ENDROOT
BRANCH   6  18
HETATM   18  C   UNL     1      -7.930  13.244  68.443  1.00  0.00    -0.132 A  
HETATM   19  C   UNL     1      -7.105  13.495  69.546  1.00  0.00     0.193 A  
HETATM   20  C   UNL     1      -5.181  12.727  68.294  1.00  0.00    -0.069 A  
HETATM   21  C   UNL     1      -5.731  13.248  69.465  1.00  0.00    -0.094 A  
HETATM   22  C   UNL     1      -6.003  12.437  67.206  1.00  0.00    -0.134 A  
HETATM   23  C   UNL     1      -7.373  12.691  67.281  1.00  0.00    -0.106 A  
ENDBRANCH   6  18
TORSDOF 1
ENDMDL
MODEL      104
REMARK 921   NORMALIZED FREE ENERGY PREDICTED BY IDOCK:   -4.25 KCAL/MOL
REMARK 922        TOTAL FREE ENERGY PREDICTED BY IDOCK:   -4.79 KCAL/MOL
REMARK 923 INTER-LIGAND FREE ENERGY PREDICTED BY IDOCK:   -4.30 KCAL/MOL
REMARK 924 INTRA-LIGAND FREE ENERGY PREDICTED BY IDOCK:   -0.49 KCAL/MOL
REMARK 927      BINDING AFFINITY PREDICTED BY RF-SCORE:    0.00 PKD
ROOT
HETATM    1  C   UNL     1     -12.295   5.418  72.708  1.00  0.00     0.306 C  
HETATM    2  N   UNL     1     -11.869   6.758  72.334  1.00  0.00    -0.227 N  
HETATM    3  C   UNL     1     -10.572   7.225  72.708  1.00  0.00    -0.281 A  
HETATM    4  C   UNL     1      -9.836   8.158  71.946  1.00  0.00    -0.276 A  
HETATM    5  C   UNL     1      -8.589   8.627  72.402  1.00  0.00    -0.145 A  
HETATM    6  C   UNL     1     -10.298   8.641  70.607  1.00  0.00    -0.202 C  
HETATM    7  N   UNL     1     -11.495   9.060  70.366  1.00  0.00    -0.396 NA 
HETATM    8  C   UNL     1      -8.040   8.125  73.576  1.00  0.00    -0.202 A  
HETATM    9  O   UNL     1     -13.944   7.108  71.389  1.00  0.00    -0.370 OA 
HETATM   10  H   UNL     1     -14.273   9.769  71.836  1.00  0.00     0.000 HD 
HETATM   11  H   UNL     1     -11.753   9.397  69.439  1.00  0.00     0.000 HD 
HETATM   12  C   UNL     1      -8.729   7.178  74.321  1.00  0.00    -0.242 A  
HETATM   13 CL   UNL     1      -6.490   8.660  74.094  1.00  0.00    -0.144 Cl 
HETATM   14  C   UNL     1     -12.469   9.040  71.447  1.00  0.00    -0.317 C  
HETATM   15  C   UNL     1      -9.987   6.741  73.895  1.00  0.00    -0.340 A  
HETATM   16  O   UNL     1     -13.637   9.781  71.129  1.00  0.00    -0.340 OA 
HETATM   17  C   UNL     1     -12.831   7.552  71.701  1.00  0.00    -0.358 C  
ENDROOT
BRANCH   6  18
HETATM   18  C   UNL     1      -9.323   8.674  69.462  1.00  0.00    -0.153 A  
HETATM   19  C   UNL     1      -8.701   7.515  68.980  1.00  0.00    -0.136 A  
HETATM   20  C   UNL     1      -7.463   8.836  67.374  1.00  0.00    -0.089 A  
HETATM   21  C   UNL     1      -7.764   7.601  67.946  1.00  0.00    -0.115 A  
HETATM   22  C   UNL     1      -8.108   9.988  67.821  1.00  0.00    -0.109 A  
HETATM   23  C   UNL     1      -9.037   9.907  68.859  1.00  0.00    -0.156 A  
ENDBRANCH   6  18
TORSDOF 1
ENDMDL
MODEL      105
REMARK 921   NORMALIZED FREE ENERGY PREDICTED BY IDOCK:   -4.24 KCAL/MOL
REMARK 922        TOTAL FREE ENERGY PREDICTED BY IDOCK:   -4.77 KCAL/MOL
REMARK 923 INTER-LIGAND FREE ENERGY PREDICTED BY IDOCK:   -4.85 KCAL/MOL
REMARK 924 INTRA-LIGAND FREE ENERGY PREDICTED BY IDOCK:    0.07 KCAL/MOL
REMARK 927      BINDING AFFINITY PREDICTED BY RF-SCORE:    0.00 PKD
ROOT
HETATM    1  C   UNL     1      -9.386   8.648  66.473  1.00  0.00    -0.200 C  
HETATM    2  N   UNL     1      -9.382   8.927  67.901  1.00  0.00    -0.141 N  
HETATM    3  C   UNL     1     -10.091  10.059  68.410  1.00  0.00    -0.165 A  
HETATM    4  C   UNL     1     -10.665  10.095  69.698  1.00  0.00    -0.295 A  
HETATM    5  C   UNL     1     -11.297  11.264  70.165  1.00  0.00    -0.251 A  
HETATM    6  C   UNL     1     -10.695   8.900  70.598  1.00  0.00    -0.234 C  
HETATM    7  N   UNL     1      -9.668   8.155  70.839  1.00  0.00    -0.164 NA 
HETATM    8  C   UNL     1     -11.418  12.373  69.334  1.00  0.00    -0.271 A  
HETATM    9  O   UNL     1      -7.978   7.121  68.207  1.00  0.00    -0.119 OA 
HETATM   10  H   UNL     1      -6.494   7.972  70.318  1.00  0.00     0.000 HD 
HETATM   11  H   UNL     1      -9.738   7.362  71.476  1.00  0.00     0.000 HD 
HETATM   12  C   UNL     1     -10.894  12.344  68.050  1.00  0.00    -0.251 A  
HETATM   13 CL   UNL     1     -12.243  13.774  69.892  1.00  0.00    -0.390 Cl 
HETATM   14  C   UNL     1      -8.410   8.472  70.182  1.00  0.00    -0.123 C  
HETATM   15  C   UNL     1     -10.229  11.200  67.597  1.00  0.00    -0.208 A  
HETATM   16  O   UNL     1      -7.316   7.764  70.747  1.00  0.00    -0.063 OA 
HETATM   17  C   UNL     1      -8.575   8.095  68.685  1.00  0.00    -0.127 C  
ENDROOT
BRANCH   6  18
HETATM   18  C   UNL     1     -11.978   8.535  71.294  1.00  0.00    -0.334 A  
HETATM   19  C   UNL     1     -12.608   7.300  71.095  1.00  0.00    -0.362 A  
HETATM   20  C   UNL     1     -14.404   7.969  72.573  1.00  0.00    -0.121 A  
HETATM   21  C   UNL     1     -13.825   7.025  71.724  1.00  0.00    -0.320 A  
HETATM   22  C   UNL     1     -13.762   9.183  72.807  1.00  0.00    -0.285 A  
HETATM   23  C   UNL     1     -12.551   9.465  72.173  1.00  0.00    -0.423 A  
ENDBRANCH   6  18
TORSDOF 1
ENDMDL
MODEL      106
REMARK 921   NORMALIZED FREE ENERGY PREDICTED BY IDOCK:   -4.18 KCAL/MOL
REMARK 922        TOTAL FREE ENERGY PREDICTED BY IDOCK:   -4.71 KCAL/MOL
REMARK 923 INTER-LIGAND FREE ENERGY PREDICTED BY IDOCK:   -4.89 KCAL/MOL
REMARK 924 INTRA-LIGAND FREE ENERGY PREDICTED BY IDOCK:    0.18 KCAL/MOL
REMARK 927      BINDING AFFINITY PREDICTED BY RF-SCORE:    0.00 PKD
ROOT
HETATM    1  C   UNL     1      -6.928  12.821  68.640  1.00  0.00    -0.101 C  
HETATM    2  N   UNL     1      -8.024  11.923  68.307  1.00  0.00    -0.142 N  
HETATM    3  C   UNL     1      -7.987  10.561  68.735  1.00  0.00    -0.127 A  
HETATM    4  C   UNL     1      -9.145   9.808  69.024  1.00  0.00    -0.157 A  
HETATM    5  C   UNL     1      -9.044   8.450  69.380  1.00  0.00    -0.154 A  
HETATM    6  C   UNL     1     -10.513  10.415  69.034  1.00  0.00    -0.219 C  
HETATM    7  N   UNL     1     -10.973  11.170  68.093  1.00  0.00    -0.218 NA 
HETATM    8  C   UNL     1      -7.795   7.854  69.514  1.00  0.00    -0.110 A  
HETATM    9  O   UNL     1      -9.020  13.642  67.133  1.00  0.00    -0.213 OA 
HETATM   10  H   UNL     1     -10.260  12.263  65.148  1.00  0.00     0.000 HD 
HETATM   11  H   UNL     1     -11.921  11.543  68.140  1.00  0.00     0.000 HD 
HETATM   12  C   UNL     1      -6.642   8.585  69.272  1.00  0.00    -0.046 A  
HETATM   13 CL   UNL     1      -7.680   6.210  70.007  1.00  0.00    -0.095 Cl 
HETATM   14  C   UNL     1     -10.109  11.476  66.963  1.00  0.00    -0.210 C  
HETATM   15  C   UNL     1      -6.739   9.923  68.877  1.00  0.00    -0.053 A  
HETATM   16  O   UNL     1     -10.824  12.063  65.886  1.00  0.00    -0.268 OA 
HETATM   17  C   UNL     1      -9.021  12.454  67.479  1.00  0.00    -0.183 C  
ENDROOT
BRANCH   6  18
HETATM   18  C   UNL     1     -11.437  10.126  70.186  1.00  0.00    -0.368 A  
HETATM   19  C   UNL     1     -11.586   8.838  70.716  1.00  0.00    -0.288 A  
HETATM   20  C   UNL     1     -13.234   9.664  72.284  1.00  0.00    -0.492 A  
HETATM   21  C   UNL     1     -12.494   8.608  71.754  1.00  0.00    -0.397 A  
HETATM   22  C   UNL     1     -13.061  10.956  71.789  1.00  0.00    -0.564 A  
HETATM   23  C   UNL     1     -12.162  11.187  70.747  1.00  0.00    -0.484 A  
ENDBRANCH   6  18
TORSDOF 1
ENDMDL
MODEL      107
REMARK 921   NORMALIZED FREE ENERGY PREDICTED BY IDOCK:   -4.17 KCAL/MOL
REMARK 922        TOTAL FREE ENERGY PREDICTED BY IDOCK:   -4.71 KCAL/MOL
REMARK 923 INTER-LIGAND FREE ENERGY PREDICTED BY IDOCK:   -4.26 KCAL/MOL
REMARK 924 INTRA-LIGAND FREE ENERGY PREDICTED BY IDOCK:   -0.44 KCAL/MOL
REMARK 927      BINDING AFFINITY PREDICTED BY RF-SCORE:    0.00 PKD
ROOT
HETATM    1  C   UNL     1     -12.215  13.379  68.368  1.00  0.00    -0.092 C  
HETATM    2  N   UNL     1     -11.120  13.328  67.411  1.00  0.00    -0.271 N  
HETATM    3  C   UNL     1      -9.804  13.716  67.809  1.00  0.00    -0.232 A  
HETATM    4  C   UNL     1      -8.632  13.165  67.248  1.00  0.00    -0.210 A  
HETATM    5  C   UNL     1      -7.364  13.636  67.639  1.00  0.00    -0.185 A  
HETATM    6  C   UNL     1      -8.667  12.027  66.276  1.00  0.00    -0.027 C  
HETATM    7  N   UNL     1      -9.442  11.985  65.245  1.00  0.00    -0.428 NA 
HETATM    8  C   UNL     1      -7.253  14.604  68.631  1.00  0.00    -0.122 A  
HETATM    9  O   UNL     1     -12.621  12.650  65.795  1.00  0.00    -0.575 OA 
HETATM   10  H   UNL     1     -11.534  13.777  63.574  1.00  0.00     0.000 HD 
HETATM   11  H   UNL     1      -9.412  11.193  64.603  1.00  0.00     0.000 HD 
HETATM   12  C   UNL     1      -8.391  15.131  69.223  1.00  0.00    -0.211 A  
HETATM   13 CL   UNL     1      -5.698  15.130  69.144  1.00  0.00    -0.097 Cl 
HETATM   14  C   UNL     1     -10.360  13.091  65.019  1.00  0.00    -0.318 C  
HETATM   15  C   UNL     1      -9.655  14.697  68.808  1.00  0.00    -0.210 A  
HETATM   16  O   UNL     1     -10.935  13.054  63.721  1.00  0.00    -0.392 OA 
HETATM   17  C   UNL     1     -11.469  12.985  66.099  1.00  0.00    -0.340 C  
ENDROOT
BRANCH   6  18
HETATM   18  C   UNL     1      -7.736  10.862  66.476  1.00  0.00    -0.149 A  
HETATM   19  C   UNL     1      -6.840  10.447  65.483  1.00  0.00    -0.125 A  
HETATM   20  C   UNL     1      -6.092   8.635  66.903  1.00  0.00    -0.058 A  
HETATM   21  C   UNL     1      -6.030   9.327  65.694  1.00  0.00    -0.055 A  
HETATM   22  C   UNL     1      -6.952   9.068  67.911  1.00  0.00    -0.078 A  
HETATM   23  C   UNL     1      -7.769  10.179  67.700  1.00  0.00    -0.091 A  
ENDBRANCH   6  18
TORSDOF 1
ENDMDL
MODEL      108
REMARK 921   NORMALIZED FREE ENERGY PREDICTED BY IDOCK:   -4.17 KCAL/MOL
REMARK 922        TOTAL FREE ENERGY PREDICTED BY IDOCK:   -4.70 KCAL/MOL
REMARK 923 INTER-LIGAND FREE ENERGY PREDICTED BY IDOCK:   -4.25 KCAL/MOL
REMARK 924 INTRA-LIGAND FREE ENERGY PREDICTED BY IDOCK:   -0.45 KCAL/MOL
REMARK 927      BINDING AFFINITY PREDICTED BY RF-SCORE:    0.00 PKD
ROOT
HETATM    1  C   UNL     1      -8.559   5.216  70.232  1.00  0.00    -0.112 C  
HETATM    2  N   UNL     1      -8.891   6.519  70.789  1.00  0.00    -0.143 N  
HETATM    3  C   UNL     1      -8.089   7.658  70.470  1.00  0.00    -0.105 A  
HETATM    4  C   UNL     1      -8.601   8.972  70.411  1.00  0.00    -0.215 A  
HETATM    5  C   UNL     1      -7.745  10.059  70.154  1.00  0.00    -0.158 A  
HETATM    6  C   UNL     1     -10.061   9.271  70.548  1.00  0.00    -0.255 C  
HETATM    7  N   UNL     1     -10.809   8.788  71.483  1.00  0.00    -0.277 NA 
HETATM    8  C   UNL     1      -6.397   9.843  69.890  1.00  0.00    -0.063 A  
HETATM    9  O   UNL     1     -10.622   5.533  71.952  1.00  0.00    -0.222 OA 
HETATM   10  H   UNL     1     -10.673   7.061  74.198  1.00  0.00     0.000 HD 
HETATM   11  H   UNL     1     -11.796   9.039  71.542  1.00  0.00     0.000 HD 
HETATM   12  C   UNL     1      -5.881   8.555  69.906  1.00  0.00    -0.025 A  
HETATM   13 CL   UNL     1      -5.372  11.172  69.518  1.00  0.00    -0.044 Cl 
HETATM   14  C   UNL     1     -10.215   7.877  72.449  1.00  0.00    -0.264 C  
HETATM   15  C   UNL     1      -6.718   7.475  70.202  1.00  0.00    -0.050 A  
HETATM   16  O   UNL     1     -11.061   7.655  73.567  1.00  0.00    -0.315 OA 
HETATM   17  C   UNL     1      -9.948   6.541  71.705  1.00  0.00    -0.176 C  
ENDROOT
BRANCH   6  18
HETATM   18  C   UNL     1     -10.715  10.205  69.567  1.00  0.00    -0.277 A  
HETATM   19  C   UNL     1     -10.620  10.016  68.183  1.00  0.00    -0.268 A  
HETATM   20  C   UNL     1     -11.901  12.035  67.810  1.00  0.00    -0.308 A  
HETATM   21  C   UNL     1     -11.202  10.938  67.308  1.00  0.00    -0.307 A  
HETATM   22  C   UNL     1     -12.034  12.207  69.187  1.00  0.00    -0.311 A  
HETATM   23  C   UNL     1     -11.447  11.293  70.063  1.00  0.00    -0.359 A  
ENDBRANCH   6  18
TORSDOF 1
ENDMDL
MODEL      109
REMARK 921   NORMALIZED FREE ENERGY PREDICTED BY IDOCK:   -4.15 KCAL/MOL
REMARK 922        TOTAL FREE ENERGY PREDICTED BY IDOCK:   -4.69 KCAL/MOL
REMARK 923 INTER-LIGAND FREE ENERGY PREDICTED BY IDOCK:   -4.19 KCAL/MOL
REMARK 924 INTRA-LIGAND FREE ENERGY PREDICTED BY IDOCK:   -0.49 KCAL/MOL
REMARK 927      BINDING AFFINITY PREDICTED BY RF-SCORE:    0.00 PKD
ROOT
HETATM    1  C   UNL     1      -7.718   4.720  70.061  1.00  0.00    -0.055 C  
HETATM    2  N   UNL     1      -8.829   5.381  69.392  1.00  0.00    -0.104 N  
HETATM    3  C   UNL     1      -9.729   6.199  70.141  1.00  0.00    -0.163 A  
HETATM    4  C   UNL     1     -10.400   7.313  69.593  1.00  0.00    -0.227 A  
HETATM    5  C   UNL     1     -11.324   8.041  70.367  1.00  0.00    -0.190 A  
HETATM    6  C   UNL     1     -10.126   7.813  68.209  1.00  0.00    -0.192 C  
HETATM    7  N   UNL     1     -10.076   7.054  67.166  1.00  0.00    -0.195 NA 
HETATM    8  C   UNL     1     -11.534   7.710  71.700  1.00  0.00    -0.260 A  
HETATM    9  O   UNL     1      -8.191   4.364  67.421  1.00  0.00    -0.100 OA 
HETATM   10  H   UNL     1     -10.601   4.022  66.213  1.00  0.00     0.000 HD 
HETATM   11  H   UNL     1      -9.904   7.450  66.242  1.00  0.00     0.000 HD 
HETATM   12  C   UNL     1     -10.856   6.642  72.270  1.00  0.00    -0.260 A  
HETATM   13 CL   UNL     1     -12.619   8.642  72.654  1.00  0.00    -0.372 Cl 
HETATM   14  C   UNL     1     -10.270   5.623  67.338  1.00  0.00    -0.205 C  
HETATM   15  C   UNL     1      -9.969   5.889  71.494  1.00  0.00    -0.221 A  
HETATM   16  O   UNL     1     -10.474   4.957  66.100  1.00  0.00    -0.283 OA 
HETATM   17  C   UNL     1      -8.997   5.075  68.037  1.00  0.00    -0.108 C  
ENDROOT
BRANCH   6  18
HETATM   18  C   UNL     1      -9.916   9.286  67.989  1.00  0.00    -0.216 A  
HETATM   19  C   UNL     1     -10.874  10.089  67.358  1.00  0.00    -0.313 A  
HETATM   20  C   UNL     1      -9.410  12.007  67.553  1.00  0.00    -0.179 A  
HETATM   21  C   UNL     1     -10.614  11.444  67.130  1.00  0.00    -0.279 A  
HETATM   22  C   UNL     1      -8.469  11.223  68.217  1.00  0.00    -0.152 A  
HETATM   23  C   UNL     1      -8.722   9.868  68.439  1.00  0.00    -0.120 A  
ENDBRANCH   6  18
TORSDOF 1
ENDMDL
MODEL      110
REMARK 921   NORMALIZED FREE ENERGY PREDICTED BY IDOCK:   -4.14 KCAL/MOL
REMARK 922        TOTAL FREE ENERGY PREDICTED BY IDOCK:   -4.67 KCAL/MOL
REMARK 923 INTER-LIGAND FREE ENERGY PREDICTED BY IDOCK:   -4.25 KCAL/MOL
REMARK 924 INTRA-LIGAND FREE ENERGY PREDICTED BY IDOCK:   -0.42 KCAL/MOL
REMARK 927      BINDING AFFINITY PREDICTED BY RF-SCORE:    0.00 PKD
ROOT
HETATM    1  C   UNL     1      -9.339  13.802  65.644  1.00  0.00     0.253 C  
HETATM    2  N   UNL     1      -9.171  14.506  66.906  1.00  0.00    -0.239 N  
HETATM    3  C   UNL     1      -9.688  15.828  67.062  1.00  0.00    -0.228 A  
HETATM    4  C   UNL     1     -10.133  16.344  68.298  1.00  0.00    -0.248 A  
HETATM    5  C   UNL     1     -10.573  17.678  68.397  1.00  0.00    -0.318 A  
HETATM    6  C   UNL     1     -10.224  15.503  69.532  1.00  0.00    -0.279 C  
HETATM    7  N   UNL     1      -9.278  14.730  69.948  1.00  0.00    -0.283 NA 
HETATM    8  C   UNL     1     -10.636  18.480  67.263  1.00  0.00    -0.413 A  
HETATM    9  O   UNL     1      -7.974  12.701  67.703  1.00  0.00    -0.144 OA 
HETATM   10  H   UNL     1      -6.210  13.940  69.358  1.00  0.00     0.000 HD 
HETATM   11  H   UNL     1      -9.384  14.191  70.807  1.00  0.00     0.000 HD 
HETATM   12  C   UNL     1     -10.239  17.981  66.031  1.00  0.00    -0.304 A  
HETATM   13 CL   UNL     1     -11.231  20.089  67.384  1.00  0.00     0.005 Cl 
HETATM   14  C   UNL     1      -8.056  14.644  69.163  1.00  0.00    -0.078 C  
HETATM   15  C   UNL     1      -9.761  16.670  65.935  1.00  0.00    -0.269 A  
HETATM   16  O   UNL     1      -7.009  13.996  69.871  1.00  0.00    -0.001 OA 
HETATM   17  C   UNL     1      -8.401  13.850  67.875  1.00  0.00    -0.167 C  
ENDROOT
BRANCH   6  18
HETATM   18  C   UNL     1     -11.473  15.560  70.370  1.00  0.00    -0.364 A  
HETATM   19  C   UNL     1     -12.750  15.420  69.813  1.00  0.00    -0.034 A  
HETATM   20  C   UNL     1     -13.747  15.754  71.993  1.00  0.00    -0.408 A  
HETATM   21  C   UNL     1     -13.884  15.531  70.623  1.00  0.00     0.226 A  
HETATM   22  C   UNL     1     -12.478  15.854  72.560  1.00  0.00    -0.566 A  
HETATM   23  C   UNL     1     -11.344  15.753  71.752  1.00  0.00    -0.393 A  
ENDBRANCH   6  18
TORSDOF 1
ENDMDL
MODEL      111
REMARK 921   NORMALIZED FREE ENERGY PREDICTED BY IDOCK:   -4.13 KCAL/MOL
REMARK 922        TOTAL FREE ENERGY PREDICTED BY IDOCK:   -4.66 KCAL/MOL
REMARK 923 INTER-LIGAND FREE ENERGY PREDICTED BY IDOCK:   -4.84 KCAL/MOL
REMARK 924 INTRA-LIGAND FREE ENERGY PREDICTED BY IDOCK:    0.18 KCAL/MOL
REMARK 927      BINDING AFFINITY PREDICTED BY RF-SCORE:    0.00 PKD
ROOT
HETATM    1  C   UNL     1     -11.210   6.243  70.667  1.00  0.00    -0.337 C  
HETATM    2  N   UNL     1     -10.241   7.069  69.963  1.00  0.00    -0.191 N  
HETATM    3  C   UNL     1      -9.843   6.728  68.634  1.00  0.00    -0.142 A  
HETATM    4  C   UNL     1      -9.449   7.686  67.675  1.00  0.00    -0.165 A  
HETATM    5  C   UNL     1      -9.007   7.280  66.402  1.00  0.00    -0.184 A  
HETATM    6  C   UNL     1      -9.539   9.158  67.928  1.00  0.00    -0.146 C  
HETATM    7  N   UNL     1      -9.106   9.733  69.000  1.00  0.00    -0.149 NA 
HETATM    8  C   UNL     1      -9.017   5.934  66.054  1.00  0.00    -0.151 A  
HETATM    9  O   UNL     1     -10.053   8.382  71.852  1.00  0.00    -0.215 OA 
HETATM   10  H   UNL     1      -7.447   9.138  71.697  1.00  0.00     0.000 HD 
HETATM   11  H   UNL     1      -9.175  10.743  69.114  1.00  0.00     0.000 HD 
HETATM   12  C   UNL     1      -9.437   4.979  66.968  1.00  0.00    -0.150 A  
HETATM   13 CL   UNL     1      -8.532   5.454  64.475  1.00  0.00    -0.137 Cl 
HETATM   14  C   UNL     1      -8.516   8.905  70.042  1.00  0.00    -0.139 C  
HETATM   15  C   UNL     1      -9.838   5.374  68.249  1.00  0.00    -0.196 A  
HETATM   16  O   UNL     1      -7.833   9.679  71.017  1.00  0.00    -0.310 OA 
HETATM   17  C   UNL     1      -9.677   8.115  70.702  1.00  0.00    -0.170 C  
ENDROOT
BRANCH   6  18
HETATM   18  C   UNL     1     -10.146  10.048  66.878  1.00  0.00    -0.287 A  
HETATM   19  C   UNL     1      -9.836   9.913  65.519  1.00  0.00    -0.381 A  
HETATM   20  C   UNL     1     -11.263  11.797  64.997  1.00  0.00    -0.318 A  
HETATM   21  C   UNL     1     -10.385  10.796  64.584  1.00  0.00    -0.394 A  
HETATM   22  C   UNL     1     -11.607  11.912  66.343  1.00  0.00    -0.315 A  
HETATM   23  C   UNL     1     -11.054  11.038  67.280  1.00  0.00    -0.359 A  
ENDBRANCH   6  18
TORSDOF 1
ENDMDL
MODEL      112
REMARK 921   NORMALIZED FREE ENERGY PREDICTED BY IDOCK:   -4.08 KCAL/MOL
REMARK 922        TOTAL FREE ENERGY PREDICTED BY IDOCK:   -4.61 KCAL/MOL
REMARK 923 INTER-LIGAND FREE ENERGY PREDICTED BY IDOCK:   -4.17 KCAL/MOL
REMARK 924 INTRA-LIGAND FREE ENERGY PREDICTED BY IDOCK:   -0.43 KCAL/MOL
REMARK 927      BINDING AFFINITY PREDICTED BY RF-SCORE:    0.00 PKD
ROOT
HETATM    1  C   UNL     1      -6.353  17.737  65.517  1.00  0.00    -0.016 C  
HETATM    2  N   UNL     1      -6.773  17.532  66.895  1.00  0.00    -0.169 N  
HETATM    3  C   UNL     1      -7.815  18.335  67.451  1.00  0.00    -0.226 A  
HETATM    4  C   UNL     1      -8.693  17.874  68.457  1.00  0.00    -0.297 A  
HETATM    5  C   UNL     1      -9.659  18.736  69.009  1.00  0.00    -0.294 A  
HETATM    6  C   UNL     1      -8.689  16.457  68.937  1.00  0.00    -0.253 C  
HETATM    7  N   UNL     1      -7.621  15.811  69.268  1.00  0.00    -0.213 NA 
HETATM    8  C   UNL     1      -9.803  20.030  68.522  1.00  0.00    -0.299 A  
HETATM    9  O   UNL     1      -5.136  15.920  67.108  1.00  0.00    -0.333 OA 
HETATM   10  H   UNL     1      -4.458  16.214  69.723  1.00  0.00     0.000 HD 
HETATM   11  H   UNL     1      -7.677  14.851  69.607  1.00  0.00     0.000 HD 
HETATM   12  C   UNL     1      -8.977  20.490  67.506  1.00  0.00    -0.379 A  
HETATM   13 CL   UNL     1     -11.027  21.055  69.161  1.00  0.00     0.827 Cl 
HETATM   14  C   UNL     1      -6.337  16.484  69.145  1.00  0.00    -0.185 C  
HETATM   15  C   UNL     1      -7.987  19.652  66.984  1.00  0.00    -0.311 A  
HETATM   16  O   UNL     1      -5.296  15.775  69.803  1.00  0.00    -0.110 OA 
HETATM   17  C   UNL     1      -6.030  16.599  67.628  1.00  0.00    -0.147 C  
ENDROOT
BRANCH   6  18
HETATM   18  C   UNL     1      -9.996  15.725  69.074  1.00  0.00    -0.234 A  
HETATM   19  C   UNL     1     -10.663  15.614  70.301  1.00  0.00    -0.354 A  
HETATM   20  C   UNL     1     -12.388  14.279  69.253  1.00  0.00    -0.197 A  
HETATM   21  C   UNL     1     -11.849  14.881  70.390  1.00  0.00    -0.352 A  
HETATM   22  C   UNL     1     -11.752  14.419  68.021  1.00  0.00    -0.374 A  
HETATM   23  C   UNL     1     -10.562  15.143  67.930  1.00  0.00    -0.257 A  
ENDBRANCH   6  18
TORSDOF 1
ENDMDL
MODEL      113
REMARK 921   NORMALIZED FREE ENERGY PREDICTED BY IDOCK:   -3.95 KCAL/MOL
REMARK 922        TOTAL FREE ENERGY PREDICTED BY IDOCK:   -4.47 KCAL/MOL
REMARK 923 INTER-LIGAND FREE ENERGY PREDICTED BY IDOCK:   -4.20 KCAL/MOL
REMARK 924 INTRA-LIGAND FREE ENERGY PREDICTED BY IDOCK:   -0.27 KCAL/MOL
REMARK 927      BINDING AFFINITY PREDICTED BY RF-SCORE:    0.00 PKD
ROOT
HETATM    1  C   UNL     1     -11.491  12.116  68.723  1.00  0.00    -0.307 C  
HETATM    2  N   UNL     1     -10.349  11.243  68.951  1.00  0.00    -0.205 N  
HETATM    3  C   UNL     1     -10.495  10.073  69.757  1.00  0.00    -0.256 A  
HETATM    4  C   UNL     1      -9.734   8.900  69.562  1.00  0.00    -0.173 A  
HETATM    5  C   UNL     1      -9.880   7.803  70.432  1.00  0.00    -0.183 A  
HETATM    6  C   UNL     1      -8.796   8.735  68.407  1.00  0.00    -0.138 C  
HETATM    7  N   UNL     1      -7.926   9.621  68.054  1.00  0.00    -0.097 NA 
HETATM    8  C   UNL     1     -10.824   7.838  71.451  1.00  0.00    -0.228 A  
HETATM    9  O   UNL     1      -9.044  12.702  67.729  1.00  0.00    -0.176 OA 
HETATM   10  H   UNL     1      -6.650  12.428  68.984  1.00  0.00     0.000 HD 
HETATM   11  H   UNL     1      -7.297   9.449  67.270  1.00  0.00     0.000 HD 
HETATM   12  C   UNL     1     -11.610   8.966  71.636  1.00  0.00    -0.408 A  
HETATM   13 CL   UNL     1     -11.036   6.469  72.470  1.00  0.00    -0.277 Cl 
HETATM   14  C   UNL     1      -7.861  10.868  68.800  1.00  0.00    -0.132 C  
HETATM   15  C   UNL     1     -11.439  10.076  70.802  1.00  0.00    -0.438 A  
HETATM   16  O   UNL     1      -6.692  11.614  68.497  1.00  0.00    -0.060 OA 
HETATM   17  C   UNL     1      -9.128  11.683  68.427  1.00  0.00    -0.180 C  
ENDROOT
BRANCH   6  18
HETATM   18  C   UNL     1      -8.834   7.461  67.608  1.00  0.00    -0.127 A  
HETATM   19  C   UNL     1      -7.669   6.849  67.128  1.00  0.00    -0.108 A  
HETATM   20  C   UNL     1      -8.999   5.131  66.062  1.00  0.00    -0.140 A  
HETATM   21  C   UNL     1      -7.755   5.694  66.346  1.00  0.00    -0.099 A  
HETATM   22  C   UNL     1     -10.160   5.713  66.570  1.00  0.00    -0.225 A  
HETATM   23  C   UNL     1     -10.077   6.871  67.343  1.00  0.00    -0.237 A  
ENDBRANCH   6  18
TORSDOF 1
ENDMDL
MODEL      114
REMARK 921   NORMALIZED FREE ENERGY PREDICTED BY IDOCK:   -3.93 KCAL/MOL
REMARK 922        TOTAL FREE ENERGY PREDICTED BY IDOCK:   -4.45 KCAL/MOL
REMARK 923 INTER-LIGAND FREE ENERGY PREDICTED BY IDOCK:   -4.21 KCAL/MOL
REMARK 924 INTRA-LIGAND FREE ENERGY PREDICTED BY IDOCK:   -0.24 KCAL/MOL
REMARK 927      BINDING AFFINITY PREDICTED BY RF-SCORE:    0.00 PKD
ROOT
HETATM    1  C   UNL     1      -8.417   7.908  64.554  1.00  0.00     0.080 C  
HETATM    2  N   UNL     1      -9.174   9.109  64.873  1.00  0.00    -0.146 N  
HETATM    3  C   UNL     1      -9.764   9.260  66.165  1.00  0.00    -0.279 A  
HETATM    4  C   UNL     1      -9.955  10.513  66.786  1.00  0.00    -0.252 A  
HETATM    5  C   UNL     1     -10.601  10.599  68.034  1.00  0.00    -0.248 A  
HETATM    6  C   UNL     1      -9.437  11.787  66.198  1.00  0.00    -0.226 C  
HETATM    7  N   UNL     1      -9.599  12.129  64.963  1.00  0.00    -0.450 NA 
HETATM    8  C   UNL     1     -10.996   9.444  68.699  1.00  0.00    -0.032 A  
HETATM    9  O   UNL     1      -8.826   9.849  62.715  1.00  0.00    -0.194 OA 
HETATM   10  H   UNL     1     -11.120  11.235  62.268  1.00  0.00     0.000 HD 
HETATM   11  H   UNL     1      -9.241  13.019  64.618  1.00  0.00     0.000 HD 
HETATM   12  C   UNL     1     -10.783   8.199  68.123  1.00  0.00    -0.090 A  
HETATM   13 CL   UNL     1     -11.730   9.556  70.250  1.00  0.00    -0.217 Cl 
HETATM   14  C   UNL     1     -10.304  11.217  64.077  1.00  0.00    -0.376 C  
HETATM   15  C   UNL     1     -10.180   8.111  66.864  1.00  0.00    -0.387 A  
HETATM   16  O   UNL     1     -10.659  11.832  62.847  1.00  0.00    -0.208 OA 
HETATM   17  C   UNL     1      -9.358  10.014  63.821  1.00  0.00    -0.257 C  
ENDROOT
BRANCH   6  18
HETATM   18  C   UNL     1      -8.698  12.757  67.080  1.00  0.00    -0.197 A  
HETATM   19  C   UNL     1      -8.828  14.144  66.934  1.00  0.00    -0.223 A  
HETATM   20  C   UNL     1      -7.229  14.490  68.717  1.00  0.00    -0.126 A  
HETATM   21  C   UNL     1      -8.084  15.007  67.744  1.00  0.00    -0.160 A  
HETATM   22  C   UNL     1      -7.125  13.112  68.895  1.00  0.00    -0.075 A  
HETATM   23  C   UNL     1      -7.860  12.248  68.082  1.00  0.00    -0.148 A  
ENDBRANCH   6  18
TORSDOF 1
ENDMDL
MODEL      115
REMARK 921   NORMALIZED FREE ENERGY PREDICTED BY IDOCK:   -3.87 KCAL/MOL
REMARK 922        TOTAL FREE ENERGY PREDICTED BY IDOCK:   -4.39 KCAL/MOL
REMARK 923 INTER-LIGAND FREE ENERGY PREDICTED BY IDOCK:   -4.35 KCAL/MOL
REMARK 924 INTRA-LIGAND FREE ENERGY PREDICTED BY IDOCK:   -0.04 KCAL/MOL
REMARK 927      BINDING AFFINITY PREDICTED BY RF-SCORE:    0.00 PKD
ROOT
HETATM    1  C   UNL     1      -6.789   5.802  68.345  1.00  0.00    -0.063 C  
HETATM    2  N   UNL     1      -8.206   6.049  68.562  1.00  0.00    -0.110 N  
HETATM    3  C   UNL     1      -8.698   6.270  69.885  1.00  0.00    -0.141 A  
HETATM    4  C   UNL     1      -9.817   7.082  70.168  1.00  0.00    -0.179 A  
HETATM    5  C   UNL     1     -10.291   7.210  71.487  1.00  0.00    -0.218 A  
HETATM    6  C   UNL     1     -10.509   7.889  69.114  1.00  0.00    -0.209 C  
HETATM    7  N   UNL     1     -10.866   7.420  67.966  1.00  0.00    -0.450 NA 
HETATM    8  C   UNL     1      -9.620   6.589  72.534  1.00  0.00    -0.151 A  
HETATM    9  O   UNL     1      -8.560   5.759  66.300  1.00  0.00    -0.121 OA 
HETATM   10  H   UNL     1     -11.048   4.668  66.301  1.00  0.00     0.000 HD 
HETATM   11  H   UNL     1     -11.352   8.009  67.290  1.00  0.00     0.000 HD 
HETATM   12  C   UNL     1      -8.495   5.817  72.283  1.00  0.00    -0.122 A  
HETATM   13 CL   UNL     1     -10.171   6.799  74.150  1.00  0.00    -0.390 Cl 
HETATM   14  C   UNL     1     -10.559   6.032  67.657  1.00  0.00    -0.264 C  
HETATM   15  C   UNL     1      -8.045   5.653  70.969  1.00  0.00    -0.119 A  
HETATM   16  O   UNL     1     -11.249   5.575  66.503  1.00  0.00    -0.060 OA 
HETATM   17  C   UNL     1      -9.025   5.949  67.432  1.00  0.00    -0.108 C  
ENDROOT
BRANCH   6  18
HETATM   18  C   UNL     1     -10.842   9.330  69.393  1.00  0.00    -0.184 A  
HETATM   19  C   UNL     1     -11.732   9.706  70.407  1.00  0.00    -0.266 A  
HETATM   20  C   UNL     1     -11.462  12.032  69.794  1.00  0.00    -0.284 A  
HETATM   21  C   UNL     1     -12.050  11.054  70.596  1.00  0.00    -0.471 A  
HETATM   22  C   UNL     1     -10.544  11.668  68.810  1.00  0.00    -0.241 A  
HETATM   23  C   UNL     1     -10.232  10.322  68.613  1.00  0.00    -0.196 A  
ENDBRANCH   6  18
TORSDOF 1
ENDMDL
MODEL      116
REMARK 921   NORMALIZED FREE ENERGY PREDICTED BY IDOCK:   -3.86 KCAL/MOL
REMARK 922        TOTAL FREE ENERGY PREDICTED BY IDOCK:   -4.38 KCAL/MOL
REMARK 923 INTER-LIGAND FREE ENERGY PREDICTED BY IDOCK:   -3.94 KCAL/MOL
REMARK 924 INTRA-LIGAND FREE ENERGY PREDICTED BY IDOCK:   -0.43 KCAL/MOL
REMARK 927      BINDING AFFINITY PREDICTED BY RF-SCORE:    0.00 PKD
ROOT
HETATM    1  C   UNL     1     -12.583  12.862  70.926  1.00  0.00    -0.270 C  
HETATM    2  N   UNL     1     -11.801  12.296  69.837  1.00  0.00    -0.331 N  
HETATM    3  C   UNL     1     -11.560  13.064  68.657  1.00  0.00    -0.318 A  
HETATM    4  C   UNL     1     -10.399  12.922  67.866  1.00  0.00    -0.233 A  
HETATM    5  C   UNL     1     -10.250  13.664  66.679  1.00  0.00    -0.276 A  
HETATM    6  C   UNL     1      -9.257  12.044  68.270  1.00  0.00    -0.192 C  
HETATM    7  N   UNL     1      -9.393  10.826  68.676  1.00  0.00    -0.177 NA 
HETATM    8  C   UNL     1     -11.215  14.593  66.309  1.00  0.00    -0.340 A  
HETATM    9  O   UNL     1     -11.641  10.329  71.032  1.00  0.00    -0.351 OA 
HETATM   10  H   UNL     1     -11.599   8.503  69.020  1.00  0.00     0.000 HD 
HETATM   11  H   UNL     1      -8.578  10.264  68.921  1.00  0.00     0.000 HD 
HETATM   12  C   UNL     1     -12.345  14.776  67.092  1.00  0.00     0.183 A  
HETATM   13 CL   UNL     1     -10.995  15.537  64.889  1.00  0.00    -0.451 Cl 
HETATM   14  C   UNL     1     -10.735  10.273  68.777  1.00  0.00    -0.219 C  
HETATM   15  C   UNL     1     -12.519  14.011  68.250  1.00  0.00     0.230 A  
HETATM   16  O   UNL     1     -10.722   8.864  68.954  1.00  0.00    -0.197 OA 
HETATM   17  C   UNL     1     -11.416  10.959  69.991  1.00  0.00    -0.329 C  
ENDROOT
BRANCH   6  18
HETATM   18  C   UNL     1      -7.853  12.578  68.184  1.00  0.00    -0.151 A  
HETATM   19  C   UNL     1      -7.485  13.799  68.764  1.00  0.00    -0.098 A  
HETATM   20  C   UNL     1      -5.235  13.535  67.912  1.00  0.00    -0.088 A  
HETATM   21  C   UNL     1      -6.180  14.280  68.616  1.00  0.00    -0.088 A  
HETATM   22  C   UNL     1      -5.584  12.301  67.367  1.00  0.00    -0.134 A  
HETATM   23  C   UNL     1      -6.887  11.822  67.505  1.00  0.00    -0.113 A  
ENDBRANCH   6  18
TORSDOF 1
ENDMDL
MODEL      117
REMARK 921   NORMALIZED FREE ENERGY PREDICTED BY IDOCK:   -3.82 KCAL/MOL
REMARK 922        TOTAL FREE ENERGY PREDICTED BY IDOCK:   -4.34 KCAL/MOL
REMARK 923 INTER-LIGAND FREE ENERGY PREDICTED BY IDOCK:   -4.45 KCAL/MOL
REMARK 924 INTRA-LIGAND FREE ENERGY PREDICTED BY IDOCK:    0.11 KCAL/MOL
REMARK 927      BINDING AFFINITY PREDICTED BY RF-SCORE:    0.00 PKD
ROOT
HETATM    1  C   UNL     1      -9.728   9.517  65.296  1.00  0.00    -0.198 C  
HETATM    2  N   UNL     1      -9.968   9.695  66.720  1.00  0.00    -0.212 N  
HETATM    3  C   UNL     1     -10.068   8.555  67.576  1.00  0.00    -0.221 A  
HETATM    4  C   UNL     1      -9.690   8.573  68.936  1.00  0.00    -0.172 A  
HETATM    5  C   UNL     1      -9.873   7.434  69.742  1.00  0.00    -0.171 A  
HETATM    6  C   UNL     1      -9.025   9.756  69.567  1.00  0.00    -0.204 C  
HETATM    7  N   UNL     1      -9.446  10.970  69.443  1.00  0.00    -0.419 NA 
HETATM    8  C   UNL     1     -10.368   6.258  69.190  1.00  0.00    -0.216 A  
HETATM    9  O   UNL     1     -10.088  11.973  66.371  1.00  0.00    -0.211 OA 
HETATM   10  H   UNL     1     -11.901  12.690  68.264  1.00  0.00     0.000 HD 
HETATM   11  H   UNL     1      -8.966  11.738  69.911  1.00  0.00     0.000 HD 
HETATM   12  C   UNL     1     -10.711   6.207  67.846  1.00  0.00    -0.374 A  
HETATM   13 CL   UNL     1     -10.533   4.855  70.170  1.00  0.00    -0.257 Cl 
HETATM   14  C   UNL     1     -10.620  11.217  68.620  1.00  0.00    -0.202 C  
HETATM   15  C   UNL     1     -10.570   7.349  67.051  1.00  0.00    -0.414 A  
HETATM   16  O   UNL     1     -11.134  12.529  68.801  1.00  0.00    -0.245 OA 
HETATM   17  C   UNL     1     -10.189  11.010  67.144  1.00  0.00    -0.206 C  
ENDROOT
BRANCH   6  18
HETATM   18  C   UNL     1      -7.806   9.543  70.423  1.00  0.00    -0.190 A  
HETATM   19  C   UNL     1      -7.780   8.605  71.462  1.00  0.00    -0.152 A  
HETATM   20  C   UNL     1      -5.518   9.265  72.014  1.00  0.00    -0.073 A  
HETATM   21  C   UNL     1      -6.641   8.478  72.263  1.00  0.00    -0.091 A  
HETATM   22  C   UNL     1      -5.522  10.172  70.956  1.00  0.00    -0.083 A  
HETATM   23  C   UNL     1      -6.660  10.308  70.160  1.00  0.00    -0.138 A  
ENDBRANCH   6  18
TORSDOF 1
ENDMDL
MODEL      118
REMARK 921   NORMALIZED FREE ENERGY PREDICTED BY IDOCK:   -3.80 KCAL/MOL
REMARK 922        TOTAL FREE ENERGY PREDICTED BY IDOCK:   -4.31 KCAL/MOL
REMARK 923 INTER-LIGAND FREE ENERGY PREDICTED BY IDOCK:   -3.86 KCAL/MOL
REMARK 924 INTRA-LIGAND FREE ENERGY PREDICTED BY IDOCK:   -0.45 KCAL/MOL
REMARK 927      BINDING AFFINITY PREDICTED BY RF-SCORE:    0.00 PKD
ROOT
HETATM    1  C   UNL     1     -10.529   7.769  66.955  1.00  0.00    -0.349 C  
HETATM    2  N   UNL     1      -9.825   6.672  67.602  1.00  0.00    -0.123 N  
HETATM    3  C   UNL     1      -8.886   6.940  68.644  1.00  0.00    -0.124 A  
HETATM    4  C   UNL     1      -8.630   6.045  69.705  1.00  0.00    -0.130 A  
HETATM    5  C   UNL     1      -7.646   6.341  70.667  1.00  0.00    -0.096 A  
HETATM    6  C   UNL     1      -9.419   4.788  69.901  1.00  0.00    -0.161 C  
HETATM    7  N   UNL     1      -9.672   3.943  68.959  1.00  0.00    -0.128 NA 
HETATM    8  C   UNL     1      -6.963   7.551  70.619  1.00  0.00    -0.051 A  
HETATM    9  O   UNL     1     -10.880   5.205  66.166  1.00  0.00    -0.282 OA 
HETATM   10  H   UNL     1      -8.969   3.294  65.883  1.00  0.00     0.000 HD 
HETATM   11  H   UNL     1     -10.199   3.091  69.151  1.00  0.00     0.000 HD 
HETATM   12  C   UNL     1      -7.226   8.462  69.607  1.00  0.00    -0.057 A  
HETATM   13 CL   UNL     1      -5.805   7.929  71.833  1.00  0.00    -0.035 Cl 
HETATM   14  C   UNL     1      -9.190   4.232  67.617  1.00  0.00    -0.149 C  
HETATM   15  C   UNL     1      -8.173   8.154  68.624  1.00  0.00    -0.125 A  
HETATM   16  O   UNL     1      -9.285   3.105  66.759  1.00  0.00    -0.162 OA 
HETATM   17  C   UNL     1     -10.054   5.398  67.068  1.00  0.00    -0.203 C  
ENDROOT
BRANCH   6  18
HETATM   18  C   UNL     1      -9.939   4.454  71.273  1.00  0.00    -0.245 A  
HETATM   19  C   UNL     1      -9.614   3.256  71.921  1.00  0.00    -0.221 A  
HETATM   20  C   UNL     1     -11.013   3.878  73.795  1.00  0.00    -0.321 A  
HETATM   21  C   UNL     1     -10.161   2.965  73.174  1.00  0.00    -0.221 A  
HETATM   22  C   UNL     1     -11.309   5.090  73.173  1.00  0.00    -0.397 A  
HETATM   23  C   UNL     1     -10.771   5.379  71.918  1.00  0.00    -0.275 A  
ENDBRANCH   6  18
TORSDOF 1
ENDMDL
MODEL      119
REMARK 921   NORMALIZED FREE ENERGY PREDICTED BY IDOCK:   -3.70 KCAL/MOL
REMARK 922        TOTAL FREE ENERGY PREDICTED BY IDOCK:   -4.21 KCAL/MOL
REMARK 923 INTER-LIGAND FREE ENERGY PREDICTED BY IDOCK:   -4.28 KCAL/MOL
REMARK 924 INTRA-LIGAND FREE ENERGY PREDICTED BY IDOCK:    0.07 KCAL/MOL
REMARK 927      BINDING AFFINITY PREDICTED BY RF-SCORE:    0.00 PKD
ROOT
HETATM    1  C   UNL     1      -9.071  11.020  62.501  1.00  0.00    -0.323 C  
HETATM    2  N   UNL     1      -9.445  11.033  63.907  1.00  0.00    -0.239 N  
HETATM    3  C   UNL     1      -8.822  10.129  64.821  1.00  0.00    -0.195 A  
HETATM    4  C   UNL     1      -8.621  10.426  66.186  1.00  0.00    -0.151 A  
HETATM    5  C   UNL     1      -8.057   9.467  67.049  1.00  0.00    -0.105 A  
HETATM    6  C   UNL     1      -8.928  11.770  66.769  1.00  0.00    -0.196 C  
HETATM    7  N   UNL     1     -10.033  12.406  66.568  1.00  0.00    -0.225 NA 
HETATM    8  C   UNL     1      -7.631   8.241  66.550  1.00  0.00    -0.092 A  
HETATM    9  O   UNL     1     -11.008  12.663  63.432  1.00  0.00    -0.428 OA 
HETATM   10  H   UNL     1     -12.947  12.063  65.239  1.00  0.00     0.000 HD 
HETATM   11  H   UNL     1     -10.199  13.313  67.005  1.00  0.00     0.000 HD 
HETATM   12  C   UNL     1      -7.784   7.944  65.203  1.00  0.00    -0.103 A  
HETATM   13 CL   UNL     1      -6.889   7.100  67.600  1.00  0.00    -0.071 Cl 
HETATM   14  C   UNL     1     -11.036  11.802  65.705  1.00  0.00    -0.297 C  
HETATM   15  C   UNL     1      -8.382   8.877  64.350  1.00  0.00    -0.176 A  
HETATM   16  O   UNL     1     -12.292  12.458  65.802  1.00  0.00    -0.644 OA 
HETATM   17  C   UNL     1     -10.496  11.891  64.253  1.00  0.00    -0.326 C  
ENDROOT
BRANCH   6  18
HETATM   18  C   UNL     1      -7.915  12.431  67.663  1.00  0.00    -0.164 A  
HETATM   19  C   UNL     1      -7.395  11.795  68.797  1.00  0.00    -0.114 A  
HETATM   20  C   UNL     1      -6.089  13.765  69.316  1.00  0.00    -0.100 A  
HETATM   21  C   UNL     1      -6.494  12.468  69.628  1.00  0.00    -0.057 A  
HETATM   22  C   UNL     1      -6.571  14.390  68.167  1.00  0.00    -0.133 A  
HETATM   23  C   UNL     1      -7.478  13.724  67.341  1.00  0.00    -0.142 A  
ENDBRANCH   6  18
TORSDOF 1
ENDMDL
MODEL      120
REMARK 921   NORMALIZED FREE ENERGY PREDICTED BY IDOCK:   -3.68 KCAL/MOL
REMARK 922        TOTAL FREE ENERGY PREDICTED BY IDOCK:   -4.19 KCAL/MOL
REMARK 923 INTER-LIGAND FREE ENERGY PREDICTED BY IDOCK:   -3.77 KCAL/MOL
REMARK 924 INTRA-LIGAND FREE ENERGY PREDICTED BY IDOCK:   -0.42 KCAL/MOL
REMARK 927      BINDING AFFINITY PREDICTED BY RF-SCORE:    0.00 PKD
ROOT
HETATM    1  C   UNL     1     -12.384   5.469  72.808  1.00  0.00     0.284 C  
HETATM    2  N   UNL     1     -11.640   6.460  72.046  1.00  0.00    -0.308 N  
HETATM    3  C   UNL     1     -10.221   6.349  71.922  1.00  0.00    -0.195 A  
HETATM    4  C   UNL     1      -9.505   6.812  70.798  1.00  0.00    -0.167 A  
HETATM    5  C   UNL     1      -8.100   6.730  70.764  1.00  0.00    -0.118 A  
HETATM    6  C   UNL     1     -10.186   7.343  69.576  1.00  0.00    -0.204 C  
HETATM    7  N   UNL     1     -11.135   8.217  69.603  1.00  0.00    -0.439 NA 
HETATM    8  C   UNL     1      -7.409   6.132  71.812  1.00  0.00    -0.093 A  
HETATM    9  O   UNL     1     -13.614   7.599  71.683  1.00  0.00    -0.360 OA 
HETATM   10  H   UNL     1     -12.725  10.166  71.616  1.00  0.00     0.000 HD 
HETATM   11  H   UNL     1     -11.553   8.560  68.738  1.00  0.00     0.000 HD 
HETATM   12  C   UNL     1      -8.097   5.636  72.910  1.00  0.00    -0.111 A  
HETATM   13 CL   UNL     1      -5.697   5.983  71.734  1.00  0.00    -0.026 Cl 
HETATM   14  C   UNL     1     -11.596   8.702  70.895  1.00  0.00    -0.269 C  
HETATM   15  C   UNL     1      -9.489   5.753  72.967  1.00  0.00    -0.153 A  
HETATM   16  O   UNL     1     -12.425   9.849  70.772  1.00  0.00    -0.296 OA 
HETATM   17  C   UNL     1     -12.384   7.541  71.559  1.00  0.00    -0.339 C  
ENDROOT
BRANCH   6  18
HETATM   18  C   UNL     1      -9.742   6.864  68.220  1.00  0.00    -0.132 A  
HETATM   19  C   UNL     1      -8.816   7.574  67.446  1.00  0.00    -0.127 A  
HETATM   20  C   UNL     1      -9.027   5.938  65.675  1.00  0.00    -0.099 A  
HETATM   21  C   UNL     1      -8.471   7.117  66.171  1.00  0.00    -0.143 A  
HETATM   22  C   UNL     1      -9.919   5.205  66.457  1.00  0.00    -0.237 A  
HETATM   23  C   UNL     1     -10.272   5.663  67.726  1.00  0.00    -0.238 A  
ENDBRANCH   6  18
TORSDOF 1
ENDMDL
MODEL      121
REMARK 921   NORMALIZED FREE ENERGY PREDICTED BY IDOCK:   -3.68 KCAL/MOL
REMARK 922        TOTAL FREE ENERGY PREDICTED BY IDOCK:   -4.18 KCAL/MOL
REMARK 923 INTER-LIGAND FREE ENERGY PREDICTED BY IDOCK:   -3.82 KCAL/MOL
REMARK 924 INTRA-LIGAND FREE ENERGY PREDICTED BY IDOCK:   -0.36 KCAL/MOL
REMARK 927      BINDING AFFINITY PREDICTED BY RF-SCORE:    0.00 PKD
ROOT
HETATM    1  C   UNL     1     -11.553  12.063  64.465  1.00  0.00    -0.317 C  
HETATM    2  N   UNL     1     -11.063  11.884  65.824  1.00  0.00    -0.316 N  
HETATM    3  C   UNL     1     -10.009  10.957  66.087  1.00  0.00    -0.233 A  
HETATM    4  C   UNL     1      -9.077  11.123  67.133  1.00  0.00    -0.151 A  
HETATM    5  C   UNL     1      -8.099  10.141  67.380  1.00  0.00    -0.114 A  
HETATM    6  C   UNL     1      -9.033  12.356  67.980  1.00  0.00    -0.194 C  
HETATM    7  N   UNL     1     -10.072  12.891  68.528  1.00  0.00    -0.329 NA 
HETATM    8  C   UNL     1      -8.000   9.028  66.553  1.00  0.00    -0.103 A  
HETATM    9  O   UNL     1     -12.661  13.383  66.551  1.00  0.00    -0.264 OA 
HETATM   10  H   UNL     1     -13.216  12.389  69.018  1.00  0.00     0.000 HD 
HETATM   11  H   UNL     1      -9.984  13.722  69.113  1.00  0.00     0.000 HD 
HETATM   12  C   UNL     1      -8.883   8.865  65.494  1.00  0.00    -0.238 A  
HETATM   13 CL   UNL     1      -6.765   7.864  66.826  1.00  0.00    -0.062 Cl 
HETATM   14  C   UNL     1     -11.372  12.281  68.294  1.00  0.00    -0.289 C  
HETATM   15  C   UNL     1      -9.883   9.817  65.271  1.00  0.00    -0.335 A  
HETATM   16  O   UNL     1     -12.367  12.787  69.171  1.00  0.00    -0.099 OA 
HETATM   17  C   UNL     1     -11.754  12.584  66.820  1.00  0.00    -0.384 C  
ENDROOT
BRANCH   6  18
HETATM   18  C   UNL     1      -7.708  13.020  68.244  1.00  0.00    -0.141 A  
HETATM   19  C   UNL     1      -7.175  13.986  67.382  1.00  0.00    -0.117 A  
HETATM   20  C   UNL     1      -5.200  14.149  68.772  1.00  0.00    -0.088 A  
HETATM   21  C   UNL     1      -5.917  14.539  67.641  1.00  0.00    -0.044 A  
HETATM   22  C   UNL     1      -5.743  13.218  69.655  1.00  0.00    -0.107 A  
HETATM   23  C   UNL     1      -6.994  12.657  69.395  1.00  0.00     0.108 A  
ENDBRANCH   6  18
TORSDOF 1
ENDMDL
MODEL      122
REMARK 921   NORMALIZED FREE ENERGY PREDICTED BY IDOCK:   -3.64 KCAL/MOL
REMARK 922        TOTAL FREE ENERGY PREDICTED BY IDOCK:   -4.14 KCAL/MOL
REMARK 923 INTER-LIGAND FREE ENERGY PREDICTED BY IDOCK:   -3.96 KCAL/MOL
REMARK 924 INTRA-LIGAND FREE ENERGY PREDICTED BY IDOCK:   -0.18 KCAL/MOL
REMARK 927      BINDING AFFINITY PREDICTED BY RF-SCORE:    0.00 PKD
ROOT
HETATM    1  C   UNL     1      -8.149   9.608  64.867  1.00  0.00    -0.133 C  
HETATM    2  N   UNL     1      -8.461   9.918  66.254  1.00  0.00    -0.127 N  
HETATM    3  C   UNL     1      -7.708  10.913  66.950  1.00  0.00    -0.135 A  
HETATM    4  C   UNL     1      -8.248  11.708  67.984  1.00  0.00    -0.146 A  
HETATM    5  C   UNL     1      -7.436  12.628  68.674  1.00  0.00    -0.094 A  
HETATM    6  C   UNL     1      -9.698  11.668  68.353  1.00  0.00    -0.199 C  
HETATM    7  N   UNL     1     -10.360  10.577  68.549  1.00  0.00    -0.170 NA 
HETATM    8  C   UNL     1      -6.110  12.810  68.299  1.00  0.00    -0.075 A  
HETATM    9  O   UNL     1     -10.075   8.270  66.215  1.00  0.00    -0.215 OA 
HETATM   10  H   UNL     1      -9.975   7.387  68.783  1.00  0.00     0.000 HD 
HETATM   11  H   UNL     1     -11.344  10.606  68.818  1.00  0.00     0.000 HD 
HETATM   12  C   UNL     1      -5.570  12.066  67.260  1.00  0.00    -0.133 A  
HETATM   13 CL   UNL     1      -5.143  13.979  69.109  1.00  0.00    -0.078 Cl 
HETATM   14  C   UNL     1      -9.674   9.306  68.377  1.00  0.00    -0.154 C  
HETATM   15  C   UNL     1      -6.360  11.121  66.598  1.00  0.00    -0.134 A  
HETATM   16  O   UNL     1     -10.424   8.217  68.895  1.00  0.00    -0.221 OA 
HETATM   17  C   UNL     1      -9.442   9.120  66.854  1.00  0.00    -0.171 C  
ENDROOT
BRANCH   6  18
HETATM   18  C   UNL     1     -10.446  12.960  68.537  1.00  0.00    -0.260 A  
HETATM   19  C   UNL     1     -11.502  13.086  69.447  1.00  0.00    -0.323 A  
HETATM   20  C   UNL     1     -11.833  15.383  68.760  1.00  0.00    -0.339 A  
HETATM   21  C   UNL     1     -12.201  14.292  69.547  1.00  0.00    -0.341 A  
HETATM   22  C   UNL     1     -10.756  15.277  67.882  1.00  0.00    -0.275 A  
HETATM   23  C   UNL     1     -10.062  14.071  67.773  1.00  0.00    -0.240 A  
ENDBRANCH   6  18
TORSDOF 1
ENDMDL
MODEL      123
REMARK 921   NORMALIZED FREE ENERGY PREDICTED BY IDOCK:   -3.61 KCAL/MOL
REMARK 922        TOTAL FREE ENERGY PREDICTED BY IDOCK:   -4.11 KCAL/MOL
REMARK 923 INTER-LIGAND FREE ENERGY PREDICTED BY IDOCK:   -3.61 KCAL/MOL
REMARK 924 INTRA-LIGAND FREE ENERGY PREDICTED BY IDOCK:   -0.50 KCAL/MOL
REMARK 927      BINDING AFFINITY PREDICTED BY RF-SCORE:    0.00 PKD
ROOT
HETATM    1  C   UNL     1     -10.843  10.025  67.643  1.00  0.00    -0.278 C  
HETATM    2  N   UNL     1      -9.733   9.373  68.321  1.00  0.00    -0.143 N  
HETATM    3  C   UNL     1      -9.925   8.796  69.614  1.00  0.00    -0.191 A  
HETATM    4  C   UNL     1      -9.200   7.677  70.077  1.00  0.00    -0.151 A  
HETATM    5  C   UNL     1      -9.392   7.194  71.385  1.00  0.00    -0.155 A  
HETATM    6  C   UNL     1      -8.255   6.915  69.201  1.00  0.00    -0.121 C  
HETATM    7  N   UNL     1      -7.352   7.469  68.463  1.00  0.00    -0.096 NA 
HETATM    8  C   UNL     1     -10.346   7.775  72.212  1.00  0.00    -0.237 A  
HETATM    9  O   UNL     1      -8.367   9.956  66.555  1.00  0.00    -0.123 OA 
HETATM   10  H   UNL     1      -5.997  10.323  67.834  1.00  0.00     0.000 HD 
HETATM   11  H   UNL     1      -6.721   6.902  67.898  1.00  0.00     0.000 HD 
HETATM   12  C   UNL     1     -11.097   8.852  71.764  1.00  0.00    -0.433 A  
HETATM   13 CL   UNL     1     -10.615   7.140  73.788  1.00  0.00    -0.387 Cl 
HETATM   14  C   UNL     1      -7.257   8.921  68.454  1.00  0.00    -0.078 C  
HETATM   15  C   UNL     1     -10.881   9.362  70.479  1.00  0.00    -0.336 A  
HETATM   16  O   UNL     1      -6.060   9.375  67.839  1.00  0.00    -0.052 OA 
HETATM   17  C   UNL     1      -8.492   9.451  67.678  1.00  0.00    -0.119 C  
ENDROOT
BRANCH   6  18
HETATM   18  C   UNL     1      -8.324   5.412  69.178  1.00  0.00    -0.097 A  
HETATM   19  C   UNL     1      -7.313   4.612  69.724  1.00  0.00    -0.054 A  
HETATM   20  C   UNL     1      -8.498   2.621  69.025  1.00  0.00    -0.100 A  
HETATM   21  C   UNL     1      -7.396   3.220  69.635  1.00  0.00    -0.045 A  
HETATM   22  C   UNL     1      -9.527   3.411  68.514  1.00  0.00    -0.209 A  
HETATM   23  C   UNL     1      -9.443   4.801  68.594  1.00  0.00    -0.208 A  
ENDBRANCH   6  18
TORSDOF 1
ENDMDL
MODEL      124
REMARK 921   NORMALIZED FREE ENERGY PREDICTED BY IDOCK:   -3.58 KCAL/MOL
REMARK 922        TOTAL FREE ENERGY PREDICTED BY IDOCK:   -4.08 KCAL/MOL
REMARK 923 INTER-LIGAND FREE ENERGY PREDICTED BY IDOCK:   -3.58 KCAL/MOL
REMARK 924 INTRA-LIGAND FREE ENERGY PREDICTED BY IDOCK:   -0.50 KCAL/MOL
REMARK 927      BINDING AFFINITY PREDICTED BY RF-SCORE:    0.00 PKD
ROOT
HETATM    1  C   UNL     1     -10.783   9.664  67.298  1.00  0.00    -0.214 C  
HETATM    2  N   UNL     1      -9.929   8.653  67.903  1.00  0.00    -0.178 N  
HETATM    3  C   UNL     1      -8.861   9.044  68.767  1.00  0.00    -0.137 A  
HETATM    4  C   UNL     1      -8.398   8.245  69.835  1.00  0.00    -0.125 A  
HETATM    5  C   UNL     1      -7.299   8.659  70.611  1.00  0.00    -0.064 A  
HETATM    6  C   UNL     1      -9.076   6.973  70.237  1.00  0.00    -0.156 C  
HETATM    7  N   UNL     1      -9.420   6.047  69.406  1.00  0.00    -0.133 NA 
HETATM    8  C   UNL     1      -6.700   9.891  70.375  1.00  0.00    -0.136 A  
HETATM    9  O   UNL     1     -11.104   7.034  66.752  1.00  0.00    -0.289 OA 
HETATM   10  H   UNL     1      -9.152   5.195  66.311  1.00  0.00     0.000 HD 
HETATM   11  H   UNL     1      -9.862   5.189  69.735  1.00  0.00     0.000 HD 
HETATM   12  C   UNL     1      -7.164  10.709  69.354  1.00  0.00    -0.126 A  
HETATM   13 CL   UNL     1      -5.396  10.415  71.366  1.00  0.00    -0.081 Cl 
HETATM   14  C   UNL     1      -9.161   6.254  67.989  1.00  0.00    -0.116 C  
HETATM   15  C   UNL     1      -8.229  10.284  68.553  1.00  0.00    -0.111 A  
HETATM   16  O   UNL     1      -9.321   5.060  67.236  1.00  0.00    -0.118 OA 
HETATM   17  C   UNL     1     -10.164   7.333  67.501  1.00  0.00    -0.221 C  
ENDROOT
BRANCH   6  18
HETATM   18  C   UNL     1      -9.364   6.722  71.692  1.00  0.00    -0.151 A  
HETATM   19  C   UNL     1      -8.698   5.730  72.423  1.00  0.00    -0.128 A  
HETATM   20  C   UNL     1     -10.017   6.272  74.379  1.00  0.00    -0.346 A  
HETATM   21  C   UNL     1      -9.035   5.499  73.760  1.00  0.00    -0.124 A  
HETATM   22  C   UNL     1     -10.655   7.288  73.669  1.00  0.00    -0.353 A  
HETATM   23  C   UNL     1     -10.327   7.515  72.332  1.00  0.00    -0.277 A  
ENDBRANCH   6  18
TORSDOF 1
ENDMDL
MODEL      125
REMARK 921   NORMALIZED FREE ENERGY PREDICTED BY IDOCK:   -3.55 KCAL/MOL
REMARK 922        TOTAL FREE ENERGY PREDICTED BY IDOCK:   -4.04 KCAL/MOL
REMARK 923 INTER-LIGAND FREE ENERGY PREDICTED BY IDOCK:   -3.81 KCAL/MOL
REMARK 924 INTRA-LIGAND FREE ENERGY PREDICTED BY IDOCK:   -0.24 KCAL/MOL
REMARK 927      BINDING AFFINITY PREDICTED BY RF-SCORE:    0.00 PKD
ROOT
HETATM    1  C   UNL     1      -6.523  12.563  69.651  1.00  0.00    -0.057 C  
HETATM    2  N   UNL     1      -7.589  11.864  68.949  1.00  0.00    -0.080 N  
HETATM    3  C   UNL     1      -8.387  12.558  67.989  1.00  0.00    -0.171 A  
HETATM    4  C   UNL     1      -8.971  11.929  66.868  1.00  0.00    -0.196 A  
HETATM    5  C   UNL     1      -9.799  12.656  65.993  1.00  0.00    -0.260 A  
HETATM    6  C   UNL     1      -8.696  10.500  66.517  1.00  0.00    -0.139 C  
HETATM    7  N   UNL     1      -8.748   9.528  67.365  1.00  0.00    -0.125 NA 
HETATM    8  C   UNL     1      -9.996  14.019  66.186  1.00  0.00    -0.312 A  
HETATM    9  O   UNL     1      -7.110   9.977  70.188  1.00  0.00    -0.125 OA 
HETATM   10  H   UNL     1      -9.578   8.861  70.405  1.00  0.00     0.000 HD 
HETATM   11  H   UNL     1      -8.569   8.569  67.069  1.00  0.00     0.000 HD 
HETATM   12  C   UNL     1      -9.401  14.666  67.259  1.00  0.00    -0.212 A  
HETATM   13 CL   UNL     1     -10.961  14.910  65.077  1.00  0.00    -0.404 Cl 
HETATM   14  C   UNL     1      -9.066   9.831  68.752  1.00  0.00    -0.136 C  
HETATM   15  C   UNL     1      -8.611  13.939  68.156  1.00  0.00    -0.180 A  
HETATM   16  O   UNL     1      -9.369   8.663  69.500  1.00  0.00    -0.152 OA 
HETATM   17  C   UNL     1      -7.827  10.546  69.354  1.00  0.00    -0.147 C  
ENDROOT
BRANCH   6  18
HETATM   18  C   UNL     1      -8.359  10.145  65.095  1.00  0.00    -0.163 A  
HETATM   19  C   UNL     1      -7.038   9.968  64.665  1.00  0.00    -0.140 A  
HETATM   20  C   UNL     1      -7.817   9.558  62.410  1.00  0.00    -0.122 A  
HETATM   21  C   UNL     1      -6.770   9.688  63.321  1.00  0.00    -0.111 A  
HETATM   22  C   UNL     1      -9.136   9.692  62.840  1.00  0.00    -0.241 A  
HETATM   23  C   UNL     1      -9.407   9.981  64.178  1.00  0.00    -0.335 A  
ENDBRANCH   6  18
TORSDOF 1
ENDMDL
MODEL      126
REMARK 921   NORMALIZED FREE ENERGY PREDICTED BY IDOCK:   -3.53 KCAL/MOL
REMARK 922        TOTAL FREE ENERGY PREDICTED BY IDOCK:   -4.02 KCAL/MOL
REMARK 923 INTER-LIGAND FREE ENERGY PREDICTED BY IDOCK:   -3.56 KCAL/MOL
REMARK 924 INTRA-LIGAND FREE ENERGY PREDICTED BY IDOCK:   -0.46 KCAL/MOL
REMARK 927      BINDING AFFINITY PREDICTED BY RF-SCORE:    0.00 PKD
ROOT
HETATM    1  C   UNL     1      -8.075   5.170  71.941  1.00  0.00    -0.116 C  
HETATM    2  N   UNL     1      -8.817   6.314  71.433  1.00  0.00    -0.138 N  
HETATM    3  C   UNL     1      -8.139   7.541  71.159  1.00  0.00    -0.100 A  
HETATM    4  C   UNL     1      -8.551   8.444  70.155  1.00  0.00    -0.131 A  
HETATM    5  C   UNL     1      -7.877   9.668  69.977  1.00  0.00    -0.173 A  
HETATM    6  C   UNL     1      -9.660   8.132  69.201  1.00  0.00    -0.157 C  
HETATM    7  N   UNL     1     -10.810   7.668  69.560  1.00  0.00    -0.371 NA 
HETATM    8  C   UNL     1      -6.757   9.968  70.745  1.00  0.00    -0.008 A  
HETATM    9  O   UNL     1     -10.755   5.070  71.585  1.00  0.00    -0.165 OA 
HETATM   10  H   UNL     1     -12.567   7.006  72.178  1.00  0.00     0.000 HD 
HETATM   11  H   UNL     1     -11.539   7.490  68.870  1.00  0.00     0.000 HD 
HETATM   12  C   UNL     1      -6.313   9.077  71.711  1.00  0.00    -0.049 A  
HETATM   13 CL   UNL     1      -5.906  11.438  70.479  1.00  0.00    -0.149 Cl 
HETATM   14  C   UNL     1     -11.042   7.405  70.972  1.00  0.00    -0.258 C  
HETATM   15  C   UNL     1      -7.004   7.879  71.921  1.00  0.00    -0.070 A  
HETATM   16  O   UNL     1     -12.415   7.178  71.255  1.00  0.00    -0.356 OA 
HETATM   17  C   UNL     1     -10.205   6.152  71.342  1.00  0.00    -0.205 C  
ENDROOT
BRANCH   6  18
HETATM   18  C   UNL     1      -9.458   8.386  67.731  1.00  0.00    -0.171 A  
HETATM   19  C   UNL     1      -9.985   9.515  67.092  1.00  0.00    -0.261 A  
HETATM   20  C   UNL     1      -9.099   8.743  64.977  1.00  0.00    -0.047 A  
HETATM   21  C   UNL     1      -9.815   9.684  65.715  1.00  0.00    -0.373 A  
HETATM   22  C   UNL     1      -8.537   7.637  65.614  1.00  0.00    -0.142 A  
HETATM   23  C   UNL     1      -8.713   7.461  66.987  1.00  0.00    -0.123 A  
ENDBRANCH   6  18
TORSDOF 1
ENDMDL
MODEL      127
REMARK 921   NORMALIZED FREE ENERGY PREDICTED BY IDOCK:   -3.39 KCAL/MOL
REMARK 922        TOTAL FREE ENERGY PREDICTED BY IDOCK:   -3.88 KCAL/MOL
REMARK 923 INTER-LIGAND FREE ENERGY PREDICTED BY IDOCK:   -3.40 KCAL/MOL
REMARK 924 INTRA-LIGAND FREE ENERGY PREDICTED BY IDOCK:   -0.47 KCAL/MOL
REMARK 927      BINDING AFFINITY PREDICTED BY RF-SCORE:    0.00 PKD
ROOT
HETATM    1  C   UNL     1      -7.152  11.718  68.528  1.00  0.00    -0.091 C  
HETATM    2  N   UNL     1      -8.094  10.997  67.687  1.00  0.00    -0.114 N  
HETATM    3  C   UNL     1      -7.625  10.263  66.555  1.00  0.00    -0.113 A  
HETATM    4  C   UNL     1      -8.262   9.101  66.068  1.00  0.00    -0.115 A  
HETATM    5  C   UNL     1      -7.786   8.459  64.910  1.00  0.00    -0.121 A  
HETATM    6  C   UNL     1      -9.415   8.462  66.777  1.00  0.00    -0.197 C  
HETATM    7  N   UNL     1     -10.445   9.111  67.208  1.00  0.00    -0.267 NA 
HETATM    8  C   UNL     1      -6.643   8.925  64.271  1.00  0.00    -0.078 A  
HETATM    9  O   UNL     1      -9.815  11.806  68.995  1.00  0.00    -0.065 OA 
HETATM   10  H   UNL     1     -11.801  12.032  67.155  1.00  0.00     0.000 HD 
HETATM   11  H   UNL     1     -11.212   8.623  67.669  1.00  0.00     0.000 HD 
HETATM   12  C   UNL     1      -5.978  10.042  64.756  1.00  0.00    -0.113 A  
HETATM   13 CL   UNL     1      -6.035   8.098  62.891  1.00  0.00    -0.076 Cl 
HETATM   14  C   UNL     1     -10.485  10.553  67.022  1.00  0.00    -0.249 C  
HETATM   15  C   UNL     1      -6.472  10.709  65.882  1.00  0.00    -0.121 A  
HETATM   16  O   UNL     1     -11.775  11.090  67.277  1.00  0.00    -0.504 OA 
HETATM   17  C   UNL     1      -9.448  11.164  68.002  1.00  0.00    -0.174 C  
ENDROOT
BRANCH   6  18
HETATM   18  C   UNL     1      -9.410   6.973  66.993  1.00  0.00    -0.174 A  
HETATM   19  C   UNL     1      -8.379   6.325  67.684  1.00  0.00    -0.117 A  
HETATM   20  C   UNL     1      -9.443   4.188  67.285  1.00  0.00    -0.220 A  
HETATM   21  C   UNL     1      -8.391   4.933  67.817  1.00  0.00    -0.104 A  
HETATM   22  C   UNL     1     -10.493   4.831  66.631  1.00  0.00    -0.216 A  
HETATM   23  C   UNL     1     -10.479   6.219  66.489  1.00  0.00    -0.174 A  
ENDBRANCH   6  18
TORSDOF 1
ENDMDL
MODEL      128
REMARK 921   NORMALIZED FREE ENERGY PREDICTED BY IDOCK:   -3.21 KCAL/MOL
REMARK 922        TOTAL FREE ENERGY PREDICTED BY IDOCK:   -3.69 KCAL/MOL
REMARK 923 INTER-LIGAND FREE ENERGY PREDICTED BY IDOCK:   -3.19 KCAL/MOL
REMARK 924 INTRA-LIGAND FREE ENERGY PREDICTED BY IDOCK:   -0.50 KCAL/MOL
REMARK 927      BINDING AFFINITY PREDICTED BY RF-SCORE:    0.00 PKD
ROOT
HETATM    1  C   UNL     1      -8.688  11.301  62.402  1.00  0.00    -0.177 C  
HETATM    2  N   UNL     1      -9.140  10.792  63.688  1.00  0.00    -0.208 N  
HETATM    3  C   UNL     1      -8.741   9.491  64.121  1.00  0.00    -0.215 A  
HETATM    4  C   UNL     1      -8.576   9.145  65.480  1.00  0.00    -0.192 A  
HETATM    5  C   UNL     1      -8.242   7.827  65.845  1.00  0.00    -0.128 A  
HETATM    6  C   UNL     1      -8.679  10.153  66.582  1.00  0.00    -0.126 C  
HETATM    7  N   UNL     1      -9.642  11.006  66.690  1.00  0.00    -0.186 NA 
HETATM    8  C   UNL     1      -8.006   6.868  64.867  1.00  0.00    -0.124 A  
HETATM    9  O   UNL     1     -10.363  12.728  63.976  1.00  0.00    -0.415 OA 
HETATM   10  H   UNL     1     -12.484  11.793  65.394  1.00  0.00     0.000 HD 
HETATM   11  H   UNL     1      -9.674  11.659  67.472  1.00  0.00     0.000 HD 
HETATM   12  C   UNL     1      -8.125   7.197  63.524  1.00  0.00     0.001 A  
HETATM   13 CL   UNL     1      -7.541   5.277  65.321  1.00  0.00    -0.080 Cl 
HETATM   14  C   UNL     1     -10.680  11.014  65.671  1.00  0.00    -0.148 C  
HETATM   15  C   UNL     1      -8.498   8.494  63.157  1.00  0.00    -0.061 A  
HETATM   16  O   UNL     1     -11.806  11.788  66.059  1.00  0.00    -0.446 OA 
HETATM   17  C   UNL     1     -10.045  11.603  64.383  1.00  0.00    -0.279 C  
ENDROOT
BRANCH   6  18
HETATM   18  C   UNL     1      -7.623  10.180  67.654  1.00  0.00    -0.090 A  
HETATM   19  C   UNL     1      -7.899   9.820  68.979  1.00  0.00    -0.087 A  
HETATM   20  C   UNL     1      -5.616  10.331  69.601  1.00  0.00    -0.038 A  
HETATM   21  C   UNL     1      -6.899   9.909  69.952  1.00  0.00    -0.096 A  
HETATM   22  C   UNL     1      -5.325  10.651  68.277  1.00  0.00    -0.033 A  
HETATM   23  C   UNL     1      -6.324  10.572  67.305  1.00  0.00    -0.062 A  
ENDBRANCH   6  18
TORSDOF 1
ENDMDL
MODEL      129
REMARK 921   NORMALIZED FREE ENERGY PREDICTED BY IDOCK:   -3.12 KCAL/MOL
REMARK 922        TOTAL FREE ENERGY PREDICTED BY IDOCK:   -3.60 KCAL/MOL
REMARK 923 INTER-LIGAND FREE ENERGY PREDICTED BY IDOCK:   -3.62 KCAL/MOL
REMARK 924 INTRA-LIGAND FREE ENERGY PREDICTED BY IDOCK:    0.02 KCAL/MOL
REMARK 927      BINDING AFFINITY PREDICTED BY RF-SCORE:    0.00 PKD
ROOT
HETATM    1  C   UNL     1     -11.197   9.467  71.417  1.00  0.00    -0.381 C  
HETATM    2  N   UNL     1     -10.063   8.742  70.865  1.00  0.00    -0.203 N  
HETATM    3  C   UNL     1      -9.288   7.882  71.703  1.00  0.00    -0.148 A  
HETATM    4  C   UNL     1      -8.626   6.730  71.227  1.00  0.00    -0.125 A  
HETATM    5  C   UNL     1      -7.826   5.959  72.092  1.00  0.00    -0.103 A  
HETATM    6  C   UNL     1      -8.787   6.235  69.824  1.00  0.00    -0.140 C  
HETATM    7  N   UNL     1      -8.691   6.988  68.780  1.00  0.00    -0.127 NA 
HETATM    8  C   UNL     1      -7.734   6.288  73.439  1.00  0.00    -0.098 A  
HETATM    9  O   UNL     1     -10.442   9.777  68.838  1.00  0.00    -0.199 OA 
HETATM   10  H   UNL     1      -7.908   9.980  67.879  1.00  0.00     0.000 HD 
HETATM   11  H   UNL     1      -8.790   6.595  67.844  1.00  0.00     0.000 HD 
HETATM   12  C   UNL     1      -8.407   7.395  73.936  1.00  0.00    -0.209 A  
HETATM   13 CL   UNL     1      -6.802   5.305  74.499  1.00  0.00    -0.076 Cl 
HETATM   14  C   UNL     1      -8.437   8.408  68.968  1.00  0.00    -0.123 C  
HETATM   15  C   UNL     1      -9.169   8.189  73.072  1.00  0.00    -0.343 A  
HETATM   16  O   UNL     1      -8.074   9.052  67.756  1.00  0.00    -0.108 OA 
HETATM   17  C   UNL     1      -9.743   9.028  69.533  1.00  0.00    -0.170 C  
ENDROOT
BRANCH   6  18
HETATM   18  C   UNL     1      -9.054   4.774  69.586  1.00  0.00    -0.163 A  
HETATM   19  C   UNL     1      -9.381   3.897  70.629  1.00  0.00    -0.225 A  
HETATM   20  C   UNL     1      -9.461   2.052  69.065  1.00  0.00    -0.160 A  
HETATM   21  C   UNL     1      -9.571   2.537  70.368  1.00  0.00    -0.119 A  
HETATM   22  C   UNL     1      -9.175   2.925  68.017  1.00  0.00    -0.248 A  
HETATM   23  C   UNL     1      -8.976   4.282  68.276  1.00  0.00    -0.151 A  
ENDBRANCH   6  18
TORSDOF 1
ENDMDL
MODEL      130
REMARK 921   NORMALIZED FREE ENERGY PREDICTED BY IDOCK:   -2.74 KCAL/MOL
REMARK 922        TOTAL FREE ENERGY PREDICTED BY IDOCK:   -3.19 KCAL/MOL
REMARK 923 INTER-LIGAND FREE ENERGY PREDICTED BY IDOCK:   -2.70 KCAL/MOL
REMARK 924 INTRA-LIGAND FREE ENERGY PREDICTED BY IDOCK:   -0.49 KCAL/MOL
REMARK 927      BINDING AFFINITY PREDICTED BY RF-SCORE:    0.00 PKD
ROOT
HETATM    1  C   UNL     1     -10.901   6.984  66.980  1.00  0.00    -0.343 C  
HETATM    2  N   UNL     1      -9.664   6.680  67.682  1.00  0.00    -0.122 N  
HETATM    3  C   UNL     1      -8.905   7.731  68.282  1.00  0.00    -0.129 A  
HETATM    4  C   UNL     1      -8.109   7.550  69.434  1.00  0.00    -0.128 A  
HETATM    5  C   UNL     1      -7.335   8.612  69.939  1.00  0.00    -0.052 A  
HETATM    6  C   UNL     1      -8.094   6.268  70.205  1.00  0.00    -0.116 C  
HETATM    7  N   UNL     1      -7.960   5.104  69.663  1.00  0.00    -0.078 NA 
HETATM    8  C   UNL     1      -7.399   9.868  69.348  1.00  0.00    -0.091 A  
HETATM    9  O   UNL     1      -9.931   4.462  67.103  1.00  0.00    -0.196 OA 
HETATM   10  H   UNL     1      -7.342   3.680  66.840  1.00  0.00     0.000 HD 
HETATM   11  H   UNL     1      -7.937   4.261  70.237  1.00  0.00     0.000 HD 
HETATM   12  C   UNL     1      -8.204  10.078  68.238  1.00  0.00    -0.106 A  
HETATM   13 CL   UNL     1      -6.495  11.174  70.009  1.00  0.00    -0.145 Cl 
HETATM   14  C   UNL     1      -7.843   5.020  68.215  1.00  0.00    -0.086 C  
HETATM   15  C   UNL     1      -8.943   9.015  67.706  1.00  0.00    -0.132 A  
HETATM   16  O   UNL     1      -7.419   3.735  67.786  1.00  0.00    -0.065 OA 
HETATM   17  C   UNL     1      -9.242   5.346  67.630  1.00  0.00    -0.112 C  
ENDROOT
BRANCH   6  18
HETATM   18  C   UNL     1      -8.216   6.310  71.704  1.00  0.00    -0.118 A  
HETATM   19  C   UNL     1      -9.338   6.853  72.344  1.00  0.00    -0.149 A  
HETATM   20  C   UNL     1      -8.329   6.417  74.500  1.00  0.00    -0.139 A  
HETATM   21  C   UNL     1      -9.385   6.917  73.739  1.00  0.00    -0.224 A  
HETATM   22  C   UNL     1      -7.228   5.839  73.870  1.00  0.00    -0.086 A  
HETATM   23  C   UNL     1      -7.173   5.782  72.477  1.00  0.00    -0.086 A  
ENDBRANCH   6  18
TORSDOF 1
ENDMDL
MODEL      131
REMARK 921   NORMALIZED FREE ENERGY PREDICTED BY IDOCK:   -2.61 KCAL/MOL
REMARK 922        TOTAL FREE ENERGY PREDICTED BY IDOCK:   -3.05 KCAL/MOL
REMARK 923 INTER-LIGAND FREE ENERGY PREDICTED BY IDOCK:   -2.78 KCAL/MOL
REMARK 924 INTRA-LIGAND FREE ENERGY PREDICTED BY IDOCK:   -0.28 KCAL/MOL
REMARK 927      BINDING AFFINITY PREDICTED BY RF-SCORE:    0.00 PKD
ROOT
HETATM    1  C   UNL     1     -11.148   8.588  69.245  1.00  0.00     0.150 C  
HETATM    2  N   UNL     1     -10.176   7.517  69.399  1.00  0.00    -0.199 N  
HETATM    3  C   UNL     1      -9.152   7.618  70.390  1.00  0.00    -0.152 A  
HETATM    4  C   UNL     1      -8.589   6.497  71.037  1.00  0.00    -0.134 A  
HETATM    5  C   UNL     1      -7.538   6.660  71.960  1.00  0.00    -0.096 A  
HETATM    6  C   UNL     1      -9.108   5.109  70.834  1.00  0.00    -0.140 C  
HETATM    7  N   UNL     1      -9.349   4.593  69.676  1.00  0.00    -0.128 NA 
HETATM    8  C   UNL     1      -7.090   7.933  72.293  1.00  0.00    -0.081 A  
HETATM    9  O   UNL     1     -11.163   6.423  67.623  1.00  0.00    -0.337 OA 
HETATM   10  H   UNL     1      -9.014   5.174  66.525  1.00  0.00     0.000 HD 
HETATM   11  H   UNL     1      -9.686   3.633  69.592  1.00  0.00     0.000 HD 
HETATM   12  C   UNL     1      -7.656   9.051  71.697  1.00  0.00     0.016 A  
HETATM   13 CL   UNL     1      -5.846   8.125  73.465  1.00  0.00    -0.067 Cl 
HETATM   14  C   UNL     1      -9.131   5.410  68.492  1.00  0.00    -0.108 C  
HETATM   15  C   UNL     1      -8.671   8.893  70.748  1.00  0.00    -0.245 A  
HETATM   16  O   UNL     1      -9.157   4.641  67.298  1.00  0.00    -0.115 OA 
HETATM   17  C   UNL     1     -10.258   6.477  68.466  1.00  0.00    -0.172 C  
ENDROOT
BRANCH   6  18
HETATM   18  C   UNL     1      -9.351   4.232  72.033  1.00  0.00    -0.180 A  
HETATM   19  C   UNL     1      -8.319   3.515  72.652  1.00  0.00    -0.081 A  
HETATM   20  C   UNL     1      -9.905   2.566  74.214  1.00  0.00    -0.142 A  
HETATM   21  C   UNL     1      -8.601   2.674  73.732  1.00  0.00    -0.072 A  
HETATM   22  C   UNL     1     -10.930   3.307  73.629  1.00  0.00    -0.330 A  
HETATM   23  C   UNL     1     -10.653   4.141  72.544  1.00  0.00    -0.162 A  
ENDBRANCH   6  18
TORSDOF 1
ENDMDL
MODEL      132
REMARK 921   NORMALIZED FREE ENERGY PREDICTED BY IDOCK:   -2.60 KCAL/MOL
REMARK 922        TOTAL FREE ENERGY PREDICTED BY IDOCK:   -3.04 KCAL/MOL
REMARK 923 INTER-LIGAND FREE ENERGY PREDICTED BY IDOCK:   -2.56 KCAL/MOL
REMARK 924 INTRA-LIGAND FREE ENERGY PREDICTED BY IDOCK:   -0.48 KCAL/MOL
REMARK 927      BINDING AFFINITY PREDICTED BY RF-SCORE:    0.00 PKD
ROOT
HETATM    1  C   UNL     1      -7.598   8.534  62.915  1.00  0.00    -0.113 C  
HETATM    2  N   UNL     1      -8.282   8.637  64.196  1.00  0.00    -0.165 N  
HETATM    3  C   UNL     1      -8.351   7.502  65.061  1.00  0.00    -0.061 A  
HETATM    4  C   UNL     1      -8.405   7.604  66.468  1.00  0.00    -0.129 A  
HETATM    5  C   UNL     1      -8.536   6.450  67.262  1.00  0.00    -0.110 A  
HETATM    6  C   UNL     1      -8.261   8.911  67.183  1.00  0.00    -0.103 C  
HETATM    7  N   UNL     1      -8.907   9.982  66.862  1.00  0.00    -0.131 NA 
HETATM    8  C   UNL     1      -8.548   5.192  66.672  1.00  0.00    -0.110 A  
HETATM    9  O   UNL     1      -8.841  10.814  63.675  1.00  0.00    -0.179 OA 
HETATM   10  H   UNL     1     -11.247  11.041  64.917  1.00  0.00     0.000 HD 
HETATM   11  H   UNL     1      -8.786  10.843  67.395  1.00  0.00     0.000 HD 
HETATM   12  C   UNL     1      -8.458   5.066  65.293  1.00  0.00    -0.141 A  
HETATM   13 CL   UNL     1      -8.649   3.784  67.655  1.00  0.00    -0.104 Cl 
HETATM   14  C   UNL     1      -9.811   9.934  65.723  1.00  0.00    -0.287 C  
HETATM   15  C   UNL     1      -8.369   6.212  64.496  1.00  0.00    -0.021 A  
HETATM   16  O   UNL     1     -10.656  11.073  65.661  1.00  0.00    -0.252 OA 
HETATM   17  C   UNL     1      -8.928   9.852  64.449  1.00  0.00    -0.239 C  
ENDROOT
BRANCH   6  18
HETATM   18  C   UNL     1      -7.334   9.005  68.364  1.00  0.00    -0.078 A  
HETATM   19  C   UNL     1      -5.965   8.727  68.259  1.00  0.00    -0.042 A  
HETATM   20  C   UNL     1      -5.692   9.131  70.629  1.00  0.00    -0.036 A  
HETATM   21  C   UNL     1      -5.151   8.778  69.394  1.00  0.00    -0.035 A  
HETATM   22  C   UNL     1      -7.045   9.448  70.733  1.00  0.00    -0.119 A  
HETATM   23  C   UNL     1      -7.863   9.390  69.603  1.00  0.00    -0.105 A  
ENDBRANCH   6  18
TORSDOF 1
ENDMDL
MODEL      133
REMARK 921   NORMALIZED FREE ENERGY PREDICTED BY IDOCK:   -2.21 KCAL/MOL
REMARK 922        TOTAL FREE ENERGY PREDICTED BY IDOCK:   -2.63 KCAL/MOL
REMARK 923 INTER-LIGAND FREE ENERGY PREDICTED BY IDOCK:   -2.29 KCAL/MOL
REMARK 924 INTRA-LIGAND FREE ENERGY PREDICTED BY IDOCK:   -0.34 KCAL/MOL
REMARK 927      BINDING AFFINITY PREDICTED BY RF-SCORE:    0.00 PKD
ROOT
HETATM    1  C   UNL     1      -6.216   6.152  69.774  1.00  0.00    -0.027 C  
HETATM    2  N   UNL     1      -7.252   6.447  68.795  1.00  0.00    -0.082 N  
HETATM    3  C   UNL     1      -7.720   7.787  68.632  1.00  0.00    -0.118 A  
HETATM    4  C   UNL     1      -8.202   8.294  67.406  1.00  0.00    -0.121 A  
HETATM    5  C   UNL     1      -8.709   9.605  67.326  1.00  0.00    -0.136 A  
HETATM    6  C   UNL     1      -8.143   7.507  66.134  1.00  0.00    -0.116 C  
HETATM    7  N   UNL     1      -8.527   6.279  66.028  1.00  0.00    -0.137 NA 
HETATM    8  C   UNL     1      -8.678  10.436  68.439  1.00  0.00    -0.129 A  
HETATM    9  O   UNL     1      -7.365   4.196  68.300  1.00  0.00    -0.059 OA 
HETATM   10  H   UNL     1      -9.997   3.935  67.678  1.00  0.00     0.000 HD 
HETATM   11  H   UNL     1      -8.483   5.795  65.132  1.00  0.00     0.000 HD 
HETATM   12  C   UNL     1      -8.173   9.970  69.645  1.00  0.00    -0.185 A  
HETATM   13 CL   UNL     1      -9.244  12.055  68.316  1.00  0.00    -0.194 Cl 
HETATM   14  C   UNL     1      -9.025   5.602  67.215  1.00  0.00    -0.111 C  
HETATM   15  C   UNL     1      -7.707   8.655  69.741  1.00  0.00    -0.088 A  
HETATM   16  O   UNL     1      -9.671   4.377  66.902  1.00  0.00    -0.185 OA 
HETATM   17  C   UNL     1      -7.802   5.343  68.134  1.00  0.00    -0.092 C  
ENDROOT
BRANCH   6  18
HETATM   18  C   UNL     1      -7.630   8.169  64.884  1.00  0.00    -0.098 A  
HETATM   19  C   UNL     1      -6.525   9.030  64.897  1.00  0.00    -0.066 A  
HETATM   20  C   UNL     1      -6.789   9.419  62.523  1.00  0.00    -0.094 A  
HETATM   21  C   UNL     1      -6.116   9.662  63.719  1.00  0.00    -0.106 A  
HETATM   22  C   UNL     1      -7.864   8.532  62.495  1.00  0.00    -0.141 A  
HETATM   23  C   UNL     1      -8.281   7.906  63.670  1.00  0.00    -0.008 A  
ENDBRANCH   6  18
TORSDOF 1
ENDMDL
MODEL      134
REMARK 921   NORMALIZED FREE ENERGY PREDICTED BY IDOCK:   -1.90 KCAL/MOL
REMARK 922        TOTAL FREE ENERGY PREDICTED BY IDOCK:   -2.30 KCAL/MOL
REMARK 923 INTER-LIGAND FREE ENERGY PREDICTED BY IDOCK:   -1.93 KCAL/MOL
REMARK 924 INTRA-LIGAND FREE ENERGY PREDICTED BY IDOCK:   -0.37 KCAL/MOL
REMARK 927      BINDING AFFINITY PREDICTED BY RF-SCORE:    0.00 PKD
ROOT
HETATM    1  C   UNL     1      -6.220  21.044  69.190  1.00  0.00     0.216 C  
HETATM    2  N   UNL     1      -7.040  20.086  68.463  1.00  0.00    -0.299 N  
HETATM    3  C   UNL     1      -6.590  19.565  67.211  1.00  0.00    -0.191 A  
HETATM    4  C   UNL     1      -6.925  18.276  66.745  1.00  0.00    -0.222 A  
HETATM    5  C   UNL     1      -6.501  17.845  65.473  1.00  0.00    -0.125 A  
HETATM    6  C   UNL     1      -7.677  17.290  67.583  1.00  0.00    -0.184 C  
HETATM    7  N   UNL     1      -8.755  17.573  68.234  1.00  0.00    -0.263 NA 
HETATM    8  C   UNL     1      -5.692  18.661  64.691  1.00  0.00    -0.193 A  
HETATM    9  O   UNL     1      -8.649  20.282  70.105  1.00  0.00     0.869 OA 
HETATM   10  H   UNL     1     -10.917  19.925  68.652  1.00  0.00     0.000 HD 
HETATM   11  H   UNL     1      -9.240  16.858  68.776  1.00  0.00     0.000 HD 
HETATM   12  C   UNL     1      -5.319  19.918  65.147  1.00  0.00    -0.189 A  
HETATM   13 CL   UNL     1      -5.131  18.102  63.165  1.00  0.00     0.348 Cl 
HETATM   14  C   UNL     1      -9.264  18.935  68.177  1.00  0.00    -0.320 C  
HETATM   15  C   UNL     1      -5.772  20.367  66.392  1.00  0.00    -0.197 A  
HETATM   16  O   UNL     1     -10.585  19.035  68.689  1.00  0.00    -0.162 OA 
HETATM   17  C   UNL     1      -8.297  19.813  69.015  1.00  0.00    -0.039 C  
ENDROOT
BRANCH   6  18
HETATM   18  C   UNL     1      -7.182  15.872  67.671  1.00  0.00    -0.182 A  
HETATM   19  C   UNL     1      -8.034  14.774  67.500  1.00  0.00    -0.207 A  
HETATM   20  C   UNL     1      -6.190  13.265  67.926  1.00  0.00    -0.144 A  
HETATM   21  C   UNL     1      -7.539  13.474  67.641  1.00  0.00    -0.181 A  
HETATM   22  C   UNL     1      -5.328  14.352  68.058  1.00  0.00    -0.110 A  
HETATM   23  C   UNL     1      -5.821  15.652  67.927  1.00  0.00    -0.155 A  
ENDBRANCH   6  18
TORSDOF 1
ENDMDL
MODEL      135
REMARK 921   NORMALIZED FREE ENERGY PREDICTED BY IDOCK:   -1.64 KCAL/MOL
REMARK 922        TOTAL FREE ENERGY PREDICTED BY IDOCK:   -2.03 KCAL/MOL
REMARK 923 INTER-LIGAND FREE ENERGY PREDICTED BY IDOCK:   -1.71 KCAL/MOL
REMARK 924 INTRA-LIGAND FREE ENERGY PREDICTED BY IDOCK:   -0.32 KCAL/MOL
REMARK 927      BINDING AFFINITY PREDICTED BY RF-SCORE:    0.00 PKD
ROOT
HETATM    1  C   UNL     1     -11.936   2.293  73.573  1.00  0.00     0.062 C  
HETATM    2  N   UNL     1     -11.010   3.374  73.268  1.00  0.00    -0.186 N  
HETATM    3  C   UNL     1      -9.602   3.137  73.297  1.00  0.00    -0.101 A  
HETATM    4  C   UNL     1      -8.684   3.831  72.479  1.00  0.00    -0.104 A  
HETATM    5  C   UNL     1      -7.301   3.596  72.600  1.00  0.00    -0.054 A  
HETATM    6  C   UNL     1      -9.123   4.787  71.414  1.00  0.00    -0.135 C  
HETATM    7  N   UNL     1      -9.998   5.718  71.598  1.00  0.00    -0.171 NA 
HETATM    8  C   UNL     1      -6.830   2.629  73.480  1.00  0.00    -0.027 A  
HETATM    9  O   UNL     1     -12.813   4.796  73.040  1.00  0.00     0.295 OA 
HETATM   10  H   UNL     1     -11.738   7.136  73.909  1.00  0.00     0.000 HD 
HETATM   11  H   UNL     1     -10.247   6.355  70.842  1.00  0.00     0.000 HD 
HETATM   12  C   UNL     1      -7.718   1.908  74.266  1.00  0.00    -0.034 A  
HETATM   13 CL   UNL     1      -5.144   2.308  73.577  1.00  0.00     0.000 Cl 
HETATM   14  C   UNL     1     -10.620   5.838  72.908  1.00  0.00    -0.232 C  
HETATM   15  C   UNL     1      -9.089   2.167  74.180  1.00  0.00    -0.081 A  
HETATM   16  O   UNL     1     -11.332   7.058  73.053  1.00  0.00    -0.238 OA 
HETATM   17  C   UNL     1     -11.586   4.633  73.061  1.00  0.00    -0.112 C  
ENDROOT
BRANCH   6  18
HETATM   18  C   UNL     1      -8.507   4.694  70.044  1.00  0.00    -0.089 A  
HETATM   19  C   UNL     1      -7.306   5.339  69.723  1.00  0.00    -0.064 A  
HETATM   20  C   UNL     1      -7.469   4.530  67.448  1.00  0.00    -0.074 A  
HETATM   21  C   UNL     1      -6.797   5.266  68.423  1.00  0.00    -0.056 A  
HETATM   22  C   UNL     1      -8.643   3.852  67.771  1.00  0.00    -0.110 A  
HETATM   23  C   UNL     1      -9.158   3.931  69.066  1.00  0.00    -0.198 A  
ENDBRANCH   6  18
TORSDOF 1
ENDMDL
MODEL      136
REMARK 921   NORMALIZED FREE ENERGY PREDICTED BY IDOCK:   -1.17 KCAL/MOL
REMARK 922        TOTAL FREE ENERGY PREDICTED BY IDOCK:   -1.52 KCAL/MOL
REMARK 923 INTER-LIGAND FREE ENERGY PREDICTED BY IDOCK:   -1.03 KCAL/MOL
REMARK 924 INTRA-LIGAND FREE ENERGY PREDICTED BY IDOCK:   -0.50 KCAL/MOL
REMARK 927      BINDING AFFINITY PREDICTED BY RF-SCORE:    0.00 PKD
ROOT
HETATM    1  C   UNL     1      -7.282  14.507  71.233  1.00  0.00     1.949 C  
HETATM    2  N   UNL     1      -7.320  14.755  69.800  1.00  0.00    -0.121 N  
HETATM    3  C   UNL     1      -8.291  15.649  69.255  1.00  0.00    -0.256 A  
HETATM    4  C   UNL     1      -8.068  16.418  68.092  1.00  0.00    -0.165 A  
HETATM    5  C   UNL     1      -9.089  17.234  67.570  1.00  0.00    -0.223 A  
HETATM    6  C   UNL     1      -6.741  16.459  67.400  1.00  0.00    -0.169 C  
HETATM    7  N   UNL     1      -6.051  15.409  67.103  1.00  0.00    -0.256 NA 
HETATM    8  C   UNL     1     -10.306  17.342  68.232  1.00  0.00    -0.361 A  
HETATM    9  O   UNL     1      -5.606  13.232  69.535  1.00  0.00    -0.079 OA 
HETATM   10  H   UNL     1      -6.211  12.192  67.099  1.00  0.00     0.000 HD 
HETATM   11  H   UNL     1      -5.160  15.493  66.614  1.00  0.00     0.000 HD 
HETATM   12  C   UNL     1     -10.533  16.625  69.398  1.00  0.00    -0.320 A  
HETATM   13 CL   UNL     1     -11.526  18.387  67.619  1.00  0.00     0.539 Cl 
HETATM   14  C   UNL     1      -6.572  14.105  67.482  1.00  0.00    -0.076 C  
HETATM   15  C   UNL     1      -9.537  15.780  69.898  1.00  0.00    -0.030 A  
HETATM   16  O   UNL     1      -5.870  13.044  66.852  1.00  0.00    -0.163 OA 
HETATM   17  C   UNL     1      -6.437  13.995  69.024  1.00  0.00    -0.101 C  
ENDROOT
BRANCH   6  18
HETATM   18  C   UNL     1      -6.165  17.789  66.995  1.00  0.00    -0.188 A  
HETATM   19  C   UNL     1      -5.691  18.712  67.936  1.00  0.00    -0.175 A  
HETATM   20  C   UNL     1      -5.177  20.272  66.158  1.00  0.00    -0.182 A  
HETATM   21  C   UNL     1      -5.210  19.956  67.516  1.00  0.00    -0.174 A  
HETATM   22  C   UNL     1      -5.610  19.342  65.214  1.00  0.00    -0.208 A  
HETATM   23  C   UNL     1      -6.099  18.103  65.631  1.00  0.00    -0.265 A  
ENDBRANCH   6  18
TORSDOF 1
ENDMDL
MODEL      137
REMARK 921   NORMALIZED FREE ENERGY PREDICTED BY IDOCK:   -0.51 KCAL/MOL
REMARK 922        TOTAL FREE ENERGY PREDICTED BY IDOCK:   -0.83 KCAL/MOL
REMARK 923 INTER-LIGAND FREE ENERGY PREDICTED BY IDOCK:   -0.46 KCAL/MOL
REMARK 924 INTRA-LIGAND FREE ENERGY PREDICTED BY IDOCK:   -0.38 KCAL/MOL
REMARK 927      BINDING AFFINITY PREDICTED BY RF-SCORE:    0.00 PKD
ROOT
HETATM    1  C   UNL     1      -6.084  13.926  66.955  1.00  0.00     1.606 C  
HETATM    2  N   UNL     1      -6.687  14.621  68.082  1.00  0.00    -0.116 N  
HETATM    3  C   UNL     1      -7.595  15.700  67.853  1.00  0.00    -0.131 A  
HETATM    4  C   UNL     1      -8.654  16.018  68.729  1.00  0.00    -0.223 A  
HETATM    5  C   UNL     1      -9.475  17.134  68.480  1.00  0.00    -0.282 A  
HETATM    6  C   UNL     1      -9.000  15.168  69.912  1.00  0.00     0.187 C  
HETATM    7  N   UNL     1      -8.134  14.737  70.766  1.00  0.00     1.039 NA 
HETATM    8  C   UNL     1      -9.291  17.896  67.332  1.00  0.00    -0.257 A  
HETATM    9  O   UNL     1      -5.457  13.287  69.507  1.00  0.00    -0.077 OA 
HETATM   10  H   UNL     1      -5.026  14.999  71.574  1.00  0.00     0.000 HD 
HETATM   11  H   UNL     1      -8.426  14.175  71.566  1.00  0.00     0.000 HD 
HETATM   12  C   UNL     1      -8.280  17.577  66.437  1.00  0.00    -0.305 A  
HETATM   13 CL   UNL     1     -10.337  19.221  67.006  1.00  0.00    -0.484 Cl 
HETATM   14  C   UNL     1      -6.732  15.068  70.562  1.00  0.00     0.166 C  
HETATM   15  C   UNL     1      -7.434  16.495  66.702  1.00  0.00    -0.296 A  
HETATM   16  O   UNL     1      -5.942  14.782  71.707  1.00  0.00     0.128 OA 
HETATM   17  C   UNL     1      -6.242  14.232  69.350  1.00  0.00    -0.111 C  
ENDROOT
BRANCH   6  18
HETATM   18  C   UNL     1     -10.438  14.800  70.156  1.00  0.00     0.078 A  
HETATM   19  C   UNL     1     -11.030  13.677  69.564  1.00  0.00    -0.054 A  
HETATM   20  C   UNL     1     -13.143  14.230  70.607  1.00  0.00    -0.247 A  
HETATM   21  C   UNL     1     -12.383  13.402  69.780  1.00  0.00    -0.219 A  
HETATM   22  C   UNL     1     -12.550  15.326  71.231  1.00  0.00    -0.449 A  
HETATM   23  C   UNL     1     -11.202  15.608  71.010  1.00  0.00    -0.411 A  
ENDBRANCH   6  18
TORSDOF 1
ENDMDL
MODEL      138
REMARK 921   NORMALIZED FREE ENERGY PREDICTED BY IDOCK:    0.12 KCAL/MOL
REMARK 922        TOTAL FREE ENERGY PREDICTED BY IDOCK:   -0.16 KCAL/MOL
REMARK 923 INTER-LIGAND FREE ENERGY PREDICTED BY IDOCK:    0.28 KCAL/MOL
REMARK 924 INTRA-LIGAND FREE ENERGY PREDICTED BY IDOCK:   -0.44 KCAL/MOL
REMARK 927      BINDING AFFINITY PREDICTED BY RF-SCORE:    0.00 PKD
ROOT
HETATM    1  C   UNL     1      -6.887  14.846  70.792  1.00  0.00     0.498 C  
HETATM    2  N   UNL     1      -7.821  14.816  69.677  1.00  0.00    -0.051 N  
HETATM    3  C   UNL     1      -9.205  15.095  69.897  1.00  0.00     0.138 A  
HETATM    4  C   UNL     1     -10.039  15.684  68.923  1.00  0.00    -0.217 A  
HETATM    5  C   UNL     1     -11.410  15.875  69.179  1.00  0.00    -0.366 A  
HETATM    6  C   UNL     1      -9.513  16.189  67.616  1.00  0.00    -0.220 C  
HETATM    7  N   UNL     1      -8.725  15.514  66.847  1.00  0.00    -0.229 NA 
HETATM    8  C   UNL     1     -11.943  15.546  70.420  1.00  0.00    -0.367 A  
HETATM    9  O   UNL     1      -6.087  14.175  68.296  1.00  0.00    -0.096 OA 
HETATM   10  H   UNL     1      -7.400  12.597  66.516  1.00  0.00     0.000 HD 
HETATM   11  H   UNL     1      -8.411  15.898  65.957  1.00  0.00     0.000 HD 
HETATM   12  C   UNL     1     -11.132  15.001  71.406  1.00  0.00    -0.161 A  
HETATM   13 CL   UNL     1     -13.606  15.838  70.744  1.00  0.00    -0.005 Cl 
HETATM   14  C   UNL     1      -8.296  14.193  67.281  1.00  0.00    -0.196 C  
HETATM   15  C   UNL     1      -9.778  14.770  71.142  1.00  0.00     2.375 A  
HETATM   16  O   UNL     1      -7.680  13.459  66.233  1.00  0.00     1.109 OA 
HETATM   17  C   UNL     1      -7.294  14.404  68.447  1.00  0.00    -0.117 C  
ENDROOT
BRANCH   6  18
HETATM   18  C   UNL     1      -9.931  17.551  67.133  1.00  0.00    -0.314 A  
HETATM   19  C   UNL     1     -10.545  17.745  65.889  1.00  0.00    -0.205 A  
HETATM   20  C   UNL     1     -10.607  20.132  66.281  1.00  0.00    -0.359 A  
HETATM   21  C   UNL     1     -10.869  19.035  65.461  1.00  0.00    -0.025 A  
HETATM   22  C   UNL     1     -10.033  19.943  67.536  1.00  0.00    -0.552 A  
HETATM   23  C   UNL     1      -9.699  18.657  67.963  1.00  0.00    -0.355 A  
ENDBRANCH   6  18
TORSDOF 1
ENDMDL
MODEL      139
REMARK 921   NORMALIZED FREE ENERGY PREDICTED BY IDOCK:    3.81 KCAL/MOL
REMARK 922        TOTAL FREE ENERGY PREDICTED BY IDOCK:    3.74 KCAL/MOL
REMARK 923 INTER-LIGAND FREE ENERGY PREDICTED BY IDOCK:    3.49 KCAL/MOL
REMARK 924 INTRA-LIGAND FREE ENERGY PREDICTED BY IDOCK:    0.26 KCAL/MOL
REMARK 927      BINDING AFFINITY PREDICTED BY RF-SCORE:    0.00 PKD
ROOT
HETATM    1  C   UNL     1     -12.358  10.397  69.706  1.00  0.00    -0.053 C  
HETATM    2  N   UNL     1     -12.106  11.767  69.288  1.00  0.00    -0.269 N  
HETATM    3  C   UNL     1     -12.278  12.841  70.215  1.00  0.00    -0.277 A  
HETATM    4  C   UNL     1     -11.528  14.035  70.162  1.00  0.00    -0.199 A  
HETATM    5  C   UNL     1     -11.789  15.082  71.067  1.00  0.00    -0.373 A  
HETATM    6  C   UNL     1     -10.393  14.228  69.206  1.00  0.00    -0.057 C  
HETATM    7  N   UNL     1     -10.460  13.958  67.945  1.00  0.00    -0.239 NA 
HETATM    8  C   UNL     1     -12.744  14.922  72.065  1.00  0.00    -0.324 A  
HETATM    9  O   UNL     1     -11.656  10.990  67.162  1.00  0.00    -0.469 OA 
HETATM   10  H   UNL     1     -12.542  13.069  65.653  1.00  0.00     0.000 HD 
HETATM   11  H   UNL     1      -9.662  14.126  67.333  1.00  0.00     0.000 HD 
HETATM   12  C   UNL     1     -13.466  13.741  72.158  1.00  0.00    -0.596 A  
HETATM   13 CL   UNL     1     -13.014  16.183  73.202  1.00  0.00    -0.569 Cl 
HETATM   14  C   UNL     1     -11.699  13.407  67.417  1.00  0.00    -0.373 C  
HETATM   15  C   UNL     1     -13.240  12.714  71.236  1.00  0.00    -0.119 A  
HETATM   16  O   UNL     1     -11.733  13.428  65.998  1.00  0.00    -0.333 OA 
HETATM   17  C   UNL     1     -11.801  11.947  67.934  1.00  0.00    -0.238 C  
ENDROOT
BRANCH   6  18
HETATM   18  C   UNL     1      -9.093  14.792  69.712  1.00  0.00     0.318 A  
HETATM   19  C   UNL     1      -8.996  15.445  70.947  1.00  0.00     2.294 A  
HETATM   20  C   UNL     1      -6.649  15.877  70.544  1.00  0.00     0.559 A  
HETATM   21  C   UNL     1      -7.778  15.997  71.354  1.00  0.00     5.111 A  
HETATM   22  C   UNL     1      -6.729  15.193  69.333  1.00  0.00    -0.162 A  
HETATM   23  C   UNL     1      -7.946  14.648  68.919  1.00  0.00    -0.149 A  
ENDBRANCH   6  18
TORSDOF 1
ENDMDL
MODEL      140
REMARK 921   NORMALIZED FREE ENERGY PREDICTED BY IDOCK:    5.58 KCAL/MOL
REMARK 922        TOTAL FREE ENERGY PREDICTED BY IDOCK:    5.61 KCAL/MOL
REMARK 923 INTER-LIGAND FREE ENERGY PREDICTED BY IDOCK:    5.45 KCAL/MOL
REMARK 924 INTRA-LIGAND FREE ENERGY PREDICTED BY IDOCK:    0.17 KCAL/MOL
REMARK 927      BINDING AFFINITY PREDICTED BY RF-SCORE:    0.00 PKD
ROOT
HETATM    1  C   UNL     1      -8.231  16.032  70.548  1.00  0.00     2.221 C  
HETATM    2  N   UNL     1      -9.501  15.983  69.839  1.00  0.00     0.049 N  
HETATM    3  C   UNL     1      -9.598  16.495  68.510  1.00  0.00    -0.233 A  
HETATM    4  C   UNL     1     -10.497  15.987  67.548  1.00  0.00    -0.297 A  
HETATM    5  C   UNL     1     -10.588  16.578  66.273  1.00  0.00    -0.223 A  
HETATM    6  C   UNL     1     -11.339  14.775  67.799  1.00  0.00    -0.330 C  
HETATM    7  N   UNL     1     -12.039  14.594  68.869  1.00  0.00    -0.528 NA 
HETATM    8  C   UNL     1      -9.745  17.627  65.927  1.00  0.00    -0.031 A  
HETATM    9  O   UNL     1     -10.469  15.071  71.725  1.00  0.00     0.513 OA 
HETATM   10  H   UNL     1     -12.982  16.091  71.561  1.00  0.00     0.000 HD 
HETATM   11  H   UNL     1     -12.611  13.757  68.981  1.00  0.00     0.000 HD 
HETATM   12  C   UNL     1      -8.827  18.118  66.844  1.00  0.00    -0.273 A  
HETATM   13 CL   UNL     1      -9.823  18.304  64.348  1.00  0.00     5.509 Cl 
HETATM   14  C   UNL     1     -11.993  15.610  69.909  1.00  0.00    -0.360 C  
HETATM   15  C   UNL     1      -8.762  17.562  68.126  1.00  0.00    -0.262 A  
HETATM   16  O   UNL     1     -13.012  15.427  70.881  1.00  0.00    -0.437 OA 
HETATM   17  C   UNL     1     -10.595  15.511  70.575  1.00  0.00    -0.216 C  
ENDROOT
BRANCH   6  18
HETATM   18  C   UNL     1     -11.410  13.700  66.749  1.00  0.00    -0.346 A  
HETATM   19  C   UNL     1     -12.294  12.618  66.851  1.00  0.00     0.214 A  
HETATM   20  C   UNL     1     -11.425  11.702  64.786  1.00  0.00    -0.225 A  
HETATM   21  C   UNL     1     -12.290  11.615  65.877  1.00  0.00     1.377 A  
HETATM   22  C   UNL     1     -10.572  12.797  64.658  1.00  0.00    -0.371 A  
HETATM   23  C   UNL     1     -10.567  13.794  65.634  1.00  0.00    -0.302 A  
ENDBRANCH   6  18
TORSDOF 1
ENDMDL
MODEL      141
REMARK 921   NORMALIZED FREE ENERGY PREDICTED BY IDOCK:    5.98 KCAL/MOL
REMARK 922        TOTAL FREE ENERGY PREDICTED BY IDOCK:    6.03 KCAL/MOL
REMARK 923 INTER-LIGAND FREE ENERGY PREDICTED BY IDOCK:    6.45 KCAL/MOL
REMARK 924 INTRA-LIGAND FREE ENERGY PREDICTED BY IDOCK:   -0.41 KCAL/MOL
REMARK 927      BINDING AFFINITY PREDICTED BY RF-SCORE:    0.00 PKD
ROOT
HETATM    1  C   UNL     1     -10.285  15.803  68.489  1.00  0.00    -0.216 C  
HETATM    2  N   UNL     1     -10.100  17.136  67.936  1.00  0.00    -0.294 N  
HETATM    3  C   UNL     1      -9.106  18.005  68.483  1.00  0.00    -0.284 A  
HETATM    4  C   UNL     1      -8.429  18.982  67.721  1.00  0.00    -0.323 A  
HETATM    5  C   UNL     1      -7.506  19.850  68.333  1.00  0.00    -0.312 A  
HETATM    6  C   UNL     1      -8.602  19.105  66.239  1.00  0.00    -0.296 C  
HETATM    7  N   UNL     1      -9.749  19.123  65.647  1.00  0.00    -0.272 NA 
HETATM    8  C   UNL     1      -7.202  19.710  69.682  1.00  0.00    -0.101 A  
HETATM    9  O   UNL     1     -11.853  16.734  66.491  1.00  0.00     1.314 OA 
HETATM   10  H   UNL     1     -12.911  19.226  66.254  1.00  0.00     0.000 HD 
HETATM   11  H   UNL     1      -9.810  19.228  64.634  1.00  0.00     0.000 HD 
HETATM   12  C   UNL     1      -7.827  18.731  70.441  1.00  0.00     2.220 A  
HETATM   13 CL   UNL     1      -6.028  20.736  70.408  1.00  0.00    -0.088 Cl 
HETATM   14  C   UNL     1     -10.950  18.991  66.456  1.00  0.00    -0.042 C  
HETATM   15  C   UNL     1      -8.777  17.893  69.847  1.00  0.00     1.697 A  
HETATM   16  O   UNL     1     -12.125  19.312  65.725  1.00  0.00     2.658 OA 
HETATM   17  C   UNL     1     -11.008  17.518  66.942  1.00  0.00     0.130 C  
ENDROOT
BRANCH   6  18
HETATM   18  C   UNL     1      -7.383  19.240  65.367  1.00  0.00     0.061 A  
HETATM   19  C   UNL     1      -6.899  20.487  64.953  1.00  0.00    -0.193 A  
HETATM   20  C   UNL     1      -5.152  19.397  63.681  1.00  0.00    -0.257 A  
HETATM   21  C   UNL     1      -5.793  20.562  64.101  1.00  0.00    -0.312 A  
HETATM   22  C   UNL     1      -5.604  18.154  64.122  1.00  0.00     0.575 A  
HETATM   23  C   UNL     1      -6.714  18.076  64.965  1.00  0.00     0.783 A  
ENDBRANCH   6  18
TORSDOF 1
ENDMDL
MODEL      142
REMARK 921   NORMALIZED FREE ENERGY PREDICTED BY IDOCK:    6.39 KCAL/MOL
REMARK 922        TOTAL FREE ENERGY PREDICTED BY IDOCK:    6.48 KCAL/MOL
REMARK 923 INTER-LIGAND FREE ENERGY PREDICTED BY IDOCK:    6.80 KCAL/MOL
REMARK 924 INTRA-LIGAND FREE ENERGY PREDICTED BY IDOCK:   -0.33 KCAL/MOL
REMARK 927      BINDING AFFINITY PREDICTED BY RF-SCORE:    0.00 PKD
ROOT
HETATM    1  C   UNL     1      -9.426  14.867  72.125  1.00  0.00     5.312 C  
HETATM    2  N   UNL     1     -10.623  14.385  71.454  1.00  0.00     1.622 N  
HETATM    3  C   UNL     1     -10.510  13.574  70.284  1.00  0.00     1.775 A  
HETATM    4  C   UNL     1     -11.458  12.591  69.929  1.00  0.00    -0.159 A  
HETATM    5  C   UNL     1     -11.321  11.868  68.729  1.00  0.00    -0.330 A  
HETATM    6  C   UNL     1     -12.603  12.223  70.820  1.00  0.00    -0.213 C  
HETATM    7  N   UNL     1     -13.383  13.084  71.384  1.00  0.00    -0.192 NA 
HETATM    8  C   UNL     1     -10.213  12.069  67.914  1.00  0.00    -0.196 A  
HETATM    9  O   UNL     1     -11.898  15.550  72.985  1.00  0.00    -0.436 OA 
HETATM   10  H   UNL     1     -14.039  16.237  71.460  1.00  0.00     0.000 HD 
HETATM   11  H   UNL     1     -14.161  12.778  71.967  1.00  0.00     0.000 HD 
HETATM   12  C   UNL     1      -9.249  13.003  68.263  1.00  0.00    -0.191 A  
HETATM   13 CL   UNL     1     -10.025  11.139  66.480  1.00  0.00    -0.241 Cl 
HETATM   14  C   UNL     1     -13.125  14.500  71.169  1.00  0.00    -0.359 C  
HETATM   15  C   UNL     1      -9.402  13.754  69.433  1.00  0.00     0.730 A  
HETATM   16  O   UNL     1     -14.207  15.312  71.600  1.00  0.00    -0.492 OA 
HETATM   17  C   UNL     1     -11.841  14.851  71.965  1.00  0.00    -0.327 C  
ENDROOT
BRANCH   6  18
HETATM   18  C   UNL     1     -12.901  10.770  71.071  1.00  0.00    -0.480 A  
HETATM   19  C   UNL     1     -13.716  10.018  70.215  1.00  0.00     0.773 A  
HETATM   20  C   UNL     1     -13.463   8.089  71.655  1.00  0.00    -0.375 A  
HETATM   21  C   UNL     1     -14.005   8.684  70.516  1.00  0.00     0.932 A  
HETATM   22  C   UNL     1     -12.618   8.819  72.488  1.00  0.00    -0.375 A  
HETATM   23  C   UNL     1     -12.334  10.154  72.196  1.00  0.00     0.025 A  
ENDBRANCH   6  18
TORSDOF 1
ENDMDL
MODEL      143
REMARK 921   NORMALIZED FREE ENERGY PREDICTED BY IDOCK:   10.66 KCAL/MOL
REMARK 922        TOTAL FREE ENERGY PREDICTED BY IDOCK:   10.99 KCAL/MOL
REMARK 923 INTER-LIGAND FREE ENERGY PREDICTED BY IDOCK:   11.39 KCAL/MOL
REMARK 924 INTRA-LIGAND FREE ENERGY PREDICTED BY IDOCK:   -0.40 KCAL/MOL
REMARK 927      BINDING AFFINITY PREDICTED BY RF-SCORE:    0.00 PKD
ROOT
HETATM    1  C   UNL     1      -8.884  15.185  66.121  1.00  0.00    -0.069 C  
HETATM    2  N   UNL     1      -9.030  14.430  67.356  1.00  0.00    -0.189 N  
HETATM    3  C   UNL     1      -8.163  13.328  67.627  1.00  0.00    -0.179 A  
HETATM    4  C   UNL     1      -7.787  12.941  68.931  1.00  0.00     0.139 A  
HETATM    5  C   UNL     1      -6.980  11.806  69.134  1.00  0.00    -0.091 A  
HETATM    6  C   UNL     1      -8.162  13.737  70.142  1.00  0.00     2.279 C  
HETATM    7  N   UNL     1      -9.355  14.169  70.379  1.00  0.00     1.584 NA 
HETATM    8  C   UNL     1      -6.491  11.092  68.046  1.00  0.00    -0.057 A  
HETATM    9  O   UNL     1     -10.837  15.757  67.902  1.00  0.00    -0.296 OA 
HETATM   10  H   UNL     1     -12.377  13.991  69.279  1.00  0.00     0.000 HD 
HETATM   11  H   UNL     1      -9.560  14.692  71.230  1.00  0.00     0.000 HD 
HETATM   12  C   UNL     1      -6.816  11.477  66.754  1.00  0.00    -0.114 A  
HETATM   13 CL   UNL     1      -5.457   9.742  68.302  1.00  0.00    -0.039 Cl 
HETATM   14  C   UNL     1     -10.399  13.896  69.404  1.00  0.00     0.188 C  
HETATM   15  C   UNL     1      -7.652  12.580  66.548  1.00  0.00     0.558 A  
HETATM   16  O   UNL     1     -11.695  14.170  69.916  1.00  0.00    -0.280 OA 
HETATM   17  C   UNL     1     -10.111  14.791  68.170  1.00  0.00    -0.221 C  
ENDROOT
BRANCH   6  18
HETATM   18  C   UNL     1      -7.110  14.044  71.173  1.00  0.00     1.991 A  
HETATM   19  C   UNL     1      -6.905  13.230  72.294  1.00  0.00     4.829 A  
HETATM   20  C   UNL     1      -5.179  14.733  73.082  1.00  0.00    -0.107 A  
HETATM   21  C   UNL     1      -5.950  13.583  73.251  1.00  0.00     0.880 A  
HETATM   22  C   UNL     1      -5.350  15.526  71.949  1.00  0.00     0.176 A  
HETATM   23  C   UNL     1      -6.309  15.181  70.995  1.00  0.00     0.410 A  
ENDBRANCH   6  18
TORSDOF 1
ENDMDL
MODEL      144
REMARK 921   NORMALIZED FREE ENERGY PREDICTED BY IDOCK:   17.45 KCAL/MOL
REMARK 922        TOTAL FREE ENERGY PREDICTED BY IDOCK:   18.18 KCAL/MOL
REMARK 923 INTER-LIGAND FREE ENERGY PREDICTED BY IDOCK:   18.39 KCAL/MOL
REMARK 924 INTRA-LIGAND FREE ENERGY PREDICTED BY IDOCK:   -0.20 KCAL/MOL
REMARK 927      BINDING AFFINITY PREDICTED BY RF-SCORE:    0.00 PKD
ROOT
HETATM    1  C   UNL     1      -5.190  16.994  70.169  1.00  0.00    -0.198 C  
HETATM    2  N   UNL     1      -6.406  17.460  69.521  1.00  0.00    -0.248 N  
HETATM    3  C   UNL     1      -6.560  17.323  68.108  1.00  0.00    -0.164 A  
HETATM    4  C   UNL     1      -7.812  17.148  67.479  1.00  0.00    -0.190 A  
HETATM    5  C   UNL     1      -7.902  17.083  66.076  1.00  0.00    -0.167 A  
HETATM    6  C   UNL     1      -9.078  16.959  68.253  1.00  0.00    -0.235 C  
HETATM    7  N   UNL     1      -9.435  17.706  69.244  1.00  0.00     0.012 NA 
HETATM    8  C   UNL     1      -6.751  17.124  65.298  1.00  0.00     1.936 A  
HETATM    9  O   UNL     1      -7.157  18.215  71.568  1.00  0.00     4.094 OA 
HETATM   10  H   UNL     1      -8.603  20.390  70.819  1.00  0.00     0.000 HD 
HETATM   11  H   UNL     1     -10.319  17.545  69.726  1.00  0.00     0.000 HD 
HETATM   12  C   UNL     1      -5.507  17.257  65.897  1.00  0.00     0.172 A  
HETATM   13 CL   UNL     1      -6.867  16.984  63.588  1.00  0.00    11.175 Cl 
HETATM   14  C   UNL     1      -8.548  18.782  69.657  1.00  0.00     0.732 C  
HETATM   15  C   UNL     1      -5.415  17.365  67.289  1.00  0.00    -0.154 A  
HETATM   16  O   UNL     1      -9.182  19.687  70.549  1.00  0.00     1.015 OA 
HETATM   17  C   UNL     1      -7.325  18.120  70.345  1.00  0.00     2.210 C  
ENDROOT
BRANCH   6  18
HETATM   18  C   UNL     1     -10.021  15.854  67.861  1.00  0.00    -0.221 A  
HETATM   19  C   UNL     1     -10.862  15.955  66.744  1.00  0.00    -0.228 A  
HETATM   20  C   UNL     1     -11.801  13.781  67.245  1.00  0.00    -0.436 A  
HETATM   21  C   UNL     1     -11.758  14.924  66.447  1.00  0.00    -0.193 A  
HETATM   22  C   UNL     1     -10.939  13.657  68.333  1.00  0.00    -0.284 A  
HETATM   23  C   UNL     1     -10.050  14.688  68.638  1.00  0.00    -0.238 A  
ENDBRANCH   6  18
TORSDOF 1
ENDMDL
MODEL      145
REMARK 921   NORMALIZED FREE ENERGY PREDICTED BY IDOCK:   28.56 KCAL/MOL
REMARK 922        TOTAL FREE ENERGY PREDICTED BY IDOCK:   29.94 KCAL/MOL
REMARK 923 INTER-LIGAND FREE ENERGY PREDICTED BY IDOCK:   29.78 KCAL/MOL
REMARK 924 INTRA-LIGAND FREE ENERGY PREDICTED BY IDOCK:    0.17 KCAL/MOL
REMARK 927      BINDING AFFINITY PREDICTED BY RF-SCORE:    0.00 PKD
ROOT
HETATM    1  C   UNL     1     -10.207  14.827  63.687  1.00  0.00     4.222 C  
HETATM    2  N   UNL     1      -9.977  14.767  65.123  1.00  0.00    -0.318 N  
HETATM    3  C   UNL     1      -8.850  15.434  65.694  1.00  0.00     0.609 A  
HETATM    4  C   UNL     1      -8.846  15.962  67.003  1.00  0.00    -0.240 A  
HETATM    5  C   UNL     1      -7.682  16.553  67.531  1.00  0.00    -0.171 A  
HETATM    6  C   UNL     1     -10.071  15.983  67.863  1.00  0.00    -0.241 C  
HETATM    7  N   UNL     1     -10.842  14.963  68.042  1.00  0.00    -0.256 NA 
HETATM    8  C   UNL     1      -6.544  16.682  66.742  1.00  0.00    -0.182 A  
HETATM    9  O   UNL     1     -11.818  13.389  65.317  1.00  0.00    -0.321 OA 
HETATM   10  H   UNL     1     -11.067  11.814  67.401  1.00  0.00     0.000 HD 
HETATM   11  H   UNL     1     -11.655  15.026  68.655  1.00  0.00     0.000 HD 
HETATM   12  C   UNL     1      -6.539  16.205  65.440  1.00  0.00     5.353 A  
HETATM   13 CL   UNL     1      -5.147  17.459  67.376  1.00  0.00    -0.124 Cl 
HETATM   14  C   UNL     1     -10.527  13.723  67.350  1.00  0.00    -0.256 C  
HETATM   15  C   UNL     1      -7.679  15.579  64.925  1.00  0.00     8.751 A  
HETATM   16  O   UNL     1     -11.274  12.624  67.852  1.00  0.00    -0.235 OA 
HETATM   17  C   UNL     1     -10.849  13.949  65.849  1.00  0.00    -0.287 C  
ENDROOT
BRANCH   6  18
HETATM   18  C   UNL     1     -10.435  17.247  68.593  1.00  0.00    -0.356 A  
HETATM   19  C   UNL     1      -9.485  18.003  69.292  1.00  0.00     0.114 A  
HETATM   20  C   UNL     1     -11.213  19.548  69.987  1.00  0.00     3.505 A  
HETATM   21  C   UNL     1      -9.878  19.143  69.998  1.00  0.00     0.686 A  
HETATM   22  C   UNL     1     -12.156  18.824  69.260  1.00  0.00     7.771 A  
HETATM   23  C   UNL     1     -11.768  17.680  68.562  1.00  0.00     1.753 A  
ENDBRANCH   6  18
TORSDOF 1
ENDMDL
MODEL      146
REMARK 921   NORMALIZED FREE ENERGY PREDICTED BY IDOCK:   36.63 KCAL/MOL
REMARK 922        TOTAL FREE ENERGY PREDICTED BY IDOCK:   38.48 KCAL/MOL
REMARK 923 INTER-LIGAND FREE ENERGY PREDICTED BY IDOCK:   38.49 KCAL/MOL
REMARK 924 INTRA-LIGAND FREE ENERGY PREDICTED BY IDOCK:   -0.02 KCAL/MOL
REMARK 927      BINDING AFFINITY PREDICTED BY RF-SCORE:    0.00 PKD
ROOT
HETATM    1  C   UNL     1      -6.633  13.688  66.767  1.00  0.00     1.695 C  
HETATM    2  N   UNL     1      -6.508  13.733  68.216  1.00  0.00    -0.097 N  
HETATM    3  C   UNL     1      -6.433  14.991  68.888  1.00  0.00    -0.091 A  
HETATM    4  C   UNL     1      -6.914  15.198  70.199  1.00  0.00    -0.003 A  
HETATM    5  C   UNL     1      -6.753  16.446  70.829  1.00  0.00     1.678 A  
HETATM    6  C   UNL     1      -7.664  14.145  70.953  1.00  0.00     2.836 C  
HETATM    7  N   UNL     1      -7.277  12.918  71.054  1.00  0.00     2.504 NA 
HETATM    8  C   UNL     1      -6.177  17.508  70.141  1.00  0.00     0.096 A  
HETATM    9  O   UNL     1      -6.439  11.426  68.239  1.00  0.00    -0.055 OA 
HETATM   10  H   UNL     1      -4.800  10.979  70.359  1.00  0.00     0.000 HD 
HETATM   11  H   UNL     1      -7.817  12.244  71.597  1.00  0.00     0.000 HD 
HETATM   12  C   UNL     1      -5.733  17.338  68.838  1.00  0.00    -0.158 A  
HETATM   13 CL   UNL     1      -6.039  19.046  70.899  1.00  0.00     0.082 Cl 
HETATM   14  C   UNL     1      -6.053  12.517  70.377  1.00  0.00    -0.014 C  
HETATM   15  C   UNL     1      -5.852  16.088  68.222  1.00  0.00    -0.113 A  
HETATM   16  O   UNL     1      -5.599  11.240  70.802  1.00  0.00    -0.141 OA 
HETATM   17  C   UNL     1      -6.364  12.496  68.857  1.00  0.00    -0.086 C  
ENDROOT
BRANCH   6  18
HETATM   18  C   UNL     1      -8.936  14.517  71.664  1.00  0.00     5.518 A  
HETATM   19  C   UNL     1      -9.602  15.725  71.417  1.00  0.00     3.133 A  
HETATM   20  C   UNL     1     -11.260  15.164  73.089  1.00  0.00     0.484 A  
HETATM   21  C   UNL     1     -10.754  16.051  72.138  1.00  0.00     1.490 A  
HETATM   22  C   UNL     1     -10.625  13.943  73.311  1.00  0.00     6.576 A  
HETATM   23  C   UNL     1      -9.470  13.619  72.599  1.00  0.00    13.158 A  
ENDBRANCH   6  18
TORSDOF 1
ENDMDL
MODEL      147
REMARK 921   NORMALIZED FREE ENERGY PREDICTED BY IDOCK:   46.76 KCAL/MOL
REMARK 922        TOTAL FREE ENERGY PREDICTED BY IDOCK:   49.20 KCAL/MOL
REMARK 923 INTER-LIGAND FREE ENERGY PREDICTED BY IDOCK:   49.17 KCAL/MOL
REMARK 924 INTRA-LIGAND FREE ENERGY PREDICTED BY IDOCK:    0.04 KCAL/MOL
REMARK 927      BINDING AFFINITY PREDICTED BY RF-SCORE:    0.00 PKD
ROOT
HETATM    1  C   UNL     1      -9.266   8.639  65.558  1.00  0.00    -0.091 C  
HETATM    2  N   UNL     1     -10.422   8.667  66.441  1.00  0.00    -0.088 N  
HETATM    3  C   UNL     1     -11.035   7.444  66.853  1.00  0.00    -0.003 A  
HETATM    4  C   UNL     1     -11.690   7.287  68.094  1.00  0.00     1.240 A  
HETATM    5  C   UNL     1     -12.330   6.075  68.414  1.00  0.00     4.986 A  
HETATM    6  C   UNL     1     -11.686   8.354  69.143  1.00  0.00     1.259 C  
HETATM    7  N   UNL     1     -11.956   9.595  68.910  1.00  0.00     0.099 NA 
HETATM    8  C   UNL     1     -12.266   4.997  67.539  1.00  0.00     8.550 A  
HETATM    9  O   UNL     1     -10.362  10.973  66.378  1.00  0.00    -0.235 OA 
HETATM   10  H   UNL     1     -13.006  11.565  66.587  1.00  0.00     0.000 HD 
HETATM   11  H   UNL     1     -11.957  10.279  69.667  1.00  0.00     0.000 HD 
HETATM   12  C   UNL     1     -11.594   5.118  66.331  1.00  0.00     1.773 A  
HETATM   13 CL   UNL     1     -13.000   3.502  67.965  1.00  0.00    26.308 Cl 
HETATM   14  C   UNL     1     -12.258   9.996  67.545  1.00  0.00     3.909 C  
HETATM   15  C   UNL     1     -10.993   6.333  65.989  1.00  0.00     0.995 A  
HETATM   16  O   UNL     1     -12.808  11.303  67.479  1.00  0.00     2.105 OA 
HETATM   17  C   UNL     1     -10.925   9.936  66.751  1.00  0.00     0.080 C  
ENDROOT
BRANCH   6  18
HETATM   18  C   UNL     1     -11.375   7.982  70.568  1.00  0.00    -0.229 A  
HETATM   19  C   UNL     1     -10.256   8.488  71.242  1.00  0.00    -0.287 A  
HETATM   20  C   UNL     1     -10.829   7.178  73.194  1.00  0.00    -0.373 A  
HETATM   21  C   UNL     1      -9.979   8.075  72.548  1.00  0.00    -0.338 A  
HETATM   22  C   UNL     1     -11.966   6.701  72.544  1.00  0.00    -0.089 A  
HETATM   23  C   UNL     1     -12.240   7.105  71.236  1.00  0.00    -0.403 A  
ENDBRANCH   6  18
TORSDOF 1
ENDMDL
